# DDEC6 charges by PACMAN v1.1 (https://github.com/mtap-research/PACMAN-charge/)
data_2016[Cu][nbo]3[ASR]46
_chemical_formula_sum              "Cu6 H78 C126 O30"
_cell_length_a       21.5664
_cell_length_b       21.5664
_cell_length_c       21.5664
_cell_angle_alpha    109.129
_cell_angle_beta     109.129
_cell_angle_gamma    109.129

_symmetry_space_group_name_H-M    "P 1"
_symmetry_Int_Tables_number       1

loop_
  _symmetry_equiv_pos_as_xyz
  'x, y, z'

loop_
  _atom_site_type_symbol
  _atom_site_label
  _atom_site_symmetry_multiplicity
  _atom_site_fract_x
  _atom_site_fract_y
  _atom_site_fract_z
  _atom_site_occupancy
  _atom_site_charge
Cu  Cu1       1.0  0.45175  0.45175  0.92799  1.0000 0.8675777518
Cu  Cu2       1.0  0.45175  0.92799  0.45175  1.0000 0.8675777518
Cu  Cu3       1.0  0.92799  0.45175  0.45175  1.0000 0.8675777518
Cu  Cu4       1.0  0.54825  0.54825  0.07201  1.0000 0.8675777518
Cu  Cu5       1.0  0.07201  0.54825  0.54825  1.0000 0.8675777518
Cu  Cu6       1.0  0.54825  0.07201  0.54825  1.0000 0.8675777518
H   H1        1.0  0.39220  0.57100  0.14990  1.0000 0.1305630552
H   H2        1.0  0.57100  0.14990  0.39220  1.0000 0.1305630552
H   H3        1.0  0.14990  0.39220  0.57100  1.0000 0.1305630552
H   H4        1.0  0.42900  0.60780  0.85010  1.0000 0.1305630552
H   H5        1.0  0.85010  0.42900  0.60780  1.0000 0.1305630552
H   H6        1.0  0.60780  0.85010  0.42900  1.0000 0.1305630552
H   H7        1.0  0.60780  0.42900  0.85010  1.0000 0.1305630552
H   H8        1.0  0.42900  0.85010  0.60780  1.0000 0.1305630552
H   H9        1.0  0.85010  0.60780  0.42900  1.0000 0.1305630552
H   H10       1.0  0.57100  0.39220  0.14990  1.0000 0.1305630552
H   H11       1.0  0.14990  0.57100  0.39220  1.0000 0.1305630552
H   H12       1.0  0.39220  0.14990  0.57100  1.0000 0.1305630552
H   H13       1.0  0.29230  0.56660  0.17140  1.0000 0.1201349044
H   H14       1.0  0.56660  0.17140  0.29230  1.0000 0.1201349044
H   H15       1.0  0.17140  0.29230  0.56660  1.0000 0.1201349044
H   H16       1.0  0.43340  0.70770  0.82860  1.0000 0.1201349044
H   H17       1.0  0.82860  0.43340  0.70770  1.0000 0.1201349044
H   H18       1.0  0.70770  0.82860  0.43340  1.0000 0.1201349044
H   H19       1.0  0.70770  0.43340  0.82860  1.0000 0.1201349044
H   H20       1.0  0.43340  0.82860  0.70770  1.0000 0.1201349044
H   H21       1.0  0.82860  0.70770  0.43340  1.0000 0.1201349044
H   H22       1.0  0.56660  0.29230  0.17140  1.0000 0.1201349044
H   H23       1.0  0.17140  0.56660  0.29230  1.0000 0.1201349044
H   H24       1.0  0.29230  0.17140  0.56660  1.0000 0.1201349044
H   H25       1.0  0.14630  0.41000  0.95440  1.0000 0.1201349044
H   H26       1.0  0.41000  0.95440  0.14630  1.0000 0.1201349044
H   H27       1.0  0.95440  0.14630  0.41000  1.0000 0.1201349044
H   H28       1.0  0.59000  0.85370  0.04560  1.0000 0.1201349044
H   H29       1.0  0.04560  0.59000  0.85370  1.0000 0.1201349044
H   H30       1.0  0.85370  0.04560  0.59000  1.0000 0.1201349044
H   H31       1.0  0.85370  0.59000  0.04560  1.0000 0.1201349044
H   H32       1.0  0.59000  0.04560  0.85370  1.0000 0.1201349044
H   H33       1.0  0.04560  0.85370  0.59000  1.0000 0.1201349044
H   H34       1.0  0.41000  0.14630  0.95440  1.0000 0.1097781222
H   H35       1.0  0.95440  0.41000  0.14630  1.0000 0.1201349044
H   H36       1.0  0.14630  0.95440  0.41000  1.0000 0.1201349044
H   H37       1.0  0.24670  0.41540  0.93380  1.0000 0.1305630552
H   H38       1.0  0.41540  0.93380  0.24670  1.0000 0.1305630552
H   H39       1.0  0.93380  0.24670  0.41540  1.0000 0.1305630552
H   H40       1.0  0.58460  0.75330  0.06620  1.0000 0.1305630552
H   H41       1.0  0.06620  0.58460  0.75330  1.0000 0.1305630552
H   H42       1.0  0.75330  0.06620  0.58460  1.0000 0.1305630552
H   H43       1.0  0.75330  0.58460  0.06620  1.0000 0.1305630552
H   H44       1.0  0.58460  0.06620  0.75330  1.0000 0.1305630552
H   H45       1.0  0.06620  0.75330  0.58460  1.0000 0.1305630552
H   H46       1.0  0.41540  0.24670  0.93380  1.0000 0.1305630552
H   H47       1.0  0.93380  0.41540  0.24670  1.0000 0.1305630552
H   H48       1.0  0.24670  0.93380  0.41540  1.0000 0.1305630552
H   H49       1.0  0.09660  0.49740  0.98240  1.0000 0.1097781222
H   H50       1.0  0.49740  0.98240  0.09660  1.0000 0.1097781222
H   H51       1.0  0.98240  0.09660  0.49740  1.0000 0.1097781222
H   H52       1.0  0.50260  0.90340  0.01760  1.0000 0.1097781222
H   H53       1.0  0.01760  0.50260  0.90340  1.0000 0.1097781222
H   H54       1.0  0.90340  0.01760  0.50260  1.0000 0.1097781222
H   H55       1.0  0.90340  0.50260  0.01760  1.0000 0.1097781222
H   H56       1.0  0.50260  0.01760  0.90340  1.0000 0.1097781222
H   H57       1.0  0.01760  0.90340  0.50260  1.0000 0.1097781222
H   H58       1.0  0.49740  0.09660  0.98240  1.0000 0.1097781222
H   H59       1.0  0.98240  0.49740  0.09660  1.0000 0.1097781222
H   H60       1.0  0.09660  0.98240  0.49740  1.0000 0.1097781222
H   H61       1.0  0.21300  0.41470  0.21300  1.0000 0.1201349044
H   H62       1.0  0.41470  0.21300  0.21300  1.0000 0.1201349044
H   H63       1.0  0.21300  0.21300  0.41470  1.0000 0.1201349044
H   H64       1.0  0.58530  0.78700  0.78700  1.0000 0.1201349044
H   H65       1.0  0.78700  0.58530  0.78700  1.0000 0.1201349044
H   H66       1.0  0.78700  0.78700  0.58530  1.0000 0.1201349044
H   H67       1.0  0.12610  0.38860  0.17120  1.0000 0.1097781222
H   H68       1.0  0.38860  0.17120  0.12610  1.0000 0.1097781222
H   H69       1.0  0.17120  0.12610  0.38860  1.0000 0.1097781222
H   H70       1.0  0.61140  0.87390  0.82880  1.0000 0.1097781222
H   H71       1.0  0.82880  0.61140  0.87390  1.0000 0.1047598773
H   H72       1.0  0.87390  0.82880  0.61140  1.0000 0.1097781222
H   H73       1.0  0.87390  0.61140  0.82880  1.0000 0.1047598773
H   H74       1.0  0.61140  0.82880  0.87390  1.0000 0.1097781222
H   H75       1.0  0.82880  0.87390  0.61140  1.0000 0.1097781222
H   H76       1.0  0.38860  0.12610  0.17120  1.0000 0.1097781222
H   H77       1.0  0.17120  0.38860  0.12610  1.0000 0.1097781222
H   H78       1.0  0.12610  0.17120  0.38860  1.0000 0.1097781222
C   C1        1.0  0.39318  0.49480  0.02559  1.0000 0.581509064
C   C2        1.0  0.49480  0.02559  0.39318  1.0000 0.581509064
C   C3        1.0  0.02559  0.39318  0.49480  1.0000 0.581509064
C   C4        1.0  0.50520  0.60682  0.97441  1.0000 0.581509064
C   C5        1.0  0.97441  0.50520  0.60682  1.0000 0.581509064
C   C6        1.0  0.60682  0.97441  0.50520  1.0000 0.581509064
C   C7        1.0  0.60682  0.50520  0.97441  1.0000 0.581509064
C   C8        1.0  0.50520  0.97441  0.60682  1.0000 0.581509064
C   C9        1.0  0.97441  0.60682  0.50520  1.0000 0.581509064
C   C10       1.0  0.49480  0.39318  0.02559  1.0000 0.581509064
C   C11       1.0  0.02559  0.49480  0.39318  1.0000 0.581509064
C   C12       1.0  0.39318  0.02559  0.49480  1.0000 0.581509064
C   C13       1.0  0.32816  0.49190  0.03897  1.0000 -0.0298885135
C   C14       1.0  0.49190  0.03897  0.32816  1.0000 -0.0298885135
C   C15       1.0  0.03897  0.32816  0.49190  1.0000 -0.0298885135
C   C16       1.0  0.50810  0.67184  0.96103  1.0000 -0.0298885135
C   C17       1.0  0.96103  0.50810  0.67184  1.0000 -0.0298885135
C   C18       1.0  0.67184  0.96103  0.50810  1.0000 -0.0298885135
C   C19       1.0  0.67184  0.50810  0.96103  1.0000 -0.0298885135
C   C20       1.0  0.50810  0.96103  0.67184  1.0000 -0.0298885135
C   C21       1.0  0.96103  0.67184  0.50810  1.0000 -0.0298885135
C   C22       1.0  0.49190  0.32816  0.03897  1.0000 -0.0298885135
C   C23       1.0  0.03897  0.49190  0.32816  1.0000 -0.0298885135
C   C24       1.0  0.32816  0.03897  0.49190  1.0000 -0.0298885135
C   C25       1.0  0.34245  0.53840  0.11048  1.0000 -0.0875721763
C   C26       1.0  0.53840  0.11048  0.34245  1.0000 -0.0875721763
C   C27       1.0  0.11048  0.34245  0.53840  1.0000 -0.0875721763
C   C28       1.0  0.46160  0.65755  0.88952  1.0000 -0.0875721763
C   C29       1.0  0.88952  0.46160  0.65755  1.0000 -0.0875721763
C   C30       1.0  0.65755  0.88952  0.46160  1.0000 -0.0875721763
C   C31       1.0  0.65755  0.46160  0.88952  1.0000 -0.0875721763
C   C32       1.0  0.46160  0.88952  0.65755  1.0000 -0.0875721763
C   C33       1.0  0.88952  0.65755  0.46160  1.0000 -0.0875721763
C   C34       1.0  0.53840  0.34245  0.11048  1.0000 -0.0875721763
C   C35       1.0  0.11048  0.53840  0.34245  1.0000 -0.0875721763
C   C36       1.0  0.34245  0.11048  0.53840  1.0000 -0.0875721763
C   C37       1.0  0.28272  0.53629  0.12303  1.0000 -0.1540848775
C   C38       1.0  0.53629  0.12303  0.28272  1.0000 -0.1540848775
C   C39       1.0  0.12303  0.28272  0.53629  1.0000 -0.1540848775
C   C40       1.0  0.46371  0.71728  0.87697  1.0000 -0.1540848775
C   C41       1.0  0.87697  0.46371  0.71728  1.0000 -0.1540848775
C   C42       1.0  0.71728  0.87697  0.46371  1.0000 -0.15586851
C   C43       1.0  0.71728  0.46371  0.87697  1.0000 -0.1540848775
C   C44       1.0  0.46371  0.87697  0.71728  1.0000 -0.15586851
C   C45       1.0  0.87697  0.71728  0.46371  1.0000 -0.1540848775
C   C46       1.0  0.53629  0.28272  0.12303  1.0000 -0.1540848775
C   C47       1.0  0.12303  0.53629  0.28272  1.0000 -0.15586851
C   C48       1.0  0.28272  0.12303  0.53629  1.0000 -0.1540848775
C   C49       1.0  0.20940  0.49010  0.06512  1.0000 0.0910751072
C   C50       1.0  0.49010  0.06512  0.20940  1.0000 0.0910751072
C   C51       1.0  0.06512  0.20940  0.49010  1.0000 0.0910751072
C   C52       1.0  0.50990  0.79060  0.93488  1.0000 0.0910751072
C   C53       1.0  0.93488  0.50990  0.79060  1.0000 0.0910751072
C   C54       1.0  0.79060  0.93488  0.50990  1.0000 0.0910751072
C   C55       1.0  0.79060  0.50990  0.93488  1.0000 0.0910751072
C   C56       1.0  0.50990  0.93488  0.79060  1.0000 0.0910751072
C   C57       1.0  0.93488  0.79060  0.50990  1.0000 0.0910751072
C   C58       1.0  0.49010  0.20940  0.06512  1.0000 0.0910751072
C   C59       1.0  0.06512  0.49010  0.20940  1.0000 0.0910751072
C   C60       1.0  0.20940  0.06512  0.49010  1.0000 0.0910751072
C   C61       1.0  0.19588  0.44313  0.99391  1.0000 -0.1674798525
C   C62       1.0  0.44313  0.99391  0.19588  1.0000 -0.1674798525
C   C63       1.0  0.99391  0.19588  0.44313  1.0000 -0.1674798525
C   C64       1.0  0.55687  0.80412  0.00609  1.0000 -0.1674798525
C   C65       1.0  0.00609  0.55687  0.80412  1.0000 -0.1674798525
C   C66       1.0  0.80412  0.00609  0.55687  1.0000 -0.1674798525
C   C67       1.0  0.80412  0.55687  0.00609  1.0000 -0.1674798525
C   C68       1.0  0.55687  0.00609  0.80412  1.0000 -0.1674798525
C   C69       1.0  0.00609  0.80412  0.55687  1.0000 -0.1674798525
C   C70       1.0  0.44313  0.19588  0.99391  1.0000 -0.1674798525
C   C71       1.0  0.99391  0.44313  0.19588  1.0000 -0.1674798525
C   C72       1.0  0.19588  0.99391  0.44313  1.0000 -0.1674798525
C   C73       1.0  0.25600  0.44588  0.98204  1.0000 -0.0875721763
C   C74       1.0  0.44588  0.98204  0.25600  1.0000 -0.0875721763
C   C75       1.0  0.98204  0.25600  0.44588  1.0000 -0.0875721763
C   C76       1.0  0.55412  0.74400  0.01796  1.0000 -0.0875721763
C   C77       1.0  0.01796  0.55412  0.74400  1.0000 -0.0875721763
C   C78       1.0  0.74400  0.01796  0.55412  1.0000 -0.0875721763
C   C79       1.0  0.74400  0.55412  0.01796  1.0000 -0.0875721763
C   C80       1.0  0.55412  0.01796  0.74400  1.0000 -0.0875721763
C   C81       1.0  0.01796  0.74400  0.55412  1.0000 -0.0875721763
C   C82       1.0  0.44588  0.25600  0.98204  1.0000 -0.0875721763
C   C83       1.0  0.98204  0.44588  0.25600  1.0000 -0.0875721763
C   C84       1.0  0.25600  0.98204  0.44588  1.0000 -0.0875721763
C   C85       1.0  0.14483  0.49199  0.07560  1.0000 -0.0298885135
C   C86       1.0  0.49199  0.07560  0.14483  1.0000 -0.0298885135
C   C87       1.0  0.07560  0.14483  0.49199  1.0000 -0.0298885135
C   C88       1.0  0.50801  0.85517  0.92440  1.0000 -0.0298885135
C   C89       1.0  0.92440  0.50801  0.85517  1.0000 -0.0298885135
C   C90       1.0  0.85517  0.92440  0.50801  1.0000 -0.0298885135
C   C91       1.0  0.85517  0.50801  0.92440  1.0000 -0.0298885135
C   C92       1.0  0.50801  0.92440  0.85517  1.0000 -0.0298885135
C   C93       1.0  0.92440  0.85517  0.50801  1.0000 -0.0298885135
C   C94       1.0  0.49199  0.14483  0.07560  1.0000 -0.0298885135
C   C95       1.0  0.07560  0.49199  0.14483  1.0000 -0.0298885135
C   C96       1.0  0.14483  0.07560  0.49199  1.0000 -0.0298885135
C   C97       1.0  0.09094  0.49588  0.02336  1.0000 -0.2016109671
C   C98       1.0  0.49588  0.02336  0.09094  1.0000 -0.2016109671
C   C99       1.0  0.02336  0.09094  0.49588  1.0000 -0.2016109671
C   C100      1.0  0.50412  0.90906  0.97664  1.0000 -0.2016109671
C   C101      1.0  0.97664  0.50412  0.90906  1.0000 -0.2016109671
C   C102      1.0  0.90906  0.97664  0.50412  1.0000 -0.2016109671
C   C103      1.0  0.90906  0.50412  0.97664  1.0000 -0.2016109671
C   C104      1.0  0.50412  0.97664  0.90906  1.0000 -0.2016109671
C   C105      1.0  0.97664  0.90906  0.50412  1.0000 -0.2016109671
C   C106      1.0  0.49588  0.09094  0.02336  1.0000 -0.2016109671
C   C107      1.0  0.02336  0.49588  0.09094  1.0000 -0.2016109671
C   C108      1.0  0.09094  0.02336  0.49588  1.0000 -0.2016109671
C   C109      1.0  0.02809  0.49767  0.02808  1.0000 0.0685041103
C   C110      1.0  0.49767  0.02808  0.02808  1.0000 0.0685041103
C   C111      1.0  0.02809  0.02808  0.49767  1.0000 0.0685041103
C   C112      1.0  0.50233  0.97192  0.97192  1.0000 0.0685041103
C   C113      1.0  0.97191  0.50233  0.97192  1.0000 0.0685041103
C   C114      1.0  0.97191  0.97191  0.50233  1.0000 0.0685041103
C   C115      1.0  0.13719  0.48993  0.13720  1.0000 0.1498408594
C   C116      1.0  0.48993  0.13720  0.13720  1.0000 0.1498408594
C   C117      1.0  0.13720  0.13720  0.48993  1.0000 0.1498408594
C   C118      1.0  0.51007  0.86281  0.86281  1.0000 0.1498408594
C   C119      1.0  0.86281  0.51007  0.86281  1.0000 0.1498408594
C   C120      1.0  0.86281  0.86281  0.51007  1.0000 0.1498408594
C   C121      1.0  0.17402  0.41437  0.17402  1.0000 -0.2255256868
C   C122      1.0  0.41437  0.17402  0.17402  1.0000 -0.2255256868
C   C123      1.0  0.17402  0.17402  0.41437  1.0000 -0.2255256868
C   C124      1.0  0.58563  0.82598  0.82599  1.0000 -0.2239052675
C   C125      1.0  0.82598  0.58563  0.82599  1.0000 -0.2239052675
C   C126      1.0  0.82598  0.82598  0.58563  1.0000 -0.2255256868
O   O1        1.0  0.37628  0.45463  0.95846  1.0000 -0.5200346804
O   O2        1.0  0.45463  0.95846  0.37628  1.0000 -0.5256704102
O   O3        1.0  0.95846  0.37628  0.45463  1.0000 -0.5256704102
O   O4        1.0  0.54537  0.62372  0.04154  1.0000 -0.5200346804
O   O5        1.0  0.04154  0.54537  0.62372  1.0000 -0.5256704102
O   O6        1.0  0.62372  0.04154  0.54537  1.0000 -0.5200346804
O   O7        1.0  0.62372  0.54537  0.04154  1.0000 -0.5256704102
O   O8        1.0  0.54537  0.04154  0.62372  1.0000 -0.5200346804
O   O9        1.0  0.04154  0.62372  0.54537  1.0000 -0.5200346804
O   O10       1.0  0.45463  0.37628  0.95846  1.0000 -0.5256704102
O   O11       1.0  0.95846  0.45463  0.37628  1.0000 -0.5256704102
O   O12       1.0  0.37628  0.95846  0.45463  1.0000 -0.5256704102
O   O13       1.0  0.45807  0.53670  0.08110  1.0000 -0.5144343727
O   O14       1.0  0.53670  0.08110  0.45807  1.0000 -0.5144343727
O   O15       1.0  0.08110  0.45807  0.53670  1.0000 -0.5200346804
O   O16       1.0  0.46330  0.54193  0.91890  1.0000 -0.5144343727
O   O17       1.0  0.91890  0.46330  0.54193  1.0000 -0.5200346804
O   O18       1.0  0.54193  0.91890  0.46330  1.0000 -0.5144343727
O   O19       1.0  0.54193  0.46330  0.91890  1.0000 -0.5144343727
O   O20       1.0  0.46330  0.91890  0.54193  1.0000 -0.5200346804
O   O21       1.0  0.91890  0.54193  0.46330  1.0000 -0.5200346804
O   O22       1.0  0.53670  0.45807  0.08110  1.0000 -0.5144343727
O   O23       1.0  0.08110  0.53670  0.45807  1.0000 -0.5144343727
O   O24       1.0  0.45807  0.08110  0.53670  1.0000 -0.5200346804
O   O25       1.0  0.19099  0.48794  0.19099  1.0000 -0.1674798525
O   O26       1.0  0.48794  0.19099  0.19099  1.0000 -0.1674798525
O   O27       1.0  0.19099  0.19099  0.48794  1.0000 -0.1674798525
O   O28       1.0  0.51206  0.80901  0.80901  1.0000 -0.1674798525
O   O29       1.0  0.80901  0.51206  0.80901  1.0000 -0.1674798525
O   O30       1.0  0.80901  0.80901  0.51206  1.0000 -0.1674798525
