# DDEC6 charges by PACMAN v1.1 (https://github.com/mtap-research/PACMAN-charge/)
data_2016[Ce][nan]3[ASR]1
_chemical_formula_sum              "Ce4 H28 C60 O24"
_cell_length_a       14.1002
_cell_length_b       14.1002
_cell_length_c       14.752
_cell_angle_alpha    83.7821
_cell_angle_beta     96.2179
_cell_angle_gamma    121.385

_symmetry_space_group_name_H-M    "P 1"
_symmetry_Int_Tables_number       1

loop_
  _symmetry_equiv_pos_as_xyz
  'x, y, z'

loop_
  _atom_site_type_symbol
  _atom_site_label
  _atom_site_symmetry_multiplicity
  _atom_site_fract_x
  _atom_site_fract_y
  _atom_site_fract_z
  _atom_site_occupancy
  _atom_site_charge
Ce  Ce1       1.0  0.61963  0.95775  0.52948  1.0000 1.9638872748
Ce  Ce2       1.0  0.95775  0.61963  0.97052  1.0000 1.9638872748
Ce  Ce3       1.0  0.38037  0.04225  0.47052  1.0000 1.9638872748
Ce  Ce4       1.0  0.04225  0.38037  0.02948  1.0000 1.9638872748
H   H1        1.0  0.36970  0.66330  0.57350  1.0000 0.1216950223
H   H2        1.0  0.66330  0.36970  0.92650  1.0000 0.1216950223
H   H3        1.0  0.63030  0.33670  0.42650  1.0000 0.1216950223
H   H4        1.0  0.33670  0.63030  0.07350  1.0000 0.1216950223
H   H5        1.0  0.18980  0.73740  0.71310  1.0000 0.1311400836
H   H6        1.0  0.73740  0.18980  0.78690  1.0000 0.1311400836
H   H7        1.0  0.81020  0.26260  0.28690  1.0000 0.1311400836
H   H8        1.0  0.26260  0.81020  0.21310  1.0000 0.1311400836
H   H9        1.0  0.18180  0.44960  0.77100  1.0000 0.1123901772
H   H10       1.0  0.44960  0.18180  0.72900  1.0000 0.1123901772
H   H11       1.0  0.81820  0.55040  0.22900  1.0000 0.1123901772
H   H12       1.0  0.55040  0.81820  0.27100  1.0000 0.1123901772
H   H13       1.0  0.45800  0.55840  0.60650  1.0000 0.1216950223
H   H14       1.0  0.55840  0.45800  0.89350  1.0000 0.1216950223
H   H15       1.0  0.54200  0.44160  0.39350  1.0000 0.1216950223
H   H16       1.0  0.44160  0.54200  0.10650  1.0000 0.1216950223
H   H17       1.0  0.15060  0.32180  0.66800  1.0000 0.1123901772
H   H18       1.0  0.32180  0.15060  0.83200  1.0000 0.1123901772
H   H19       1.0  0.84940  0.67820  0.33200  1.0000 0.1123901772
H   H20       1.0  0.67820  0.84940  0.16800  1.0000 0.1123901772
H   H21       1.0  0.48620  0.42480  0.55880  1.0000 0.1123901772
H   H22       1.0  0.42480  0.48620  0.94120  1.0000 0.1123901772
H   H23       1.0  0.51380  0.57520  0.44120  1.0000 0.1123901772
H   H24       1.0  0.57520  0.51380  0.05880  1.0000 0.1123901772
H   H25       1.0  0.17980  0.18900  0.62150  1.0000 0.1216950223
H   H26       1.0  0.18900  0.17980  0.87850  1.0000 0.1216950223
H   H27       1.0  0.82020  0.81100  0.37850  1.0000 0.1216950223
H   H28       1.0  0.81100  0.82020  0.12150  1.0000 0.1216950223
C   C1        1.0  0.32574  0.82506  0.57835  1.0000 0.6060742145
C   C2        1.0  0.82506  0.32574  0.92165  1.0000 0.6045507794
C   C3        1.0  0.67426  0.17494  0.42165  1.0000 0.6045507794
C   C4        1.0  0.17494  0.67426  0.07835  1.0000 0.6045507794
C   C5        1.0  0.28690  0.71710  0.63470  1.0000 -0.0180058439
C   C6        1.0  0.71710  0.28690  0.86530  1.0000 -0.0180058439
C   C7        1.0  0.71310  0.28290  0.36530  1.0000 -0.0180058439
C   C8        1.0  0.28290  0.71310  0.13470  1.0000 -0.0180058439
C   C9        1.0  0.31929  0.64371  0.61780  1.0000 -0.1571941519
C   C10       1.0  0.64371  0.31929  0.88220  1.0000 -0.1503580003
C   C11       1.0  0.68071  0.35629  0.38220  1.0000 -0.1503580003
C   C12       1.0  0.35629  0.68071  0.11780  1.0000 -0.1503580003
C   C13       1.0  0.21382  0.68938  0.70310  1.0000 -0.1003490992
C   C14       1.0  0.68938  0.21382  0.79690  1.0000 -0.1003490992
C   C15       1.0  0.78618  0.31062  0.29690  1.0000 -0.1003490992
C   C16       1.0  0.31062  0.78618  0.20310  1.0000 -0.1003490992
C   C17       1.0  0.27709  0.54071  0.66640  1.0000 0.0582855107
C   C18       1.0  0.54071  0.27709  0.83360  1.0000 0.0582855107
C   C19       1.0  0.72291  0.45929  0.33360  1.0000 0.0582855107
C   C20       1.0  0.45929  0.72291  0.16640  1.0000 0.0582855107
C   C21       1.0  0.17711  0.59089  0.75570  1.0000 -0.0180058439
C   C22       1.0  0.59089  0.17711  0.74430  1.0000 -0.0180058439
C   C23       1.0  0.82289  0.40911  0.24430  1.0000 -0.0180058439
C   C24       1.0  0.40911  0.82289  0.25570  1.0000 -0.0180058439
C   C25       1.0  0.30031  0.45469  0.64130  1.0000 0.0711497633
C   C26       1.0  0.45469  0.30031  0.85870  1.0000 0.0711497633
C   C27       1.0  0.69969  0.54531  0.35870  1.0000 0.0711497633
C   C28       1.0  0.54531  0.69969  0.14130  1.0000 0.0711497633
C   C29       1.0  0.20804  0.51676  0.73640  1.0000 -0.1503580003
C   C30       1.0  0.51676  0.20804  0.76360  1.0000 -0.1503580003
C   C31       1.0  0.79196  0.48324  0.26360  1.0000 -0.1503580003
C   C32       1.0  0.48324  0.79196  0.23640  1.0000 -0.1503580003
C   C33       1.0  0.10232  0.56008  0.83350  1.0000 0.6194598382
C   C34       1.0  0.56008  0.10232  0.66650  1.0000 0.6194598382
C   C35       1.0  0.89768  0.43992  0.16650  1.0000 0.6194598382
C   C36       1.0  0.43992  0.89768  0.33350  1.0000 0.6194598382
C   C37       1.0  0.40096  0.48424  0.60890  1.0000 -0.1571941519
C   C38       1.0  0.48424  0.40096  0.89110  1.0000 -0.1571941519
C   C39       1.0  0.59904  0.51576  0.39110  1.0000 -0.1571941519
C   C40       1.0  0.51576  0.59904  0.10890  1.0000 -0.1503580003
C   C41       1.0  0.21855  0.34345  0.64550  1.0000 -0.1571941519
C   C42       1.0  0.34345  0.21855  0.85450  1.0000 -0.1571941519
C   C43       1.0  0.78145  0.65655  0.35450  1.0000 -0.1571941519
C   C44       1.0  0.65655  0.78145  0.14550  1.0000 -0.1571941519
C   C45       1.0  0.41770  0.40370  0.57980  1.0000 -0.1003490992
C   C46       1.0  0.40370  0.41770  0.92020  1.0000 -0.1003490992
C   C47       1.0  0.58230  0.59630  0.42020  1.0000 -0.1003490992
C   C48       1.0  0.59630  0.58230  0.07980  1.0000 -0.1003490992
C   C49       1.0  0.23568  0.26352  0.61690  1.0000 -0.1003490992
C   C50       1.0  0.26352  0.23568  0.88310  1.0000 -0.1003490992
C   C51       1.0  0.76432  0.73648  0.38310  1.0000 -0.1003490992
C   C52       1.0  0.73648  0.76432  0.11690  1.0000 -0.1003490992
C   C53       1.0  0.33482  0.29358  0.58170  1.0000 -0.0307805291
C   C54       1.0  0.29358  0.33482  0.91830  1.0000 -0.0307805291
C   C55       1.0  0.66518  0.70642  0.41830  1.0000 -0.0307805291
C   C56       1.0  0.70642  0.66518  0.08170  1.0000 -0.0307805291
C   C57       1.0  0.35148  0.20992  0.54220  1.0000 0.5556157237
C   C58       1.0  0.20992  0.35148  0.95780  1.0000 0.5556157237
C   C59       1.0  0.64852  0.79008  0.45780  1.0000 0.5548976069
C   C60       1.0  0.79008  0.64852  0.04220  1.0000 0.5548976069
O   O1        1.0  0.72462  0.89124  0.45230  1.0000 -0.5979396845
O   O2        1.0  0.89124  0.72462  0.04770  1.0000 -0.5979396845
O   O3        1.0  0.27538  0.10876  0.54770  1.0000 -0.5979396845
O   O4        1.0  0.10876  0.27538  0.95230  1.0000 -0.5979396845
O   O5        1.0  0.56243  0.75879  0.49724  1.0000 -0.5944567913
O   O6        1.0  0.75879  0.56243  0.00276  1.0000 -0.5944567913
O   O7        1.0  0.43757  0.24121  0.50276  1.0000 -0.5944567913
O   O8        1.0  0.24121  0.43757  0.99724  1.0000 -0.5944567913
O   O9        1.0  0.58074  0.12906  0.45673  1.0000 -0.7042595143
O   O10       1.0  0.12906  0.58074  0.04327  1.0000 -0.7042595143
O   O11       1.0  0.41926  0.87094  0.54327  1.0000 -0.7042595143
O   O12       1.0  0.87094  0.41926  0.95673  1.0000 -0.7042595143
O   O13       1.0  0.73493  0.13449  0.43270  1.0000 -0.5670821661
O   O14       1.0  0.13449  0.73493  0.06730  1.0000 -0.5670821661
O   O15       1.0  0.26507  0.86551  0.56730  1.0000 -0.5670821661
O   O16       1.0  0.86551  0.26507  0.93270  1.0000 -0.5670821661
O   O17       1.0  0.62858  0.07516  0.65046  1.0000 -0.6464767451
O   O18       1.0  0.07516  0.62858  0.84954  1.0000 -0.6464767451
O   O19       1.0  0.37142  0.92484  0.34954  1.0000 -0.6464767451
O   O20       1.0  0.92484  0.37142  0.15046  1.0000 -0.6464767451
O   O21       1.0  0.53070  0.92710  0.37587  1.0000 -0.6132076526
O   O22       1.0  0.92710  0.53070  0.12413  1.0000 -0.6132076526
O   O23       1.0  0.46930  0.07290  0.62413  1.0000 -0.6132076526
O   O24       1.0  0.07290  0.46930  0.87587  1.0000 -0.6132076526
