# DDEC6 charges by PACMAN v1.1 (https://github.com/mtap-research/PACMAN-charge/)
data_2016[Co][nan]3[ASR]10
_chemical_formula_sum              "Co6 H16 C28 N12 O12"
_cell_length_a       11.0107
_cell_length_b       11.0222
_cell_length_c       11.0437
_cell_angle_alpha    85.871
_cell_angle_beta     77.346
_cell_angle_gamma    83.364

_symmetry_space_group_name_H-M    "P 1"
_symmetry_Int_Tables_number       1

loop_
  _symmetry_equiv_pos_as_xyz
  'x, y, z'

loop_
  _atom_site_type_symbol
  _atom_site_label
  _atom_site_symmetry_multiplicity
  _atom_site_fract_x
  _atom_site_fract_y
  _atom_site_fract_z
  _atom_site_occupancy
  _atom_site_charge
Co  Co1       1.0  0.90366  0.25111  0.08690  1.0000 0.9400103707
Co  Co2       1.0  0.09634  0.74889  0.91310  1.0000 0.9400103707
Co  Co3       1.0  0.85856  0.00277  0.97180  1.0000 0.8571093101
Co  Co4       1.0  0.14144  0.99723  0.02820  1.0000 0.8571093101
Co  Co5       1.0  0.99996  0.48949  0.85370  1.0000 0.781061383
Co  Co6       1.0  0.00004  0.51051  0.14630  1.0000 0.781061383
H   H1        1.0  0.87210  0.10940  0.43780  1.0000 0.1178990099
H   H2        1.0  0.12790  0.89060  0.56220  1.0000 0.1178990099
H   H3        1.0  0.86810  0.01770  0.63480  1.0000 0.1405268032
H   H4        1.0  0.13190  0.98230  0.36520  1.0000 0.1405268032
H   H5        1.0  0.92470  0.43160  0.56310  1.0000 0.1405268032
H   H6        1.0  0.07530  0.56840  0.43690  1.0000 0.1405268032
H   H7        1.0  0.33360  0.49380  0.12120  1.0000 0.1405268032
H   H8        1.0  0.66640  0.50620  0.87880  1.0000 0.1405268032
H   H9        1.0  0.53480  0.40130  0.11950  1.0000 0.131071393
H   H10       1.0  0.46520  0.59870  0.88050  1.0000 0.131071393
H   H11       1.0  0.44310  0.07550  0.05380  1.0000 0.1405268032
H   H12       1.0  0.55690  0.92450  0.94620  1.0000 0.1405268032
H   H13       1.0  0.91900  0.04300  0.18100  1.0000 0.3957095165
H   H14       1.0  0.08100  0.95700  0.81900  1.0000 0.3957095165
H   H15       1.0  0.88300  0.44800  0.96800  1.0000 0.325108977
H   H16       1.0  0.11700  0.55200  0.03200  1.0000 0.325108977
C   C1        1.0  0.91020  0.29420  0.69570  1.0000 0.131071393
C   C2        1.0  0.08980  0.70580  0.30430  1.0000 0.131071393
C   C3        1.0  0.89240  0.16840  0.71930  1.0000 0.1405268032
C   C4        1.0  0.10760  0.83160  0.28070  1.0000 0.1405268032
C   C5        1.0  0.88060  0.15540  0.50200  1.0000 -0.089232808
C   C6        1.0  0.11940  0.84460  0.49800  1.0000 -0.089232808
C   C7        1.0  0.87860  0.10040  0.62080  1.0000 -0.1829662007
C   C8        1.0  0.12140  0.89960  0.37920  1.0000 -0.1829662007
C   C9        1.0  0.89560  0.28160  0.48100  1.0000 -0.0837995205
C   C10       1.0  0.10440  0.71840  0.51900  1.0000 -0.0837995205
C   C11       1.0  0.91220  0.34930  0.57770  1.0000 -0.139948478
C   C12       1.0  0.08780  0.65070  0.42230  1.0000 -0.139948478
C   C13       1.0  0.89900  0.33210  0.35700  1.0000 0.5774911958
C   C14       1.0  0.10100  0.66790  0.64300  1.0000 0.5774911958
C   C15       1.0  0.29570  0.20900  0.07900  1.0000 0.131071393
C   C16       1.0  0.70430  0.79100  0.92100  1.0000 0.131071393
C   C17       1.0  0.26430  0.33140  0.10300  1.0000 0.1133987065
C   C18       1.0  0.73570  0.66860  0.89700  1.0000 0.1133987065
C   C19       1.0  0.35390  0.41020  0.11300  1.0000 -0.1642521154
C   C20       1.0  0.64610  0.58980  0.88700  1.0000 -0.1642521154
C   C21       1.0  0.47320  0.35490  0.10800  1.0000 -0.1094842833
C   C22       1.0  0.52680  0.64510  0.89200  1.0000 -0.1094842833
C   C23       1.0  0.50350  0.23440  0.08600  1.0000 -0.0153697794
C   C24       1.0  0.49650  0.76560  0.91400  1.0000 -0.0153697794
C   C25       1.0  0.41920  0.15740  0.07000  1.0000 -0.1548983734
C   C26       1.0  0.58080  0.84260  0.93000  1.0000 -0.1548983734
C   C27       1.0  0.64160  0.18310  0.07400  1.0000 0.5931811649
C   C28       1.0  0.35840  0.81690  0.92600  1.0000 0.5931811649
N   N1        1.0  0.89510  0.14280  0.84250  1.0000 -0.2495729011
N   N2        1.0  0.10490  0.85720  0.15750  1.0000 -0.2495729011
N   N3        1.0  0.91520  0.24440  0.89000  1.0000 -0.0423191507
N   N4        1.0  0.08480  0.75560  0.11000  1.0000 -0.0423191507
N   N5        1.0  0.92520  0.33540  0.80470  1.0000 -0.2439997699
N   N6        1.0  0.07480  0.66460  0.19530  1.0000 -0.2439997699
N   N7        1.0  0.18620  0.16150  0.07430  1.0000 -0.258198021
N   N8        1.0  0.81380  0.83850  0.92570  1.0000 -0.258198021
N   N9        1.0  0.09480  0.25420  0.09520  1.0000 -0.0301369969
N   N10       1.0  0.90520  0.74580  0.90480  1.0000 -0.0301369969
N   N11       1.0  0.13630  0.35670  0.11570  1.0000 -0.2053140383
N   N12       1.0  0.86370  0.64330  0.88430  1.0000 -0.2053140383
O   O1        1.0  0.94120  0.06590  0.09250  1.0000 -0.844327895
O   O2        1.0  0.05880  0.93410  0.90750  1.0000 -0.844327895
O   O3        1.0  0.90350  0.43180  0.04800  1.0000 -0.8057366293
O   O4        1.0  0.09650  0.56820  0.95200  1.0000 -0.803871898
O   O5        1.0  0.93690  0.43780  0.33000  1.0000 -0.5411085766
O   O6        1.0  0.06310  0.56220  0.67000  1.0000 -0.5411085766
O   O7        1.0  0.86410  0.26920  0.27900  1.0000 -0.55972193
O   O8        1.0  0.13590  0.73080  0.72100  1.0000 -0.55972193
O   O9        1.0  0.67430  0.07560  0.03860  1.0000 -0.55972193
O   O10       1.0  0.32570  0.92440  0.96140  1.0000 -0.55972193
O   O11       1.0  0.71110  0.25190  0.10310  1.0000 -0.5176407974
O   O12       1.0  0.28890  0.74810  0.89690  1.0000 -0.5176407974
