# DDEC6 charges by PACMAN v1.1 (https://github.com/mtap-research/PACMAN-charge/)
data_2016[Cd][ant]3[ASR]1
_chemical_formula_sum              "Cd6 H20 C48 N6 O24"
_cell_length_a       13.7066
_cell_length_b       13.7066
_cell_length_c       13.5149
_cell_angle_alpha    86.9676
_cell_angle_beta     93.0324
_cell_angle_gamma    105.286

_symmetry_space_group_name_H-M    "P 1"
_symmetry_Int_Tables_number       1

loop_
  _symmetry_equiv_pos_as_xyz
  'x, y, z'

loop_
  _atom_site_type_symbol
  _atom_site_label
  _atom_site_symmetry_multiplicity
  _atom_site_fract_x
  _atom_site_fract_y
  _atom_site_fract_z
  _atom_site_occupancy
  _atom_site_charge
Cd  Cd1       1.0  0.36729  0.36729  0.75000  1.0000 0.9313440818
Cd  Cd2       1.0  0.63271  0.63271  0.25000  1.0000 0.9313440818
Cd  Cd3       1.0  0.10713  0.39377  0.73303  1.0000 0.9313440818
Cd  Cd4       1.0  0.39377  0.10713  0.76697  1.0000 0.9313440818
Cd  Cd5       1.0  0.89287  0.60623  0.26697  1.0000 0.9313440818
Cd  Cd6       1.0  0.60623  0.89287  0.23303  1.0000 0.935591938
H   H1        1.0  0.44350  0.59490  0.47020  1.0000 0.1389299445
H   H2        1.0  0.59490  0.44350  0.02980  1.0000 0.1389299445
H   H3        1.0  0.55650  0.40510  0.52980  1.0000 0.1389299445
H   H4        1.0  0.40510  0.55650  0.97020  1.0000 0.1389299445
H   H5        1.0  0.26490  0.71230  0.28210  1.0000 0.1332925279
H   H6        1.0  0.71230  0.26490  0.21790  1.0000 0.1332925279
H   H7        1.0  0.73510  0.28770  0.71790  1.0000 0.1332925279
H   H8        1.0  0.28770  0.73510  0.78210  1.0000 0.1332925279
H   H9        1.0  0.14090  0.50670  0.49180  1.0000 0.1389299445
H   H10       1.0  0.50670  0.14090  0.00820  1.0000 0.1389299445
H   H11       1.0  0.85910  0.49330  0.50820  1.0000 0.1389299445
H   H12       1.0  0.49330  0.85910  0.99180  1.0000 0.1389299445
H   H13       1.0  0.92730  0.14450  0.74860  1.0000 0.1541977841
H   H14       1.0  0.14450  0.92730  0.75140  1.0000 0.1550727505
H   H15       1.0  0.07270  0.85550  0.25140  1.0000 0.1550727505
H   H16       1.0  0.85550  0.07270  0.24860  1.0000 0.1541977841
H   H17       1.0  0.86420  0.97140  0.75060  1.0000 0.1170166824
H   H18       1.0  0.97140  0.86420  0.74940  1.0000 0.1170166824
H   H19       1.0  0.13580  0.02860  0.24940  1.0000 0.1170166824
H   H20       1.0  0.02860  0.13580  0.25060  1.0000 0.1170166824
C   C1        1.0  0.30433  0.47347  0.58530  1.0000 0.5738597829
C   C2        1.0  0.47347  0.30433  0.91470  1.0000 0.5738597829
C   C3        1.0  0.69567  0.52653  0.41470  1.0000 0.5738597829
C   C4        1.0  0.52653  0.69567  0.08530  1.0000 0.5738597829
C   C5        1.0  0.45940  0.73140  0.32010  1.0000 0.5633061547
C   C6        1.0  0.73140  0.45940  0.17990  1.0000 0.5633061547
C   C7        1.0  0.54060  0.26860  0.67990  1.0000 0.5633061547
C   C8        1.0  0.26860  0.54060  0.82010  1.0000 0.5633061547
C   C9        1.0  0.08270  0.61810  0.34510  1.0000 0.5393731464
C   C10       1.0  0.61810  0.08270  0.15490  1.0000 0.5393731464
C   C11       1.0  0.91730  0.38190  0.65490  1.0000 0.5393731464
C   C12       1.0  0.38190  0.91730  0.84510  1.0000 0.5393731464
C   C13       1.0  0.29319  0.54181  0.49530  1.0000 -0.0098004863
C   C14       1.0  0.54181  0.29319  0.00470  1.0000 -0.0098004863
C   C15       1.0  0.70681  0.45819  0.50470  1.0000 -0.0098004863
C   C16       1.0  0.45819  0.70681  0.99530  1.0000 -0.0098004863
C   C17       1.0  0.37935  0.59945  0.44800  1.0000 -0.0954906772
C   C18       1.0  0.59945  0.37935  0.05200  1.0000 -0.0954906772
C   C19       1.0  0.62065  0.40055  0.55200  1.0000 -0.0954906772
C   C20       1.0  0.40055  0.62065  0.94800  1.0000 -0.0954906772
C   C21       1.0  0.36792  0.66348  0.36740  1.0000 -0.018883707
C   C22       1.0  0.66348  0.36792  0.13260  1.0000 -0.018883707
C   C23       1.0  0.63208  0.33652  0.63260  1.0000 -0.018883707
C   C24       1.0  0.33652  0.63208  0.86740  1.0000 -0.018883707
C   C25       1.0  0.27210  0.66870  0.33540  1.0000 -0.0914924312
C   C26       1.0  0.66870  0.27210  0.16460  1.0000 -0.0914924312
C   C27       1.0  0.72790  0.33130  0.66460  1.0000 -0.0914924312
C   C28       1.0  0.33130  0.72790  0.83540  1.0000 -0.0914924312
C   C29       1.0  0.18632  0.61068  0.38050  1.0000 -0.0098004863
C   C30       1.0  0.61068  0.18632  0.11950  1.0000 -0.0098004863
C   C31       1.0  0.81368  0.38932  0.61950  1.0000 -0.0098004863
C   C32       1.0  0.38932  0.81368  0.88050  1.0000 -0.0098004863
C   C33       1.0  0.19780  0.54660  0.46100  1.0000 -0.0914924312
C   C34       1.0  0.54660  0.19780  0.03900  1.0000 -0.0914924312
C   C35       1.0  0.80220  0.45340  0.53900  1.0000 -0.0914924312
C   C36       1.0  0.45340  0.80220  0.96100  1.0000 -0.0914924312
C   C37       1.0  0.07680  0.13960  0.74910  1.0000 0.0989368856
C   C38       1.0  0.13960  0.07680  0.75090  1.0000 0.0989368856
C   C39       1.0  0.92320  0.86040  0.25090  1.0000 0.0989368856
C   C40       1.0  0.86040  0.92320  0.24910  1.0000 0.0989368856
C   C41       1.0  0.97000  0.10180  0.74910  1.0000 -0.1331357341
C   C42       1.0  0.10180  0.97000  0.75090  1.0000 -0.1358066779
C   C43       1.0  0.03000  0.89820  0.25090  1.0000 -0.1358066779
C   C44       1.0  0.89820  0.03000  0.24910  1.0000 -0.1331357341
C   C45       1.0  0.93380  0.99960  0.75000  1.0000 -0.0805292837
C   C46       1.0  0.99960  0.93380  0.75000  1.0000 -0.0805292837
C   C47       1.0  0.06620  0.00040  0.25000  1.0000 -0.0805292837
C   C48       1.0  0.00040  0.06620  0.25000  1.0000 -0.0805292837
N   N1        1.0  0.22960  0.22960  0.75000  1.0000 -0.0329957139
N   N2        1.0  0.77040  0.77040  0.25000  1.0000 -0.0329957139
N   N3        1.0  0.13522  0.23618  0.74890  1.0000 -0.2081761342
N   N4        1.0  0.23618  0.13522  0.75110  1.0000 -0.2081761342
N   N5        1.0  0.86478  0.76382  0.25110  1.0000 -0.2081761342
N   N6        1.0  0.76382  0.86478  0.24890  1.0000 -0.2081761342
O   O1        1.0  0.22715  0.40705  0.61060  1.0000 -0.5537366848
O   O2        1.0  0.40705  0.22715  0.88940  1.0000 -0.5537366848
O   O3        1.0  0.77285  0.59295  0.38940  1.0000 -0.5537366848
O   O4        1.0  0.59295  0.77285  0.11060  1.0000 -0.5537366848
O   O5        1.0  0.38923  0.48657  0.62730  1.0000 -0.4886218812
O   O6        1.0  0.48657  0.38923  0.87270  1.0000 -0.4886218812
O   O7        1.0  0.61077  0.51343  0.37270  1.0000 -0.4886218812
O   O8        1.0  0.51343  0.61077  0.12730  1.0000 -0.4886218812
O   O9        1.0  0.54512  0.71728  0.34070  1.0000 -0.5622253697
O   O10       1.0  0.71728  0.54512  0.15930  1.0000 -0.5622253697
O   O11       1.0  0.45488  0.28272  0.65930  1.0000 -0.5622253697
O   O12       1.0  0.28272  0.45488  0.84070  1.0000 -0.5622253697
O   O13       1.0  0.44640  0.80280  0.26410  1.0000 -0.4886218812
O   O14       1.0  0.80280  0.44640  0.23590  1.0000 -0.4886218812
O   O15       1.0  0.55360  0.19720  0.73590  1.0000 -0.4886218812
O   O16       1.0  0.19720  0.55360  0.76410  1.0000 -0.4886218812
O   O17       1.0  0.07732  0.68908  0.28460  1.0000 -0.5384161304
O   O18       1.0  0.68908  0.07732  0.21540  1.0000 -0.5384161304
O   O19       1.0  0.92268  0.31092  0.71540  1.0000 -0.5384161304
O   O20       1.0  0.31092  0.92268  0.78460  1.0000 -0.5384161304
O   O21       1.0  0.00796  0.55524  0.37420  1.0000 -0.4681017753
O   O22       1.0  0.55524  0.00796  0.12580  1.0000 -0.4681017753
O   O23       1.0  0.99204  0.44476  0.62580  1.0000 -0.4681017753
O   O24       1.0  0.44476  0.99204  0.87420  1.0000 -0.4681017753
