# DDEC6 charges by PACMAN v1.1 (https://github.com/mtap-research/PACMAN-charge/)
data_2016[Cu][nbo]3[ASR]9
_chemical_formula_sum              "Cu6 H78 C126 O30"
_cell_length_a       21.5961
_cell_length_b       21.5961
_cell_length_c       21.5961
_cell_angle_alpha    108.36
_cell_angle_beta     108.36
_cell_angle_gamma    108.36

_symmetry_space_group_name_H-M    "P 1"
_symmetry_Int_Tables_number       1

loop_
  _symmetry_equiv_pos_as_xyz
  'x, y, z'

loop_
  _atom_site_type_symbol
  _atom_site_label
  _atom_site_symmetry_multiplicity
  _atom_site_fract_x
  _atom_site_fract_y
  _atom_site_fract_z
  _atom_site_occupancy
  _atom_site_charge
Cu  Cu1       1.0  0.54539  0.54539  0.07027  1.0000 0.8591150606
Cu  Cu2       1.0  0.54539  0.07027  0.54539  1.0000 0.8591150606
Cu  Cu3       1.0  0.07027  0.54539  0.54539  1.0000 0.8591150606
Cu  Cu4       1.0  0.45461  0.45460  0.92973  1.0000 0.8591150606
Cu  Cu5       1.0  0.92973  0.45460  0.45460  1.0000 0.8591150606
Cu  Cu6       1.0  0.45461  0.92973  0.45460  1.0000 0.8591150606
H   H1        1.0  0.43430  0.61380  0.85400  1.0000 0.1303473303
H   H2        1.0  0.61380  0.85400  0.43430  1.0000 0.1303473303
H   H3        1.0  0.85400  0.43430  0.61380  1.0000 0.1303473303
H   H4        1.0  0.38620  0.56570  0.14600  1.0000 0.1303473303
H   H5        1.0  0.14600  0.38620  0.56570  1.0000 0.1303473303
H   H6        1.0  0.56570  0.14600  0.38620  1.0000 0.1303473303
H   H7        1.0  0.56570  0.38620  0.14600  1.0000 0.1303473303
H   H8        1.0  0.38620  0.14600  0.56570  1.0000 0.1303473303
H   H9        1.0  0.14600  0.56570  0.38620  1.0000 0.1303473303
H   H10       1.0  0.61380  0.43430  0.85400  1.0000 0.1303473303
H   H11       1.0  0.85400  0.61380  0.43430  1.0000 0.1303473303
H   H12       1.0  0.43430  0.85400  0.61380  1.0000 0.1303473303
H   H13       1.0  0.43810  0.71310  0.83340  1.0000 0.1194883231
H   H14       1.0  0.71310  0.83340  0.43810  1.0000 0.1194883231
H   H15       1.0  0.83340  0.43810  0.71310  1.0000 0.1194883231
H   H16       1.0  0.28690  0.56190  0.16660  1.0000 0.1194883231
H   H17       1.0  0.16660  0.28690  0.56190  1.0000 0.1194883231
H   H18       1.0  0.56190  0.16660  0.28690  1.0000 0.1194883231
H   H19       1.0  0.56190  0.28690  0.16660  1.0000 0.1194883231
H   H20       1.0  0.28690  0.16660  0.56190  1.0000 0.1194883231
H   H21       1.0  0.16660  0.56190  0.28690  1.0000 0.1194883231
H   H22       1.0  0.71310  0.43810  0.83340  1.0000 0.1194883231
H   H23       1.0  0.83340  0.71310  0.43810  1.0000 0.1194883231
H   H24       1.0  0.43810  0.83340  0.71310  1.0000 0.1194883231
H   H25       1.0  0.58270  0.84890  0.04350  1.0000 0.1194883231
H   H26       1.0  0.84890  0.04350  0.58270  1.0000 0.1194883231
H   H27       1.0  0.04350  0.58270  0.84890  1.0000 0.1194883231
H   H28       1.0  0.15110  0.41730  0.95650  1.0000 0.1194883231
H   H29       1.0  0.95650  0.15110  0.41730  1.0000 0.1194883231
H   H30       1.0  0.41730  0.95650  0.15110  1.0000 0.1194883231
H   H31       1.0  0.41730  0.15110  0.95650  1.0000 0.1194883231
H   H32       1.0  0.15110  0.95650  0.41730  1.0000 0.1194883231
H   H33       1.0  0.95650  0.41730  0.15110  1.0000 0.1194883231
H   H34       1.0  0.84890  0.58270  0.04350  1.0000 0.1194883231
H   H35       1.0  0.04350  0.84890  0.58270  1.0000 0.1194883231
H   H36       1.0  0.58270  0.04350  0.84890  1.0000 0.1194883231
H   H37       1.0  0.57950  0.74900  0.06320  1.0000 0.1303473303
H   H38       1.0  0.74900  0.06320  0.57950  1.0000 0.1303473303
H   H39       1.0  0.06320  0.57950  0.74900  1.0000 0.1303473303
H   H40       1.0  0.25100  0.42050  0.93680  1.0000 0.1303473303
H   H41       1.0  0.93680  0.25100  0.42050  1.0000 0.1303473303
H   H42       1.0  0.42050  0.93680  0.25100  1.0000 0.1303473303
H   H43       1.0  0.42050  0.25100  0.93680  1.0000 0.1303473303
H   H44       1.0  0.25100  0.93680  0.42050  1.0000 0.1303473303
H   H45       1.0  0.93680  0.42050  0.25100  1.0000 0.1303473303
H   H46       1.0  0.74900  0.57950  0.06320  1.0000 0.1303473303
H   H47       1.0  0.06320  0.74900  0.57950  1.0000 0.1303473303
H   H48       1.0  0.57950  0.06320  0.74900  1.0000 0.1303473303
H   H49       1.0  0.50350  0.90410  0.01830  1.0000 0.1111801
H   H50       1.0  0.90410  0.01830  0.50350  1.0000 0.1111801
H   H51       1.0  0.01830  0.50350  0.90410  1.0000 0.1111801
H   H52       1.0  0.09590  0.49650  0.98170  1.0000 0.1111801
H   H53       1.0  0.98170  0.09590  0.49650  1.0000 0.1111801
H   H54       1.0  0.49650  0.98170  0.09590  1.0000 0.1111801
H   H55       1.0  0.49650  0.09590  0.98170  1.0000 0.1111801
H   H56       1.0  0.09590  0.98170  0.49650  1.0000 0.1111801
H   H57       1.0  0.98170  0.49650  0.09590  1.0000 0.1111801
H   H58       1.0  0.90410  0.50350  0.01830  1.0000 0.1111801
H   H59       1.0  0.01830  0.90410  0.50350  1.0000 0.1111801
H   H60       1.0  0.50350  0.01830  0.90410  1.0000 0.1111801
H   H61       1.0  0.58520  0.78700  0.78700  1.0000 0.1194883231
H   H62       1.0  0.78700  0.78700  0.58520  1.0000 0.1111801
H   H63       1.0  0.78700  0.58520  0.78700  1.0000 0.1111801
H   H64       1.0  0.21300  0.41480  0.21300  1.0000 0.1194883231
H   H65       1.0  0.21300  0.21300  0.41480  1.0000 0.1194883231
H   H66       1.0  0.41480  0.21300  0.21300  1.0000 0.1194883231
H   H67       1.0  0.61060  0.87150  0.82680  1.0000 0.1021295358
H   H68       1.0  0.87150  0.82680  0.61060  1.0000 0.1021295358
H   H69       1.0  0.82680  0.61060  0.87150  1.0000 0.1021295358
H   H70       1.0  0.12850  0.38940  0.17320  1.0000 0.1021295358
H   H71       1.0  0.17320  0.12850  0.38940  1.0000 0.1111801
H   H72       1.0  0.38940  0.17320  0.12850  1.0000 0.1021295358
H   H73       1.0  0.38940  0.12850  0.17320  1.0000 0.1021295358
H   H74       1.0  0.12850  0.17320  0.38940  1.0000 0.1111801
H   H75       1.0  0.17320  0.38940  0.12850  1.0000 0.1021295358
H   H76       1.0  0.87150  0.61060  0.82680  1.0000 0.1021295358
H   H77       1.0  0.82680  0.87150  0.61060  1.0000 0.1021295358
H   H78       1.0  0.61060  0.82680  0.87150  1.0000 0.1021295358
C   C1        1.0  0.50469  0.60649  0.97428  1.0000 0.5790952607
C   C2        1.0  0.60649  0.97428  0.50469  1.0000 0.5790952607
C   C3        1.0  0.97428  0.50469  0.60649  1.0000 0.5790952607
C   C4        1.0  0.39351  0.49531  0.02572  1.0000 0.5790952607
C   C5        1.0  0.02572  0.39351  0.49531  1.0000 0.5790952607
C   C6        1.0  0.49531  0.02572  0.39351  1.0000 0.5790952607
C   C7        1.0  0.49531  0.39351  0.02572  1.0000 0.5790952607
C   C8        1.0  0.39351  0.02572  0.49531  1.0000 0.5790952607
C   C9        1.0  0.02572  0.49531  0.39351  1.0000 0.5790952607
C   C10       1.0  0.60649  0.50469  0.97428  1.0000 0.5790952607
C   C11       1.0  0.97428  0.60649  0.50469  1.0000 0.5790952607
C   C12       1.0  0.50469  0.97428  0.60649  1.0000 0.5790952607
C   C13       1.0  0.50761  0.67188  0.96123  1.0000 -0.0314135534
C   C14       1.0  0.67188  0.96123  0.50761  1.0000 -0.0314135534
C   C15       1.0  0.96123  0.50761  0.67188  1.0000 -0.0314135534
C   C16       1.0  0.32812  0.49239  0.03877  1.0000 -0.0314135534
C   C17       1.0  0.03877  0.32812  0.49239  1.0000 -0.0314135534
C   C18       1.0  0.49239  0.03877  0.32812  1.0000 -0.0314135534
C   C19       1.0  0.49239  0.32812  0.03877  1.0000 -0.0314135534
C   C20       1.0  0.32812  0.03877  0.49239  1.0000 -0.0314135534
C   C21       1.0  0.03877  0.49239  0.32812  1.0000 -0.0314135534
C   C22       1.0  0.67188  0.50761  0.96123  1.0000 -0.0314135534
C   C23       1.0  0.96123  0.67188  0.50761  1.0000 -0.0314135534
C   C24       1.0  0.50761  0.96123  0.67188  1.0000 -0.0314135534
C   C25       1.0  0.46459  0.66116  0.89233  1.0000 -0.0909791777
C   C26       1.0  0.66116  0.89233  0.46459  1.0000 -0.0909791777
C   C27       1.0  0.89233  0.46459  0.66116  1.0000 -0.0909791777
C   C28       1.0  0.33884  0.53541  0.10767  1.0000 -0.0909791777
C   C29       1.0  0.10767  0.33884  0.53541  1.0000 -0.0909791777
C   C30       1.0  0.53541  0.10767  0.33884  1.0000 -0.0909791777
C   C31       1.0  0.53541  0.33884  0.10767  1.0000 -0.0909791777
C   C32       1.0  0.33884  0.10767  0.53541  1.0000 -0.0909791777
C   C33       1.0  0.10767  0.53541  0.33884  1.0000 -0.0909791777
C   C34       1.0  0.66116  0.46459  0.89233  1.0000 -0.0909791777
C   C35       1.0  0.89233  0.66116  0.46459  1.0000 -0.0909791777
C   C36       1.0  0.46459  0.89233  0.66116  1.0000 -0.0909791777
C   C37       1.0  0.46655  0.72093  0.88031  1.0000 -0.1446267269
C   C38       1.0  0.72093  0.88031  0.46655  1.0000 -0.1446267269
C   C39       1.0  0.88031  0.46655  0.72093  1.0000 -0.1446267269
C   C40       1.0  0.27907  0.53345  0.11969  1.0000 -0.1446267269
C   C41       1.0  0.11969  0.27907  0.53345  1.0000 -0.1460152552
C   C42       1.0  0.53345  0.11969  0.27907  1.0000 -0.1446267269
C   C43       1.0  0.53345  0.27907  0.11969  1.0000 -0.1446267269
C   C44       1.0  0.27907  0.11969  0.53345  1.0000 -0.1460152552
C   C45       1.0  0.11969  0.53345  0.27907  1.0000 -0.1446267269
C   C46       1.0  0.72093  0.46655  0.88031  1.0000 -0.1460152552
C   C47       1.0  0.88031  0.72093  0.46655  1.0000 -0.1446267269
C   C48       1.0  0.46655  0.88031  0.72093  1.0000 -0.1446267269
C   C49       1.0  0.50912  0.79085  0.93555  1.0000 0.0833590672
C   C50       1.0  0.79085  0.93555  0.50912  1.0000 0.0833590672
C   C51       1.0  0.93555  0.50912  0.79085  1.0000 0.0833590672
C   C52       1.0  0.20915  0.49088  0.06445  1.0000 0.0833590672
C   C53       1.0  0.06445  0.20915  0.49088  1.0000 0.0833590672
C   C54       1.0  0.49088  0.06445  0.20915  1.0000 0.0833590672
C   C55       1.0  0.49088  0.20915  0.06445  1.0000 0.0833590672
C   C56       1.0  0.20915  0.06445  0.49088  1.0000 0.0833590672
C   C57       1.0  0.06445  0.49088  0.20915  1.0000 0.0833590672
C   C58       1.0  0.79085  0.50912  0.93555  1.0000 0.0833590672
C   C59       1.0  0.93555  0.79085  0.50912  1.0000 0.0833590672
C   C60       1.0  0.50912  0.93555  0.79085  1.0000 0.0833590672
C   C61       1.0  0.55258  0.80155  0.00499  1.0000 -0.1621670784
C   C62       1.0  0.80155  0.00499  0.55258  1.0000 -0.1621670784
C   C63       1.0  0.00499  0.55258  0.80155  1.0000 -0.1621670784
C   C64       1.0  0.19845  0.44742  0.99501  1.0000 -0.1621670784
C   C65       1.0  0.99501  0.19845  0.44742  1.0000 -0.1621670784
C   C66       1.0  0.44742  0.99501  0.19845  1.0000 -0.1621670784
C   C67       1.0  0.44742  0.19845  0.99501  1.0000 -0.1621670784
C   C68       1.0  0.19845  0.99501  0.44742  1.0000 -0.1621670784
C   C69       1.0  0.99501  0.44742  0.19845  1.0000 -0.1621670784
C   C70       1.0  0.80155  0.55258  0.00499  1.0000 -0.1621670784
C   C71       1.0  0.00499  0.80155  0.55258  1.0000 -0.1621670784
C   C72       1.0  0.55258  0.00499  0.80155  1.0000 -0.1621670784
C   C73       1.0  0.55066  0.74142  0.01661  1.0000 -0.0909791777
C   C74       1.0  0.74142  0.01661  0.55066  1.0000 -0.0909791777
C   C75       1.0  0.01661  0.55066  0.74142  1.0000 -0.0909791777
C   C76       1.0  0.25858  0.44934  0.98339  1.0000 -0.0909791777
C   C77       1.0  0.98339  0.25858  0.44934  1.0000 -0.0909791777
C   C78       1.0  0.44934  0.98339  0.25858  1.0000 -0.0909791777
C   C79       1.0  0.44934  0.25858  0.98339  1.0000 -0.0909791777
C   C80       1.0  0.25858  0.98339  0.44934  1.0000 -0.0909791777
C   C81       1.0  0.98339  0.44934  0.25858  1.0000 -0.0909791777
C   C82       1.0  0.74142  0.55066  0.01661  1.0000 -0.0909791777
C   C83       1.0  0.01661  0.74142  0.55066  1.0000 -0.0909791777
C   C84       1.0  0.55066  0.01661  0.74142  1.0000 -0.0909791777
C   C85       1.0  0.50887  0.85631  0.92551  1.0000 -0.0212686605
C   C86       1.0  0.85631  0.92551  0.50887  1.0000 -0.0212686605
C   C87       1.0  0.92551  0.50887  0.85631  1.0000 -0.0212686605
C   C88       1.0  0.14369  0.49113  0.07449  1.0000 -0.0212686605
C   C89       1.0  0.07449  0.14369  0.49113  1.0000 -0.0212686605
C   C90       1.0  0.49113  0.07449  0.14369  1.0000 -0.0212686605
C   C91       1.0  0.49113  0.14369  0.07449  1.0000 -0.0212686605
C   C92       1.0  0.14369  0.07449  0.49113  1.0000 -0.0212686605
C   C93       1.0  0.07449  0.49113  0.14369  1.0000 -0.0212686605
C   C94       1.0  0.85631  0.50887  0.92551  1.0000 -0.0212686605
C   C95       1.0  0.92551  0.85631  0.50887  1.0000 -0.0212686605
C   C96       1.0  0.50887  0.92551  0.85631  1.0000 -0.0212686605
C   C97       1.0  0.50457  0.90974  0.97769  1.0000 -0.199719553
C   C98       1.0  0.90974  0.97769  0.50457  1.0000 -0.199719553
C   C99       1.0  0.97769  0.50457  0.90974  1.0000 -0.199719553
C   C100      1.0  0.09026  0.49543  0.02231  1.0000 -0.199719553
C   C101      1.0  0.02231  0.09026  0.49543  1.0000 -0.199719553
C   C102      1.0  0.49543  0.02231  0.09026  1.0000 -0.199719553
C   C103      1.0  0.49543  0.09026  0.02231  1.0000 -0.199719553
C   C104      1.0  0.09026  0.02231  0.49543  1.0000 -0.199719553
C   C105      1.0  0.02231  0.49543  0.09026  1.0000 -0.199719553
C   C106      1.0  0.90974  0.50457  0.97769  1.0000 -0.199719553
C   C107      1.0  0.97769  0.90974  0.50457  1.0000 -0.199719553
C   C108      1.0  0.50457  0.97769  0.90974  1.0000 -0.199719553
C   C109      1.0  0.50190  0.97190  0.97190  1.0000 0.0692338585
C   C110      1.0  0.97190  0.97190  0.50190  1.0000 0.0692338585
C   C111      1.0  0.97190  0.50190  0.97190  1.0000 0.0692338585
C   C112      1.0  0.02810  0.49810  0.02810  1.0000 0.0692338585
C   C113      1.0  0.02810  0.02810  0.49810  1.0000 0.0692338585
C   C114      1.0  0.49810  0.02810  0.02810  1.0000 0.0692338585
C   C115      1.0  0.51176  0.86533  0.86533  1.0000 0.1396387879
C   C116      1.0  0.86533  0.86533  0.51176  1.0000 0.1396387879
C   C117      1.0  0.86533  0.51176  0.86533  1.0000 0.1396387879
C   C118      1.0  0.13467  0.48824  0.13467  1.0000 0.1396387879
C   C119      1.0  0.13467  0.13467  0.48824  1.0000 0.1396387879
C   C120      1.0  0.48824  0.13467  0.13467  1.0000 0.1396387879
C   C121      1.0  0.58566  0.82517  0.82517  1.0000 -0.2172428728
C   C122      1.0  0.82517  0.82517  0.58566  1.0000 -0.2172428728
C   C123      1.0  0.82517  0.58566  0.82517  1.0000 -0.2172428728
C   C124      1.0  0.17483  0.41434  0.17483  1.0000 -0.2172428728
C   C125      1.0  0.17483  0.17483  0.41434  1.0000 -0.2172428728
C   C126      1.0  0.41434  0.17483  0.17483  1.0000 -0.2172428728
O   O1        1.0  0.54264  0.62103  0.03978  1.0000 -0.522140586
O   O2        1.0  0.62103  0.03978  0.54264  1.0000 -0.522140586
O   O3        1.0  0.03978  0.54264  0.62103  1.0000 -0.522140586
O   O4        1.0  0.37897  0.45736  0.96022  1.0000 -0.522140586
O   O5        1.0  0.96022  0.37897  0.45736  1.0000 -0.522140586
O   O6        1.0  0.45736  0.96022  0.37897  1.0000 -0.522140586
O   O7        1.0  0.45736  0.37897  0.96022  1.0000 -0.522140586
O   O8        1.0  0.37897  0.96022  0.45736  1.0000 -0.522140586
O   O9        1.0  0.96022  0.45736  0.37897  1.0000 -0.522140586
O   O10       1.0  0.62103  0.54264  0.03978  1.0000 -0.522140586
O   O11       1.0  0.03978  0.62103  0.54264  1.0000 -0.522140586
O   O12       1.0  0.54264  0.03978  0.62103  1.0000 -0.522140586
O   O13       1.0  0.46578  0.54450  0.92095  1.0000 -0.5015809497
O   O14       1.0  0.54450  0.92095  0.46578  1.0000 -0.5015809497
O   O15       1.0  0.92095  0.46578  0.54450  1.0000 -0.5015809497
O   O16       1.0  0.45550  0.53422  0.07905  1.0000 -0.5015809497
O   O17       1.0  0.07905  0.45550  0.53422  1.0000 -0.5015809497
O   O18       1.0  0.53422  0.07905  0.45550  1.0000 -0.5015809497
O   O19       1.0  0.53422  0.45550  0.07905  1.0000 -0.5015809497
O   O20       1.0  0.45550  0.07905  0.53422  1.0000 -0.5015809497
O   O21       1.0  0.07905  0.53422  0.45550  1.0000 -0.5015809497
O   O22       1.0  0.54450  0.46578  0.92095  1.0000 -0.5015809497
O   O23       1.0  0.92095  0.54450  0.46578  1.0000 -0.5015809497
O   O24       1.0  0.46578  0.92095  0.54450  1.0000 -0.5015809497
O   O25       1.0  0.51317  0.81067  0.81067  1.0000 -0.1909059545
O   O26       1.0  0.81067  0.81067  0.51317  1.0000 -0.1909059545
O   O27       1.0  0.81067  0.51317  0.81067  1.0000 -0.1909059545
O   O28       1.0  0.18933  0.48683  0.18933  1.0000 -0.1909059545
O   O29       1.0  0.18933  0.18933  0.48683  1.0000 -0.1909059545
O   O30       1.0  0.48683  0.18933  0.18933  1.0000 -0.1909059545
