# DDEC6 charges by PACMAN v1.1 (https://github.com/mtap-research/PACMAN-charge/)
data_2016[Co][tbo]3[ASR]1
_chemical_formula_sum              "Co12 H24 C72 Cl12 O48"
_cell_length_a       18.8423
_cell_length_b       18.8423
_cell_length_c       18.8423
_cell_angle_alpha    60
_cell_angle_beta     60
_cell_angle_gamma    60

_symmetry_space_group_name_H-M    "P 1"
_symmetry_Int_Tables_number       1

loop_
  _symmetry_equiv_pos_as_xyz
  'x, y, z'

loop_
  _atom_site_type_symbol
  _atom_site_label
  _atom_site_symmetry_multiplicity
  _atom_site_fract_x
  _atom_site_fract_y
  _atom_site_fract_z
  _atom_site_occupancy
  _atom_site_charge
Co  Co1       1.0  0.00000  0.00000  0.57952  1.0000 1.035765899
Co  Co2       1.0  0.00000  0.00000  0.42048  1.0000 1.035765899
Co  Co3       1.0  0.57952  0.42048  0.00000  1.0000 1.0334121646
Co  Co4       1.0  0.42048  0.57952  0.00000  1.0000 1.035765899
Co  Co5       1.0  0.57952  0.00000  0.00000  1.0000 1.0334121646
Co  Co6       1.0  0.42048  0.00000  0.00000  1.0000 1.0334121646
Co  Co7       1.0  0.00000  0.57952  0.42048  1.0000 1.035765899
Co  Co8       1.0  0.00000  0.42048  0.57952  1.0000 1.035765899
Co  Co9       1.0  0.00000  0.57952  0.00000  1.0000 1.035765899
Co  Co10      1.0  0.00000  0.42048  0.00000  1.0000 1.035765899
Co  Co11      1.0  0.42048  0.00000  0.57952  1.0000 1.035765899
Co  Co12      1.0  0.57952  0.00000  0.42048  1.0000 1.035765899
H   H1        1.0  0.27370  0.96670  0.48590  1.0000 0.1560904296
H   H2        1.0  0.96670  0.27370  0.27370  1.0000 0.1560904296
H   H3        1.0  0.48590  0.27370  0.27370  1.0000 0.1560904296
H   H4        1.0  0.27370  0.48590  0.96670  1.0000 0.1560904296
H   H5        1.0  0.48590  0.27370  0.96670  1.0000 0.1560904296
H   H6        1.0  0.27370  0.96670  0.27370  1.0000 0.1560904296
H   H7        1.0  0.27370  0.48590  0.27370  1.0000 0.1560904296
H   H8        1.0  0.96670  0.27370  0.48590  1.0000 0.1560904296
H   H9        1.0  0.96670  0.48590  0.27370  1.0000 0.1560904296
H   H10       1.0  0.27370  0.27370  0.96670  1.0000 0.1560904296
H   H11       1.0  0.27370  0.27370  0.48590  1.0000 0.1560904296
H   H12       1.0  0.48590  0.96670  0.27370  1.0000 0.1560904296
H   H13       1.0  0.72630  0.03330  0.72630  1.0000 0.1560904296
H   H14       1.0  0.03330  0.72630  0.51410  1.0000 0.1560904296
H   H15       1.0  0.51410  0.72630  0.03330  1.0000 0.1560904296
H   H16       1.0  0.72630  0.51410  0.72630  1.0000 0.1560904296
H   H17       1.0  0.51410  0.72630  0.72630  1.0000 0.1560904296
H   H18       1.0  0.72630  0.03330  0.51410  1.0000 0.1560904296
H   H19       1.0  0.72630  0.51410  0.03330  1.0000 0.1560904296
H   H20       1.0  0.03330  0.72630  0.72630  1.0000 0.1560904296
H   H21       1.0  0.03330  0.51410  0.72630  1.0000 0.1560904296
H   H22       1.0  0.72630  0.72630  0.51410  1.0000 0.1560904296
H   H23       1.0  0.72630  0.72630  0.03330  1.0000 0.1560904296
H   H24       1.0  0.51410  0.03330  0.72630  1.0000 0.1560904296
C   C1        1.0  0.16420  0.97380  0.43100  1.0000 0.6083079091
C   C2        1.0  0.97380  0.16420  0.43100  1.0000 0.6083079091
C   C3        1.0  0.43100  0.43100  0.16420  1.0000 0.6083079091
C   C4        1.0  0.43100  0.43100  0.97380  1.0000 0.6083079091
C   C5        1.0  0.43100  0.16420  0.97380  1.0000 0.6083079091
C   C6        1.0  0.43100  0.97380  0.16420  1.0000 0.6083079091
C   C7        1.0  0.16420  0.43100  0.43100  1.0000 0.6083079091
C   C8        1.0  0.97380  0.43100  0.43100  1.0000 0.6083079091
C   C9        1.0  0.97380  0.43100  0.16420  1.0000 0.6083079091
C   C10       1.0  0.16420  0.43100  0.97380  1.0000 0.6083079091
C   C11       1.0  0.43100  0.16420  0.43100  1.0000 0.6083079091
C   C12       1.0  0.43100  0.97380  0.43100  1.0000 0.6083079091
C   C13       1.0  0.83580  0.02620  0.56900  1.0000 0.6083079091
C   C14       1.0  0.02620  0.83580  0.56900  1.0000 0.6083079091
C   C15       1.0  0.56900  0.56900  0.02620  1.0000 0.6083079091
C   C16       1.0  0.56900  0.56900  0.83580  1.0000 0.6083079091
C   C17       1.0  0.56900  0.83580  0.56900  1.0000 0.6083079091
C   C18       1.0  0.56900  0.02620  0.56900  1.0000 0.6083079091
C   C19       1.0  0.83580  0.56900  0.02620  1.0000 0.6083079091
C   C20       1.0  0.02620  0.56900  0.83580  1.0000 0.6083079091
C   C21       1.0  0.02620  0.56900  0.56900  1.0000 0.6083079091
C   C22       1.0  0.83580  0.56900  0.56900  1.0000 0.6083079091
C   C23       1.0  0.56900  0.83580  0.02620  1.0000 0.6083079091
C   C24       1.0  0.56900  0.02620  0.83580  1.0000 0.6083079091
C   C25       1.0  0.25870  0.96990  0.38570  1.0000 -0.0007672352
C   C26       1.0  0.96990  0.25870  0.38570  1.0000 -0.0007672352
C   C27       1.0  0.38570  0.38570  0.25870  1.0000 -0.0007672352
C   C28       1.0  0.38570  0.38570  0.96990  1.0000 -0.0007672352
C   C29       1.0  0.38570  0.25870  0.96990  1.0000 -0.0007672352
C   C30       1.0  0.38570  0.96990  0.25870  1.0000 -0.0007672352
C   C31       1.0  0.25870  0.38570  0.38570  1.0000 -0.0007672352
C   C32       1.0  0.96990  0.38570  0.38570  1.0000 -0.0007672352
C   C33       1.0  0.96990  0.38570  0.25870  1.0000 -0.0007672352
C   C34       1.0  0.25870  0.38570  0.96990  1.0000 -0.0007672352
C   C35       1.0  0.38570  0.25870  0.38570  1.0000 -0.0007672352
C   C36       1.0  0.38570  0.96990  0.38570  1.0000 -0.0007672352
C   C37       1.0  0.74130  0.03010  0.61430  1.0000 -0.0007672352
C   C38       1.0  0.03010  0.74130  0.61430  1.0000 -0.0007672352
C   C39       1.0  0.61430  0.61430  0.03010  1.0000 -0.0007672352
C   C40       1.0  0.61430  0.61430  0.74130  1.0000 -0.0007672352
C   C41       1.0  0.61430  0.74130  0.61430  1.0000 -0.0007672352
C   C42       1.0  0.61430  0.03010  0.61430  1.0000 -0.0007672352
C   C43       1.0  0.74130  0.61430  0.03010  1.0000 -0.0007672352
C   C44       1.0  0.03010  0.61430  0.74130  1.0000 -0.0007672352
C   C45       1.0  0.03010  0.61430  0.61430  1.0000 -0.0007672352
C   C46       1.0  0.74130  0.61430  0.61430  1.0000 -0.0007672352
C   C47       1.0  0.61430  0.74130  0.03010  1.0000 -0.0007672352
C   C48       1.0  0.61430  0.03010  0.74130  1.0000 -0.0007672352
C   C49       1.0  0.30160  0.96840  0.42840  1.0000 -0.0645253493
C   C50       1.0  0.96840  0.30160  0.30160  1.0000 -0.0655111833
C   C51       1.0  0.42840  0.30160  0.30160  1.0000 -0.0645253493
C   C52       1.0  0.30160  0.42840  0.96840  1.0000 -0.0645253493
C   C53       1.0  0.42840  0.30160  0.96840  1.0000 -0.0645253493
C   C54       1.0  0.30160  0.96840  0.30160  1.0000 -0.0645253493
C   C55       1.0  0.30160  0.42840  0.30160  1.0000 -0.0655111833
C   C56       1.0  0.96840  0.30160  0.42840  1.0000 -0.0645253493
C   C57       1.0  0.96840  0.42840  0.30160  1.0000 -0.0655111833
C   C58       1.0  0.30160  0.30160  0.96840  1.0000 -0.0645253493
C   C59       1.0  0.30160  0.30160  0.42840  1.0000 -0.0645253493
C   C60       1.0  0.42840  0.96840  0.30160  1.0000 -0.0655111833
C   C61       1.0  0.69840  0.03160  0.69840  1.0000 -0.0645253493
C   C62       1.0  0.03160  0.69840  0.57160  1.0000 -0.0645253493
C   C63       1.0  0.57160  0.69840  0.03160  1.0000 -0.0645253493
C   C64       1.0  0.69840  0.57160  0.69840  1.0000 -0.0645253493
C   C65       1.0  0.57160  0.69840  0.69840  1.0000 -0.0645253493
C   C66       1.0  0.69840  0.03160  0.57160  1.0000 -0.0645253493
C   C67       1.0  0.69840  0.57160  0.03160  1.0000 -0.0645253493
C   C68       1.0  0.03160  0.69840  0.69840  1.0000 -0.0645253493
C   C69       1.0  0.03160  0.57160  0.69840  1.0000 -0.0645253493
C   C70       1.0  0.69840  0.69840  0.57160  1.0000 -0.0645253493
C   C71       1.0  0.69840  0.69840  0.03160  1.0000 -0.0645253493
C   C72       1.0  0.57160  0.03160  0.69840  1.0000 -0.0645253493
Cl  Cl1       1.0  0.00000  0.00000  0.70080  1.0000 -0.4526614866
Cl  Cl2       1.0  0.00000  0.00000  0.29920  1.0000 -0.4526614866
Cl  Cl3       1.0  0.70080  0.29920  0.00000  1.0000 -0.4526614866
Cl  Cl4       1.0  0.29920  0.70080  0.00000  1.0000 -0.4526614866
Cl  Cl5       1.0  0.70080  0.00000  0.00000  1.0000 -0.4526614866
Cl  Cl6       1.0  0.29920  0.00000  0.00000  1.0000 -0.4526614866
Cl  Cl7       1.0  0.00000  0.70080  0.29920  1.0000 -0.4557073055
Cl  Cl8       1.0  0.00000  0.29920  0.70080  1.0000 -0.4526614866
Cl  Cl9       1.0  0.00000  0.70080  0.00000  1.0000 -0.4526614866
Cl  Cl10      1.0  0.00000  0.29920  0.00000  1.0000 -0.4526614866
Cl  Cl11      1.0  0.29920  0.00000  0.70080  1.0000 -0.4526614866
Cl  Cl12      1.0  0.70080  0.00000  0.29920  1.0000 -0.4526614866
O   O1        1.0  0.12750  0.97870  0.50650  1.0000 -0.4956882724
O   O2        1.0  0.97870  0.12750  0.38730  1.0000 -0.4946090868
O   O3        1.0  0.50650  0.38730  0.12750  1.0000 -0.4946090868
O   O4        1.0  0.38730  0.50650  0.97870  1.0000 -0.4956882724
O   O5        1.0  0.50650  0.12750  0.97870  1.0000 -0.4956882724
O   O6        1.0  0.38730  0.97870  0.12750  1.0000 -0.4946090868
O   O7        1.0  0.12750  0.50650  0.38730  1.0000 -0.4956882724
O   O8        1.0  0.97870  0.38730  0.50650  1.0000 -0.4946090868
O   O9        1.0  0.97870  0.50650  0.12750  1.0000 -0.4946090868
O   O10       1.0  0.12750  0.38730  0.97870  1.0000 -0.4956882724
O   O11       1.0  0.38730  0.12750  0.50650  1.0000 -0.4946090868
O   O12       1.0  0.50650  0.97870  0.38730  1.0000 -0.4956882724
O   O13       1.0  0.87250  0.02130  0.61270  1.0000 -0.4946090868
O   O14       1.0  0.02130  0.87250  0.49350  1.0000 -0.4946090868
O   O15       1.0  0.49350  0.61270  0.02130  1.0000 -0.4956882724
O   O16       1.0  0.61270  0.49350  0.87250  1.0000 -0.4946090868
O   O17       1.0  0.49350  0.87250  0.61270  1.0000 -0.4946090868
O   O18       1.0  0.61270  0.02130  0.49350  1.0000 -0.4956882724
O   O19       1.0  0.87250  0.49350  0.02130  1.0000 -0.4946090868
O   O20       1.0  0.02130  0.61270  0.87250  1.0000 -0.4956882724
O   O21       1.0  0.02130  0.49350  0.61270  1.0000 -0.4946090868
O   O22       1.0  0.87250  0.61270  0.49350  1.0000 -0.4946090868
O   O23       1.0  0.61270  0.87250  0.02130  1.0000 -0.4946090868
O   O24       1.0  0.49350  0.02130  0.87250  1.0000 -0.4946090868
O   O25       1.0  0.87250  0.02130  0.49350  1.0000 -0.4946090868
O   O26       1.0  0.02130  0.87250  0.61270  1.0000 -0.4946090868
O   O27       1.0  0.49350  0.61270  0.87250  1.0000 -0.4946090868
O   O28       1.0  0.61270  0.49350  0.02130  1.0000 -0.4946090868
O   O29       1.0  0.49350  0.87250  0.02130  1.0000 -0.4946090868
O   O30       1.0  0.61270  0.02130  0.87250  1.0000 -0.4956882724
O   O31       1.0  0.87250  0.49350  0.61270  1.0000 -0.4946090868
O   O32       1.0  0.02130  0.61270  0.49350  1.0000 -0.4956882724
O   O33       1.0  0.02130  0.49350  0.87250  1.0000 -0.4946090868
O   O34       1.0  0.87250  0.61270  0.02130  1.0000 -0.4956882724
O   O35       1.0  0.61270  0.87250  0.49350  1.0000 -0.4946090868
O   O36       1.0  0.49350  0.02130  0.61270  1.0000 -0.4946090868
O   O37       1.0  0.12750  0.97870  0.38730  1.0000 -0.4946090868
O   O38       1.0  0.97870  0.12750  0.50650  1.0000 -0.4946090868
O   O39       1.0  0.50650  0.38730  0.97870  1.0000 -0.4956882724
O   O40       1.0  0.38730  0.50650  0.12750  1.0000 -0.4946090868
O   O41       1.0  0.50650  0.12750  0.38730  1.0000 -0.4956882724
O   O42       1.0  0.38730  0.97870  0.50650  1.0000 -0.4956882724
O   O43       1.0  0.12750  0.50650  0.97870  1.0000 -0.4956882724
O   O44       1.0  0.97870  0.38730  0.12750  1.0000 -0.4946090868
O   O45       1.0  0.97870  0.50650  0.38730  1.0000 -0.4946090868
O   O46       1.0  0.12750  0.38730  0.50650  1.0000 -0.4956882724
O   O47       1.0  0.38730  0.12750  0.97870  1.0000 -0.4956882724
O   O48       1.0  0.50650  0.97870  0.12750  1.0000 -0.4956882724
