# DDEC6 charges by PACMAN v1.1 (https://github.com/mtap-research/PACMAN-charge/)
data_2016[Cu][ths]3[ASR]1
_chemical_formula_sum              "Cu8 H120 C192 Br8 N24 O48"
_cell_length_a       30.641
_cell_length_b       7.77
_cell_length_c       32.249
_cell_angle_alpha    90
_cell_angle_beta     116.03
_cell_angle_gamma    90

_symmetry_space_group_name_H-M    "P 1"
_symmetry_Int_Tables_number       1

loop_
  _symmetry_equiv_pos_as_xyz
  'x, y, z'

loop_
  _atom_site_type_symbol
  _atom_site_label
  _atom_site_symmetry_multiplicity
  _atom_site_fract_x
  _atom_site_fract_y
  _atom_site_fract_z
  _atom_site_occupancy
  _atom_site_charge
Cu  Cu1       1.0  0.87707  0.22659  0.24276  1.0000 0.2614826813
Cu  Cu2       1.0  0.37707  0.27341  0.24276  1.0000 0.267581662
Cu  Cu3       1.0  0.38170  0.77985  0.74214  1.0000 0.2614826813
Cu  Cu4       1.0  0.88170  0.72015  0.74214  1.0000 0.2614826813
Cu  Cu5       1.0  0.62293  0.72659  0.75724  1.0000 0.267581662
Cu  Cu6       1.0  0.12293  0.77341  0.75724  1.0000 0.2614826813
Cu  Cu7       1.0  0.11830  0.27985  0.25786  1.0000 0.2614826813
Cu  Cu8       1.0  0.61830  0.22015  0.25786  1.0000 0.2614826813
H   H1        1.0  0.98305  0.32556  0.29189  1.0000 0.1088739576
H   H2        1.0  0.48305  0.17444  0.29189  1.0000 0.1088739576
H   H3        1.0  0.05841  0.19378  0.33020  1.0000 0.1288345194
H   H4        1.0  0.55841  0.30622  0.33020  1.0000 0.1288345194
H   H5        1.0  0.98967  0.73316  0.30304  1.0000 0.1288345194
H   H6        1.0  0.48967  0.76684  0.30304  1.0000 0.1288345194
H   H7        1.0  0.91710  0.87635  0.26340  1.0000 0.0998437995
H   H8        1.0  0.41710  0.62365  0.26340  1.0000 0.0998437995
H   H9        1.0  0.16727  0.79398  0.32652  1.0000 0.1570905501
H   H10       1.0  0.66727  0.70602  0.32652  1.0000 0.1570905501
H   H11       1.0  0.28570  0.67929  0.44693  1.0000 0.1692329951
H   H12       1.0  0.78570  0.82071  0.44693  1.0000 0.1692329951
H   H13       1.0  0.17052  0.93202  0.44996  1.0000 0.1692329951
H   H14       1.0  0.67052  0.56798  0.44996  1.0000 0.1692329951
H   H15       1.0  0.29910  0.79283  0.27178  1.0000 0.1373890239
H   H16       1.0  0.79910  0.70717  0.27178  1.0000 0.1373890239
H   H17       1.0  0.33436  0.61517  0.23711  1.0000 0.0937915201
H   H18       1.0  0.83436  0.88483  0.23711  1.0000 0.0937915201
H   H19       1.0  0.32498  0.21284  0.30658  1.0000 0.1088739576
H   H20       1.0  0.82498  0.28716  0.30658  1.0000 0.1088739576
H   H21       1.0  0.28792  0.37666  0.34261  1.0000 0.1288345194
H   H22       1.0  0.78792  0.12334  0.34261  1.0000 0.1288345194
H   H23       1.0  0.32492  0.91833  0.57318  1.0000 0.1373890239
H   H24       1.0  0.82492  0.58167  0.57318  1.0000 0.1373890239
H   H25       1.0  0.37562  0.93539  0.65209  1.0000 0.0998437995
H   H26       1.0  0.87562  0.56461  0.65209  1.0000 0.0998437995
H   H27       1.0  0.28719  0.64216  0.68055  1.0000 0.0998437995
H   H28       1.0  0.78719  0.85784  0.68055  1.0000 0.0998437995
H   H29       1.0  0.23265  0.62352  0.60290  1.0000 0.1373890239
H   H30       1.0  0.73265  0.87648  0.60290  1.0000 0.1373890239
H   H31       1.0  0.42293  0.12527  0.74220  1.0000 0.0998437995
H   H32       1.0  0.92293  0.37473  0.74220  1.0000 0.0998437995
H   H33       1.0  0.49493  0.27383  0.77925  1.0000 0.1288345194
H   H34       1.0  0.99493  0.22617  0.77925  1.0000 0.1288345194
H   H35       1.0  0.56221  0.82136  0.83118  1.0000 0.1288345194
H   H36       1.0  0.06221  0.67864  0.83118  1.0000 0.1288345194
H   H37       1.0  0.48733  0.68530  0.79407  1.0000 0.1088739576
H   H38       1.0  0.98733  0.81470  0.79407  1.0000 0.1088739576
H   H39       1.0  0.67304  0.22276  0.82656  1.0000 0.154481476
H   H40       1.0  0.17304  0.27724  0.82656  1.0000 0.154481476
H   H41       1.0  0.78799  0.33744  0.94983  1.0000 0.1692329951
H   H42       1.0  0.28799  0.16256  0.94983  1.0000 0.1692329951
H   H43       1.0  0.66964  0.08776  0.94778  1.0000 0.1692329951
H   H44       1.0  0.16964  0.41224  0.94778  1.0000 0.1692329951
H   H45       1.0  0.81823  0.20137  0.78752  1.0000 0.1373890239
H   H46       1.0  0.31823  0.29863  0.78752  1.0000 0.1373890239
H   H47       1.0  0.85385  0.37031  0.75150  1.0000 0.0937915201
H   H48       1.0  0.35385  0.12969  0.75150  1.0000 0.0937915201
H   H49       1.0  0.82862  0.79260  0.80377  1.0000 0.1088739576
H   H50       1.0  0.32862  0.70740  0.80377  1.0000 0.1088739576
H   H51       1.0  0.79125  0.63677  0.84131  1.0000 0.1288345194
H   H52       1.0  0.29125  0.86323  0.84131  1.0000 0.1288345194
H   H53       1.0  0.72959  0.38934  0.10261  1.0000 0.1373890239
H   H54       1.0  0.22959  0.11066  0.10261  1.0000 0.1373890239
H   H55       1.0  0.78321  0.36699  0.18059  1.0000 0.0998437995
H   H56       1.0  0.28321  0.13301  0.18059  1.0000 0.0998437995
H   H57       1.0  0.87322  0.08220  0.15209  1.0000 0.1088739576
H   H58       1.0  0.37322  0.41780  0.15209  1.0000 0.1088739576
H   H59       1.0  0.82377  0.10505  0.07324  1.0000 0.1373890239
H   H60       1.0  0.32377  0.39495  0.07324  1.0000 0.1373890239
H   H61       1.0  0.51695  0.82556  0.70811  1.0000 0.1088739576
H   H62       1.0  0.01695  0.67444  0.70811  1.0000 0.1088739576
H   H63       1.0  0.44159  0.69378  0.66980  1.0000 0.1288345194
H   H64       1.0  0.94159  0.80622  0.66980  1.0000 0.1288345194
H   H65       1.0  0.51033  0.23316  0.69696  1.0000 0.1288345194
H   H66       1.0  0.01033  0.26684  0.69696  1.0000 0.1288345194
H   H67       1.0  0.58290  0.37635  0.73660  1.0000 0.0998437995
H   H68       1.0  0.08290  0.12365  0.73660  1.0000 0.0998437995
H   H69       1.0  0.33273  0.29398  0.67348  1.0000 0.1570905501
H   H70       1.0  0.83273  0.20602  0.67348  1.0000 0.1570905501
H   H71       1.0  0.21430  0.17929  0.55307  1.0000 0.1692329951
H   H72       1.0  0.71430  0.32071  0.55307  1.0000 0.1692329951
H   H73       1.0  0.32948  0.43202  0.55004  1.0000 0.1692329951
H   H74       1.0  0.82948  0.06798  0.55004  1.0000 0.1692329951
H   H75       1.0  0.20090  0.29283  0.72822  1.0000 0.1373890239
H   H76       1.0  0.70090  0.20717  0.72822  1.0000 0.1373890239
H   H77       1.0  0.16564  0.11517  0.76289  1.0000 0.0937915201
H   H78       1.0  0.66564  0.38483  0.76289  1.0000 0.0937915201
H   H79       1.0  0.17502  0.71284  0.69342  1.0000 0.1088739576
H   H80       1.0  0.67502  0.78716  0.69342  1.0000 0.1088739576
H   H81       1.0  0.21208  0.87666  0.65739  1.0000 0.1288345194
H   H82       1.0  0.71208  0.62334  0.65739  1.0000 0.1288345194
H   H83       1.0  0.17508  0.41833  0.42682  1.0000 0.1373890239
H   H84       1.0  0.67508  0.08167  0.42682  1.0000 0.1373890239
H   H85       1.0  0.12438  0.43539  0.34791  1.0000 0.0998437995
H   H86       1.0  0.62438  0.06461  0.34791  1.0000 0.0998437995
H   H87       1.0  0.21281  0.14216  0.31945  1.0000 0.0998437995
H   H88       1.0  0.71281  0.35784  0.31945  1.0000 0.0998437995
H   H89       1.0  0.26735  0.12352  0.39710  1.0000 0.1373890239
H   H90       1.0  0.76735  0.37648  0.39710  1.0000 0.1373890239
H   H91       1.0  0.07707  0.62527  0.25780  1.0000 0.0998437995
H   H92       1.0  0.57707  0.87473  0.25780  1.0000 0.0998437995
H   H93       1.0  0.00507  0.77383  0.22075  1.0000 0.1288345194
H   H94       1.0  0.50507  0.72617  0.22075  1.0000 0.1288345194
H   H95       1.0  0.93779  0.32136  0.16882  1.0000 0.1288345194
H   H96       1.0  0.43779  0.17864  0.16882  1.0000 0.1288345194
H   H97       1.0  0.01267  0.18530  0.20593  1.0000 0.1088739576
H   H98       1.0  0.51267  0.31470  0.20593  1.0000 0.1088739576
H   H99       1.0  0.82696  0.72276  0.17344  1.0000 0.154481476
H   H100      1.0  0.32696  0.77724  0.17344  1.0000 0.154481476
H   H101      1.0  0.71201  0.83744  0.05017  1.0000 0.1692329951
H   H102      1.0  0.21201  0.66256  0.05017  1.0000 0.1692329951
H   H103      1.0  0.83036  0.58776  0.05222  1.0000 0.1692329951
H   H104      1.0  0.33036  0.91224  0.05222  1.0000 0.1692329951
H   H105      1.0  0.68177  0.70137  0.21248  1.0000 0.1373890239
H   H106      1.0  0.18177  0.79863  0.21248  1.0000 0.1373890239
H   H107      1.0  0.64615  0.87031  0.24850  1.0000 0.0937915201
H   H108      1.0  0.14615  0.62969  0.24850  1.0000 0.0937915201
H   H109      1.0  0.67138  0.29260  0.19623  1.0000 0.1088739576
H   H110      1.0  0.17138  0.20740  0.19623  1.0000 0.1088739576
H   H111      1.0  0.70875  0.13677  0.15869  1.0000 0.1288345194
H   H112      1.0  0.20875  0.36323  0.15869  1.0000 0.1288345194
H   H113      1.0  0.77041  0.88934  0.89739  1.0000 0.1373890239
H   H114      1.0  0.27041  0.61066  0.89739  1.0000 0.1373890239
H   H115      1.0  0.71679  0.86699  0.81941  1.0000 0.0998437995
H   H116      1.0  0.21679  0.63301  0.81941  1.0000 0.0998437995
H   H117      1.0  0.62678  0.58220  0.84791  1.0000 0.1088739576
H   H118      1.0  0.12678  0.91780  0.84791  1.0000 0.1088739576
H   H119      1.0  0.67623  0.60505  0.92676  1.0000 0.1373890239
H   H120      1.0  0.17623  0.89495  0.92676  1.0000 0.1373890239
C   C1        1.0  0.98455  0.20350  0.29371  1.0000 0.0723228513
C   C2        1.0  0.48455  0.29650  0.29371  1.0000 0.0723228513
C   C3        1.0  0.02970  0.12610  0.31695  1.0000 -0.152616863
C   C4        1.0  0.52970  0.37390  0.31695  1.0000 -0.152616863
C   C5        1.0  0.03210  0.94780  0.32047  1.0000 0.0074593867
C   C6        1.0  0.53210  0.55220  0.32047  1.0000 0.0074593867
C   C7        1.0  0.98929  0.85510  0.30067  1.0000 -0.139294088
C   C8        1.0  0.48929  0.64490  0.30067  1.0000 -0.139294088
C   C9        1.0  0.94617  0.94170  0.27750  1.0000 0.0779552477
C   C10       1.0  0.44617  0.55830  0.27750  1.0000 0.0779552477
C   C11       1.0  0.07838  0.84890  0.34395  1.0000 0.5095449926
C   C12       1.0  0.57838  0.65110  0.34395  1.0000 0.5095449926
C   C13       1.0  0.16291  0.87080  0.38540  1.0000 0.288641713
C   C14       1.0  0.66291  0.62920  0.38540  1.0000 0.288641713
C   C15       1.0  0.18357  0.79600  0.35927  1.0000 -0.3044758236
C   C16       1.0  0.68357  0.70400  0.35927  1.0000 -0.3108508443
C   C17       1.0  0.22959  0.72370  0.38356  1.0000 0.288641713
C   C18       1.0  0.72959  0.77630  0.38356  1.0000 0.288641713
C   C19       1.0  0.25425  0.72830  0.43111  1.0000 -0.3211392905
C   C20       1.0  0.75425  0.77170  0.43111  1.0000 -0.3211392905
C   C21       1.0  0.23149  0.80690  0.45495  1.0000 0.288641713
C   C22       1.0  0.73149  0.69310  0.45495  1.0000 0.288641713
C   C23       1.0  0.18564  0.87920  0.43305  1.0000 -0.3211392905
C   C24       1.0  0.68564  0.62080  0.43305  1.0000 -0.3211392905
C   C25       1.0  0.26699  0.72020  0.33299  1.0000 0.5095449926
C   C26       1.0  0.76699  0.77980  0.33299  1.0000 0.5095449926
C   C27       1.0  0.28981  0.60320  0.31127  1.0000 0.0074593867
C   C28       1.0  0.78981  0.89680  0.31127  1.0000 0.0074593867
C   C29       1.0  0.30392  0.67410  0.27944  1.0000 -0.139294088
C   C30       1.0  0.80392  0.82590  0.27944  1.0000 -0.139294088
C   C31       1.0  0.32521  0.56680  0.25919  1.0000 0.0646971071
C   C32       1.0  0.82521  0.93320  0.25919  1.0000 0.0646971071
C   C33       1.0  0.31961  0.33190  0.29947  1.0000 0.0723228513
C   C34       1.0  0.81961  0.16810  0.29947  1.0000 0.0723228513
C   C35       1.0  0.29753  0.42880  0.32127  1.0000 -0.152616863
C   C36       1.0  0.79753  0.07120  0.32127  1.0000 -0.152616863
C   C37       1.0  0.23937  0.74690  0.52973  1.0000 0.5033495853
C   C38       1.0  0.73937  0.75310  0.52973  1.0000 0.5033495853
C   C39       1.0  0.27347  0.76920  0.57977  1.0000 0.0074593867
C   C40       1.0  0.77347  0.73080  0.57977  1.0000 0.0074593867
C   C41       1.0  0.31633  0.86180  0.59466  1.0000 -0.152616863
C   C42       1.0  0.81633  0.63820  0.59466  1.0000 -0.152616863
C   C43       1.0  0.34653  0.87010  0.64182  1.0000 0.0723228513
C   C44       1.0  0.84653  0.62990  0.64182  1.0000 0.0723228513
C   C45       1.0  0.29464  0.69970  0.65845  1.0000 0.0779552477
C   C46       1.0  0.79464  0.80030  0.65845  1.0000 0.0779552477
C   C47       1.0  0.26199  0.68670  0.61223  1.0000 -0.1581200474
C   C48       1.0  0.76199  0.81330  0.61223  1.0000 -0.1581200474
C   C49       1.0  0.45153  0.06310  0.76102  1.0000 0.0723228513
C   C50       1.0  0.95153  0.43690  0.76102  1.0000 0.0723228513
C   C51       1.0  0.49434  0.15250  0.78253  1.0000 -0.139294088
C   C52       1.0  0.99434  0.34750  0.78253  1.0000 -0.139294088
C   C53       1.0  0.53669  0.06340  0.80908  1.0000 0.0074593867
C   C54       1.0  0.03669  0.43660  0.80908  1.0000 0.0074593867
C   C55       1.0  0.53390  0.88650  0.81330  1.0000 -0.152616863
C   C56       1.0  0.03390  0.61350  0.81330  1.0000 -0.152616863
C   C57       1.0  0.48904  0.80640  0.79098  1.0000 0.0723228513
C   C58       1.0  0.98904  0.69360  0.79098  1.0000 0.0723228513
C   C59       1.0  0.58239  0.16430  0.83144  1.0000 0.5095449926
C   C60       1.0  0.08239  0.33570  0.83144  1.0000 0.5095449926
C   C61       1.0  0.66510  0.14710  0.88393  1.0000 0.2974706793
C   C62       1.0  0.16510  0.35290  0.88393  1.0000 0.2974706793
C   C63       1.0  0.68788  0.22110  0.85934  1.0000 -0.3108508443
C   C64       1.0  0.18788  0.27890  0.85934  1.0000 -0.3108508443
C   C65       1.0  0.73363  0.29280  0.88522  1.0000 0.288641713
C   C66       1.0  0.23363  0.20720  0.88522  1.0000 0.288641713
C   C67       1.0  0.75660  0.28910  0.93299  1.0000 -0.3211392905
C   C68       1.0  0.25660  0.21090  0.93299  1.0000 -0.3211392905
C   C69       1.0  0.73194  0.21210  0.95521  1.0000 0.288641713
C   C70       1.0  0.23194  0.28790  0.95521  1.0000 0.288641713
C   C71       1.0  0.68593  0.13960  0.93181  1.0000 -0.3326368873
C   C72       1.0  0.18593  0.36040  0.93181  1.0000 -0.3326368873
C   C73       1.0  0.77727  0.28940  0.84046  1.0000 0.5095449926
C   C74       1.0  0.27727  0.21060  0.84046  1.0000 0.5095449926
C   C75       1.0  0.80119  0.40200  0.81876  1.0000 0.0074593867
C   C76       1.0  0.30119  0.09800  0.81876  1.0000 0.0074593867
C   C77       1.0  0.81998  0.32270  0.79154  1.0000 -0.139294088
C   C78       1.0  0.31998  0.17730  0.79154  1.0000 -0.139294088
C   C79       1.0  0.84136  0.42500  0.77039  1.0000 0.0723228513
C   C80       1.0  0.34136  0.07500  0.77039  1.0000 0.0723228513
C   C81       1.0  0.82666  0.67090  0.80065  1.0000 0.0723228513
C   C82       1.0  0.32666  0.82910  0.80065  1.0000 0.0723228513
C   C83       1.0  0.80419  0.57880  0.82324  1.0000 -0.152616863
C   C84       1.0  0.30419  0.92120  0.82324  1.0000 -0.152616863
C   C85       1.0  0.73770  0.27340  0.02953  1.0000 0.5033495853
C   C86       1.0  0.23770  0.22660  0.02953  1.0000 0.5033495853
C   C87       1.0  0.77130  0.24900  0.07972  1.0000 0.0074593867
C   C88       1.0  0.27130  0.25100  0.07972  1.0000 0.0074593867
C   C89       1.0  0.75911  0.32720  0.11206  1.0000 -0.152616863
C   C90       1.0  0.25911  0.17280  0.11206  1.0000 -0.152616863
C   C91       1.0  0.79119  0.31210  0.15849  1.0000 0.0779552477
C   C92       1.0  0.29119  0.18790  0.15849  1.0000 0.0779552477
C   C93       1.0  0.84401  0.14680  0.14181  1.0000 0.0723228513
C   C94       1.0  0.34401  0.35320  0.14181  1.0000 0.0723228513
C   C95       1.0  0.81454  0.15820  0.09472  1.0000 -0.1581200474
C   C96       1.0  0.31454  0.34180  0.09472  1.0000 -0.1581200474
C   C97       1.0  0.51545  0.70350  0.70629  1.0000 0.0723228513
C   C98       1.0  0.01545  0.79650  0.70629  1.0000 0.0723228513
C   C99       1.0  0.47030  0.62610  0.68305  1.0000 -0.152616863
C   C100      1.0  0.97030  0.87390  0.68305  1.0000 -0.152616863
C   C101      1.0  0.46790  0.44780  0.67953  1.0000 0.0074593867
C   C102      1.0  0.96790  0.05220  0.67953  1.0000 0.0074593867
C   C103      1.0  0.51071  0.35510  0.69933  1.0000 -0.139294088
C   C104      1.0  0.01071  0.14490  0.69933  1.0000 -0.139294088
C   C105      1.0  0.55383  0.44170  0.72250  1.0000 0.0779552477
C   C106      1.0  0.05383  0.05830  0.72250  1.0000 0.0779552477
C   C107      1.0  0.42162  0.34890  0.65605  1.0000 0.5095449926
C   C108      1.0  0.92162  0.15110  0.65605  1.0000 0.5095449926
C   C109      1.0  0.33709  0.37080  0.61460  1.0000 0.288641713
C   C110      1.0  0.83709  0.12920  0.61460  1.0000 0.288641713
C   C111      1.0  0.31643  0.29600  0.64073  1.0000 -0.3044758236
C   C112      1.0  0.81643  0.20400  0.64073  1.0000 -0.3044758236
C   C113      1.0  0.27041  0.22370  0.61644  1.0000 0.288641713
C   C114      1.0  0.77041  0.27630  0.61644  1.0000 0.288641713
C   C115      1.0  0.24575  0.22830  0.56889  1.0000 -0.3211392905
C   C116      1.0  0.74575  0.27170  0.56889  1.0000 -0.3211392905
C   C117      1.0  0.26851  0.30690  0.54505  1.0000 0.288641713
C   C118      1.0  0.76851  0.19310  0.54505  1.0000 0.288641713
C   C119      1.0  0.31436  0.37920  0.56695  1.0000 -0.3211392905
C   C120      1.0  0.81436  0.12080  0.56695  1.0000 -0.3211392905
C   C121      1.0  0.23301  0.22020  0.66701  1.0000 0.5095449926
C   C122      1.0  0.73301  0.27980  0.66701  1.0000 0.5095449926
C   C123      1.0  0.21019  0.10320  0.68873  1.0000 0.0074593867
C   C124      1.0  0.71019  0.39680  0.68873  1.0000 0.0074593867
C   C125      1.0  0.19608  0.17410  0.72056  1.0000 -0.139294088
C   C126      1.0  0.69608  0.32590  0.72056  1.0000 -0.139294088
C   C127      1.0  0.17479  0.06680  0.74081  1.0000 0.0646971071
C   C128      1.0  0.67479  0.43320  0.74081  1.0000 0.0646971071
C   C129      1.0  0.18039  0.83190  0.70053  1.0000 0.0723228513
C   C130      1.0  0.68039  0.66810  0.70053  1.0000 0.0723228513
C   C131      1.0  0.20247  0.92880  0.67873  1.0000 -0.152616863
C   C132      1.0  0.70247  0.57120  0.67873  1.0000 -0.152616863
C   C133      1.0  0.26063  0.24690  0.47027  1.0000 0.5033495853
C   C134      1.0  0.76063  0.25310  0.47027  1.0000 0.5033495853
C   C135      1.0  0.22653  0.26920  0.42023  1.0000 0.0074593867
C   C136      1.0  0.72653  0.23080  0.42023  1.0000 0.0074593867
C   C137      1.0  0.18367  0.36180  0.40534  1.0000 -0.152616863
C   C138      1.0  0.68367  0.13820  0.40534  1.0000 -0.152616863
C   C139      1.0  0.15347  0.37010  0.35818  1.0000 0.0723228513
C   C140      1.0  0.65347  0.12990  0.35818  1.0000 0.0723228513
C   C141      1.0  0.20536  0.19970  0.34155  1.0000 0.0779552477
C   C142      1.0  0.70536  0.30030  0.34155  1.0000 0.0779552477
C   C143      1.0  0.23801  0.18670  0.38777  1.0000 -0.1581200474
C   C144      1.0  0.73801  0.31330  0.38777  1.0000 -0.1581200474
C   C145      1.0  0.04847  0.56310  0.23898  1.0000 0.0723228513
C   C146      1.0  0.54847  0.93690  0.23898  1.0000 0.0723228513
C   C147      1.0  0.00566  0.65250  0.21747  1.0000 -0.139294088
C   C148      1.0  0.50566  0.84750  0.21747  1.0000 -0.139294088
C   C149      1.0  0.96331  0.56340  0.19092  1.0000 0.0074593867
C   C150      1.0  0.46331  0.93660  0.19092  1.0000 0.0074593867
C   C151      1.0  0.96610  0.38650  0.18670  1.0000 -0.152616863
C   C152      1.0  0.46610  0.11350  0.18670  1.0000 -0.152616863
C   C153      1.0  0.01096  0.30640  0.20902  1.0000 0.0723228513
C   C154      1.0  0.51096  0.19360  0.20902  1.0000 0.0723228513
C   C155      1.0  0.91761  0.66430  0.16856  1.0000 0.5095449926
C   C156      1.0  0.41761  0.83570  0.16856  1.0000 0.5095449926
C   C157      1.0  0.83490  0.64710  0.11607  1.0000 0.2974706793
C   C158      1.0  0.33490  0.85290  0.11607  1.0000 0.2974706793
C   C159      1.0  0.81212  0.72110  0.14066  1.0000 -0.3108508443
C   C160      1.0  0.31212  0.77890  0.14066  1.0000 -0.3108508443
C   C161      1.0  0.76637  0.79280  0.11478  1.0000 0.288641713
C   C162      1.0  0.26637  0.70720  0.11478  1.0000 0.288641713
C   C163      1.0  0.74340  0.78910  0.06701  1.0000 -0.3211392905
C   C164      1.0  0.24340  0.71090  0.06701  1.0000 -0.3211392905
C   C165      1.0  0.76806  0.71210  0.04479  1.0000 0.288641713
C   C166      1.0  0.26806  0.78790  0.04479  1.0000 0.288641713
C   C167      1.0  0.81407  0.63960  0.06819  1.0000 -0.3326368873
C   C168      1.0  0.31407  0.86040  0.06819  1.0000 -0.3326368873
C   C169      1.0  0.72273  0.78940  0.15954  1.0000 0.5095449926
C   C170      1.0  0.22273  0.71060  0.15954  1.0000 0.5095449926
C   C171      1.0  0.69881  0.90200  0.18124  1.0000 0.0074593867
C   C172      1.0  0.19881  0.59800  0.18124  1.0000 0.0074593867
C   C173      1.0  0.68002  0.82270  0.20846  1.0000 -0.139294088
C   C174      1.0  0.18002  0.67730  0.20846  1.0000 -0.139294088
C   C175      1.0  0.65864  0.92500  0.22961  1.0000 0.0723228513
C   C176      1.0  0.15864  0.57500  0.22961  1.0000 0.0723228513
C   C177      1.0  0.67334  0.17090  0.19935  1.0000 0.0723228513
C   C178      1.0  0.17334  0.32910  0.19935  1.0000 0.0723228513
C   C179      1.0  0.69581  0.07880  0.17676  1.0000 -0.152616863
C   C180      1.0  0.19581  0.42120  0.17676  1.0000 -0.152616863
C   C181      1.0  0.76230  0.77340  0.97047  1.0000 0.5033495853
C   C182      1.0  0.26230  0.72660  0.97047  1.0000 0.5033495853
C   C183      1.0  0.72870  0.74900  0.92028  1.0000 0.0074593867
C   C184      1.0  0.22870  0.75100  0.92028  1.0000 0.0074593867
C   C185      1.0  0.74089  0.82720  0.88794  1.0000 -0.152616863
C   C186      1.0  0.24089  0.67280  0.88794  1.0000 -0.152616863
C   C187      1.0  0.70881  0.81210  0.84151  1.0000 0.0779552477
C   C188      1.0  0.20881  0.68790  0.84151  1.0000 0.0779552477
C   C189      1.0  0.65599  0.64680  0.85819  1.0000 0.0723228513
C   C190      1.0  0.15599  0.85320  0.85819  1.0000 0.0723228513
C   C191      1.0  0.68546  0.65820  0.90528  1.0000 -0.1581200474
C   C192      1.0  0.18546  0.84180  0.90528  1.0000 -0.1581200474
Br  Br1       1.0  0.88720  0.53138  0.26295  1.0000 -0.5482464974
Br  Br2       1.0  0.38720  0.96862  0.26295  1.0000 -0.5482464974
Br  Br3       1.0  0.39332  0.47585  0.76259  1.0000 -0.5482464974
Br  Br4       1.0  0.89332  0.02415  0.76259  1.0000 -0.5482464974
Br  Br5       1.0  0.61280  0.03138  0.73705  1.0000 -0.5482464974
Br  Br6       1.0  0.11280  0.46862  0.73705  1.0000 -0.5482464974
Br  Br7       1.0  0.10668  0.97585  0.23741  1.0000 -0.5482464974
Br  Br8       1.0  0.60668  0.52415  0.23741  1.0000 -0.5482464974
N   N1        1.0  0.94299  0.11460  0.27374  1.0000 -0.1901285433
N   N2        1.0  0.44299  0.38540  0.27374  1.0000 -0.1901285433
N   N3        1.0  0.33365  0.39870  0.26891  1.0000 -0.1989101601
N   N4        1.0  0.83365  0.10130  0.26891  1.0000 -0.1989101601
N   N5        1.0  0.33629  0.78950  0.67360  1.0000 -0.1989101601
N   N6        1.0  0.83629  0.71050  0.67360  1.0000 -0.1989101601
N   N7        1.0  0.44804  0.89220  0.76526  1.0000 -0.1901285433
N   N8        1.0  0.94804  0.60780  0.76526  1.0000 -0.1901285433
N   N9        1.0  0.84547  0.59590  0.77493  1.0000 -0.1901285433
N   N10       1.0  0.34547  0.90410  0.77493  1.0000 -0.1901285433
N   N11       1.0  0.83313  0.22300  0.17364  1.0000 -0.1989101601
N   N12       1.0  0.33313  0.27700  0.17364  1.0000 -0.1989101601
N   N13       1.0  0.55701  0.61460  0.72626  1.0000 -0.1901285433
N   N14       1.0  0.05701  0.88540  0.72626  1.0000 -0.1901285433
N   N15       1.0  0.16635  0.89870  0.73109  1.0000 -0.1989101601
N   N16       1.0  0.66635  0.60130  0.73109  1.0000 -0.1989101601
N   N17       1.0  0.16371  0.28950  0.32640  1.0000 -0.1989101601
N   N18       1.0  0.66371  0.21050  0.32640  1.0000 -0.1989101601
N   N19       1.0  0.05196  0.39220  0.23474  1.0000 -0.1901285433
N   N20       1.0  0.55196  0.10780  0.23474  1.0000 -0.1901285433
N   N21       1.0  0.65453  0.09590  0.22507  1.0000 -0.1901285433
N   N22       1.0  0.15453  0.40410  0.22507  1.0000 -0.1901285433
N   N23       1.0  0.66687  0.72300  0.82636  1.0000 -0.1989101601
N   N24       1.0  0.16687  0.77700  0.82636  1.0000 -0.1989101601
O   O1        1.0  0.11749  0.95310  0.36293  1.0000 -0.2406498289
O   O2        1.0  0.61749  0.54690  0.36293  1.0000 -0.2406498289
O   O3        1.0  0.08055  0.69550  0.34583  1.0000 -0.4384823563
O   O4        1.0  0.58055  0.80450  0.34583  1.0000 -0.4384823563
O   O5        1.0  0.25133  0.63080  0.36005  1.0000 -0.2528540395
O   O6        1.0  0.75133  0.86920  0.36005  1.0000 -0.2528540395
O   O7        1.0  0.26244  0.87230  0.32695  1.0000 -0.4331776058
O   O8        1.0  0.76244  0.62770  0.32695  1.0000 -0.4331776058
O   O9        1.0  0.25847  0.81790  0.50296  1.0000 -0.2528540395
O   O10       1.0  0.75847  0.68210  0.50296  1.0000 -0.255570249
O   O11       1.0  0.20141  0.67470  0.51531  1.0000 -0.4193323126
O   O12       1.0  0.70141  0.82530  0.51531  1.0000 -0.4193323126
O   O13       1.0  0.62015  0.06560  0.86066  1.0000 -0.2406498289
O   O14       1.0  0.12015  0.43440  0.86066  1.0000 -0.2406498289
O   O15       1.0  0.58543  0.31530  0.82546  1.0000 -0.4384823563
O   O16       1.0  0.08543  0.18470  0.82546  1.0000 -0.4384823563
O   O17       1.0  0.75698  0.38300  0.86276  1.0000 -0.255570249
O   O18       1.0  0.25698  0.11700  0.86276  1.0000 -0.255570249
O   O19       1.0  0.77604  0.13550  0.83845  1.0000 -0.4384823563
O   O20       1.0  0.27604  0.36450  0.83845  1.0000 -0.4331776058
O   O21       1.0  0.75708  0.19850  0.00331  1.0000 -0.255570249
O   O22       1.0  0.25708  0.30150  0.00331  1.0000 -0.255570249
O   O23       1.0  0.70024  0.34900  0.01465  1.0000 -0.4193323126
O   O24       1.0  0.20024  0.15100  0.01465  1.0000 -0.4193323126
O   O25       1.0  0.38251  0.45310  0.63707  1.0000 -0.2406498289
O   O26       1.0  0.88251  0.04690  0.63707  1.0000 -0.2406498289
O   O27       1.0  0.41945  0.19550  0.65417  1.0000 -0.4384823563
O   O28       1.0  0.91945  0.30450  0.65417  1.0000 -0.4384823563
O   O29       1.0  0.24867  0.13080  0.63995  1.0000 -0.2528540395
O   O30       1.0  0.74867  0.36920  0.63995  1.0000 -0.2528540395
O   O31       1.0  0.23756  0.37230  0.67305  1.0000 -0.4331776058
O   O32       1.0  0.73756  0.12770  0.67305  1.0000 -0.4331776058
O   O33       1.0  0.24153  0.31790  0.49704  1.0000 -0.255570249
O   O34       1.0  0.74153  0.18210  0.49704  1.0000 -0.255570249
O   O35       1.0  0.29859  0.17470  0.48469  1.0000 -0.4193323126
O   O36       1.0  0.79859  0.32530  0.48469  1.0000 -0.4193323126
O   O37       1.0  0.87985  0.56560  0.13934  1.0000 -0.2406498289
O   O38       1.0  0.37985  0.93440  0.13934  1.0000 -0.2406498289
O   O39       1.0  0.91457  0.81530  0.17454  1.0000 -0.4384823563
O   O40       1.0  0.41457  0.68470  0.17454  1.0000 -0.4384823563
O   O41       1.0  0.74302  0.88300  0.13724  1.0000 -0.255570249
O   O42       1.0  0.24302  0.61700  0.13724  1.0000 -0.255570249
O   O43       1.0  0.72396  0.63550  0.16155  1.0000 -0.4384823563
O   O44       1.0  0.22396  0.86450  0.16155  1.0000 -0.4384823563
O   O45       1.0  0.74292  0.69850  0.99669  1.0000 -0.2528540395
O   O46       1.0  0.24292  0.80150  0.99669  1.0000 -0.2528540395
O   O47       1.0  0.79976  0.84900  0.98535  1.0000 -0.4193323126
O   O48       1.0  0.29976  0.65100  0.98535  1.0000 -0.4193323126
