# DDEC6 charges by PACMAN v1.1 (https://github.com/mtap-research/PACMAN-charge/)
data_2016[La][nan]3[ASR]2
_chemical_formula_sum              "La4 H60 C108 O24"
_cell_length_a       22.4451
_cell_length_b       22.4451
_cell_length_c       13.9999
_cell_angle_alpha    79.4919
_cell_angle_beta     100.508
_cell_angle_gamma    141.913

_symmetry_space_group_name_H-M    "P 1"
_symmetry_Int_Tables_number       1

loop_
  _symmetry_equiv_pos_as_xyz
  'x, y, z'

loop_
  _atom_site_type_symbol
  _atom_site_label
  _atom_site_symmetry_multiplicity
  _atom_site_fract_x
  _atom_site_fract_y
  _atom_site_fract_z
  _atom_site_occupancy
  _atom_site_charge
La  La1       1.0  0.41500  0.01004  0.45679  1.0000 1.857761394
La  La2       1.0  0.01004  0.41500  0.04321  1.0000 1.857761394
La  La3       1.0  0.58500  0.98996  0.54321  1.0000 1.857761394
La  La4       1.0  0.98996  0.58500  0.95679  1.0000 1.857761394
H   H1        1.0  0.72470  0.19790  0.79690  1.0000 0.1368865778
H   H2        1.0  0.19790  0.72470  0.70310  1.0000 0.1368865778
H   H3        1.0  0.27530  0.80210  0.20310  1.0000 0.1368865778
H   H4        1.0  0.80210  0.27530  0.29690  1.0000 0.1368865778
H   H5        1.0  0.72850  0.35290  0.90860  1.0000 0.1207964797
H   H6        1.0  0.35290  0.72850  0.59140  1.0000 0.1207964797
H   H7        1.0  0.27150  0.64710  0.09140  1.0000 0.1207964797
H   H8        1.0  0.64710  0.27150  0.40860  1.0000 0.1207964797
H   H9        1.0  0.51920  0.16380  0.71070  1.0000 0.1207964797
H   H10       1.0  0.16380  0.51920  0.78930  1.0000 0.1207964797
H   H11       1.0  0.48080  0.83620  0.28930  1.0000 0.1207964797
H   H12       1.0  0.83620  0.48080  0.21070  1.0000 0.1207964797
H   H13       1.0  0.68260  0.41700  0.86030  1.0000 0.1207964797
H   H14       1.0  0.41700  0.68260  0.63970  1.0000 0.1207964797
H   H15       1.0  0.31740  0.58300  0.13970  1.0000 0.1207964797
H   H16       1.0  0.58300  0.31740  0.36030  1.0000 0.1207964797
H   H17       1.0  0.60290  0.44090  0.87640  1.0000 0.1092181511
H   H18       1.0  0.44090  0.60290  0.62360  1.0000 0.1092181511
H   H19       1.0  0.39710  0.55910  0.12360  1.0000 0.1092181511
H   H20       1.0  0.55910  0.39710  0.37640  1.0000 0.1092181511
H   H21       1.0  0.35070  0.17010  0.82000  1.0000 0.1092181511
H   H22       1.0  0.17010  0.35070  0.68000  1.0000 0.1092181511
H   H23       1.0  0.64930  0.82990  0.18000  1.0000 0.1092181511
H   H24       1.0  0.82990  0.64930  0.32000  1.0000 0.1092181511
H   H25       1.0  0.42730  0.14330  0.79970  1.0000 0.1207964797
H   H26       1.0  0.14330  0.42730  0.70030  1.0000 0.1207964797
H   H27       1.0  0.57270  0.85670  0.20030  1.0000 0.1207964797
H   H28       1.0  0.85670  0.57270  0.29970  1.0000 0.1207964797
H   H29       1.0  0.53510  0.46790  0.87890  1.0000 0.1092181511
H   H30       1.0  0.46790  0.53510  0.62110  1.0000 0.1092181511
H   H31       1.0  0.46490  0.53210  0.12110  1.0000 0.1092181511
H   H32       1.0  0.53210  0.46490  0.37890  1.0000 0.1092181511
H   H33       1.0  0.45520  0.49120  0.90410  1.0000 0.1092181511
H   H34       1.0  0.49120  0.45520  0.59590  1.0000 0.1092181511
H   H35       1.0  0.54480  0.50880  0.09590  1.0000 0.1092181511
H   H36       1.0  0.50880  0.54480  0.40410  1.0000 0.1092181511
H   H37       1.0  0.20040  0.20640  0.88520  1.0000 0.1092181511
H   H38       1.0  0.20640  0.20040  0.61480  1.0000 0.1092181511
H   H39       1.0  0.79960  0.79360  0.11480  1.0000 0.1092181511
H   H40       1.0  0.79360  0.79960  0.38520  1.0000 0.1092181511
H   H41       1.0  0.28030  0.18310  0.86000  1.0000 0.1092181511
H   H42       1.0  0.18310  0.28030  0.64000  1.0000 0.1092181511
H   H43       1.0  0.71970  0.81690  0.14000  1.0000 0.1092181511
H   H44       1.0  0.81690  0.71970  0.36000  1.0000 0.1092181511
H   H45       1.0  0.38200  0.51360  0.91050  1.0000 0.1092181511
H   H46       1.0  0.51360  0.38200  0.58950  1.0000 0.1092181511
H   H47       1.0  0.61800  0.48640  0.08950  1.0000 0.1092181511
H   H48       1.0  0.48640  0.61800  0.41050  1.0000 0.1092181511
H   H49       1.0  0.30330  0.53310  0.94680  1.0000 0.1207964797
H   H50       1.0  0.53310  0.30330  0.55320  1.0000 0.1207964797
H   H51       1.0  0.69670  0.46690  0.05320  1.0000 0.1207964797
H   H52       1.0  0.46690  0.69670  0.44680  1.0000 0.1207964797
H   H53       1.0  0.05460  0.24620  0.95040  1.0000 0.1207964797
H   H54       1.0  0.24620  0.05460  0.54960  1.0000 0.1207964797
H   H55       1.0  0.94540  0.75380  0.04960  1.0000 0.1207964797
H   H56       1.0  0.75380  0.94540  0.45040  1.0000 0.1207964797
H   H57       1.0  0.13510  0.22650  0.92300  1.0000 0.1092181511
H   H58       1.0  0.22650  0.13510  0.57700  1.0000 0.1092181511
H   H59       1.0  0.86490  0.77350  0.07700  1.0000 0.1092181511
H   H60       1.0  0.77350  0.86490  0.42300  1.0000 0.1092181511
C   C1        1.0  0.56801  0.09599  0.67071  1.0000 0.6206308415
C   C2        1.0  0.09599  0.56801  0.82929  1.0000 0.6206308415
C   C3        1.0  0.43199  0.90401  0.32929  1.0000 0.6206308415
C   C4        1.0  0.90401  0.43199  0.17071  1.0000 0.6206308415
C   C5        1.0  0.61509  0.16951  0.74169  1.0000 -0.0149180258
C   C6        1.0  0.16951  0.61509  0.75831  1.0000 -0.0149180258
C   C7        1.0  0.38491  0.83049  0.25831  1.0000 -0.0149180258
C   C8        1.0  0.83049  0.38491  0.24169  1.0000 -0.0149180258
C   C9        1.0  0.69807  0.21453  0.79937  1.0000 -0.091604926
C   C10       1.0  0.21453  0.69807  0.70063  1.0000 -0.091604926
C   C11       1.0  0.30193  0.78547  0.20063  1.0000 -0.091604926
C   C12       1.0  0.78547  0.30193  0.29937  1.0000 -0.091604926
C   C13       1.0  0.74069  0.28331  0.85969  1.0000 -0.0200315867
C   C14       1.0  0.28331  0.74069  0.64031  1.0000 -0.0200315867
C   C15       1.0  0.25931  0.71669  0.14031  1.0000 -0.0200315867
C   C16       1.0  0.71669  0.25931  0.35969  1.0000 -0.0200315867
C   C17       1.0  0.69834  0.30546  0.86784  1.0000 -0.1499156461
C   C18       1.0  0.30546  0.69834  0.63216  1.0000 -0.1499156461
C   C19       1.0  0.30166  0.69454  0.13216  1.0000 -0.1499156461
C   C20       1.0  0.69454  0.30166  0.36784  1.0000 -0.1499156461
C   C21       1.0  0.61301  0.25799  0.81641  1.0000 0.0614989832
C   C22       1.0  0.25799  0.61301  0.68359  1.0000 0.0614989832
C   C23       1.0  0.38699  0.74201  0.18359  1.0000 0.0614989832
C   C24       1.0  0.74201  0.38699  0.31641  1.0000 0.0614989832
C   C25       1.0  0.57397  0.19263  0.75017  1.0000 -0.142025232
C   C26       1.0  0.19263  0.57397  0.74983  1.0000 -0.1499156461
C   C27       1.0  0.42603  0.80737  0.24983  1.0000 -0.142025232
C   C28       1.0  0.80737  0.42603  0.25017  1.0000 -0.142025232
C   C29       1.0  0.83197  0.33303  0.92107  1.0000 0.6083277127
C   C30       1.0  0.33303  0.83197  0.57893  1.0000 0.6083277127
C   C31       1.0  0.16803  0.66697  0.07893  1.0000 0.6083277127
C   C32       1.0  0.66697  0.16803  0.42107  1.0000 0.6083277127
C   C33       1.0  0.56375  0.27605  0.82755  1.0000 0.0710513055
C   C34       1.0  0.27605  0.56375  0.67245  1.0000 0.0710513055
C   C35       1.0  0.43625  0.72395  0.17245  1.0000 0.0710513055
C   C36       1.0  0.72395  0.43625  0.32755  1.0000 0.0710513055
C   C37       1.0  0.61541  0.36619  0.85151  1.0000 -0.1339583883
C   C38       1.0  0.36619  0.61541  0.64849  1.0000 -0.1339583883
C   C39       1.0  0.38459  0.63381  0.14849  1.0000 -0.1339583883
C   C40       1.0  0.63381  0.38459  0.35151  1.0000 -0.1339583883
C   C41       1.0  0.56661  0.37979  0.86221  1.0000 -0.1570818899
C   C42       1.0  0.37979  0.56661  0.63779  1.0000 -0.1570818899
C   C43       1.0  0.43339  0.62021  0.13779  1.0000 -0.1570818899
C   C44       1.0  0.62021  0.43339  0.36221  1.0000 -0.1570818899
C   C45       1.0  0.46745  0.30795  0.85285  1.0000 0.0614989832
C   C46       1.0  0.30795  0.46745  0.64715  1.0000 0.0614989832
C   C47       1.0  0.53255  0.69205  0.14715  1.0000 0.0614989832
C   C48       1.0  0.69205  0.53255  0.35285  1.0000 0.0614989832
C   C49       1.0  0.41791  0.22049  0.82851  1.0000 -0.1570818899
C   C50       1.0  0.22049  0.41791  0.67149  1.0000 -0.1570818899
C   C51       1.0  0.58209  0.77951  0.17149  1.0000 -0.1570818899
C   C52       1.0  0.77951  0.58209  0.32851  1.0000 -0.1570818899
C   C53       1.0  0.46417  0.20403  0.81607  1.0000 -0.142025232
C   C54       1.0  0.20403  0.46417  0.68393  1.0000 -0.142025232
C   C55       1.0  0.53583  0.79597  0.18393  1.0000 -0.142025232
C   C56       1.0  0.79597  0.53583  0.31607  1.0000 -0.142025232
C   C57       1.0  0.41560  0.32320  0.86690  1.0000 0.0710513055
C   C58       1.0  0.32320  0.41560  0.63310  1.0000 0.0710513055
C   C59       1.0  0.58440  0.67680  0.13310  1.0000 0.0710513055
C   C60       1.0  0.67680  0.58440  0.36690  1.0000 0.0710513055
C   C61       1.0  0.46797  0.41543  0.88017  1.0000 -0.1499156461
C   C62       1.0  0.41543  0.46797  0.61983  1.0000 -0.1499156461
C   C63       1.0  0.53203  0.58457  0.11983  1.0000 -0.1499156461
C   C64       1.0  0.58457  0.53203  0.38017  1.0000 -0.1499156461
C   C65       1.0  0.42018  0.42942  0.89528  1.0000 -0.1499156461
C   C66       1.0  0.42942  0.42018  0.60472  1.0000 -0.1499156461
C   C67       1.0  0.57982  0.57058  0.10472  1.0000 -0.1499156461
C   C68       1.0  0.57058  0.57982  0.39528  1.0000 -0.1499156461
C   C69       1.0  0.31991  0.35109  0.89711  1.0000 0.0614989832
C   C70       1.0  0.35109  0.31991  0.60289  1.0000 0.0614989832
C   C71       1.0  0.68009  0.64891  0.10289  1.0000 0.0614989832
C   C72       1.0  0.64891  0.68009  0.39711  1.0000 0.0614989832
C   C73       1.0  0.26753  0.25887  0.88393  1.0000 -0.1499156461
C   C74       1.0  0.25887  0.26753  0.61607  1.0000 -0.1499156461
C   C75       1.0  0.73247  0.74113  0.11607  1.0000 -0.1499156461
C   C76       1.0  0.74113  0.73247  0.38393  1.0000 -0.1499156461
C   C77       1.0  0.31533  0.24487  0.86883  1.0000 -0.1499156461
C   C78       1.0  0.24487  0.31533  0.63117  1.0000 -0.1499156461
C   C79       1.0  0.68467  0.75513  0.13117  1.0000 -0.1499156461
C   C80       1.0  0.75513  0.68467  0.36883  1.0000 -0.1499156461
C   C81       1.0  0.26822  0.36678  0.91712  1.0000 0.0710513055
C   C82       1.0  0.36678  0.26822  0.58288  1.0000 0.0710513055
C   C83       1.0  0.73178  0.63322  0.08288  1.0000 0.0710513055
C   C84       1.0  0.63322  0.73178  0.41712  1.0000 0.0710513055
C   C85       1.0  0.31654  0.45926  0.92184  1.0000 -0.1570818899
C   C86       1.0  0.45926  0.31654  0.57816  1.0000 -0.1570818899
C   C87       1.0  0.68346  0.54074  0.07816  1.0000 -0.1570818899
C   C88       1.0  0.54074  0.68346  0.42184  1.0000 -0.1570818899
C   C89       1.0  0.26943  0.47117  0.94283  1.0000 -0.097559023
C   C90       1.0  0.47117  0.26943  0.55717  1.0000 -0.097559023
C   C91       1.0  0.73057  0.52883  0.05717  1.0000 -0.097559023
C   C92       1.0  0.52883  0.73057  0.44283  1.0000 -0.097559023
C   C93       1.0  0.17191  0.39189  0.95821  1.0000 -0.0259843713
C   C94       1.0  0.39189  0.17191  0.54179  1.0000 -0.0259843713
C   C95       1.0  0.82809  0.60811  0.04179  1.0000 -0.0259843713
C   C96       1.0  0.60811  0.82809  0.45821  1.0000 -0.0259843713
C   C97       1.0  0.12130  0.29990  0.94610  1.0000 -0.097559023
C   C98       1.0  0.29990  0.12130  0.55390  1.0000 -0.097559023
C   C99       1.0  0.87870  0.70010  0.05390  1.0000 -0.097559023
C   C100      1.0  0.70010  0.87870  0.44610  1.0000 -0.097559023
C   C101      1.0  0.16943  0.28857  0.92813  1.0000 -0.1499156461
C   C102      1.0  0.28857  0.16943  0.57187  1.0000 -0.1499156461
C   C103      1.0  0.83057  0.71143  0.07187  1.0000 -0.1499156461
C   C104      1.0  0.71143  0.83057  0.42813  1.0000 -0.1499156461
C   C105      1.0  0.11927  0.40173  0.98827  1.0000 0.5567126533
C   C106      1.0  0.40173  0.11927  0.51173  1.0000 0.5567126533
C   C107      1.0  0.88073  0.59827  0.01173  1.0000 0.5567126533
C   C108      1.0  0.59827  0.88073  0.48827  1.0000 0.5567126533
O   O1        1.0  0.49078  0.05582  0.62378  1.0000 -0.6200543235
O   O2        1.0  0.05582  0.49078  0.87622  1.0000 -0.6200543235
O   O3        1.0  0.50922  0.94418  0.37622  1.0000 -0.6200543235
O   O4        1.0  0.94418  0.50922  0.12378  1.0000 -0.6200543235
O   O5        1.0  0.60845  0.08015  0.66215  1.0000 -0.6117018501
O   O6        1.0  0.08015  0.60845  0.83785  1.0000 -0.6117018501
O   O7        1.0  0.39155  0.91985  0.33785  1.0000 -0.6117018501
O   O8        1.0  0.91985  0.39155  0.16215  1.0000 -0.6117018501
O   O9        1.0  0.85060  0.29200  0.93870  1.0000 -0.5557273517
O   O10       1.0  0.29200  0.85060  0.56130  1.0000 -0.5557273517
O   O11       1.0  0.14940  0.70800  0.06130  1.0000 -0.5557273517
O   O12       1.0  0.70800  0.14940  0.43870  1.0000 -0.5557273517
O   O13       1.0  0.88695  0.41405  0.95215  1.0000 -0.6721108744
O   O14       1.0  0.41405  0.88695  0.54785  1.0000 -0.6721108744
O   O15       1.0  0.11305  0.58595  0.04785  1.0000 -0.6721108744
O   O16       1.0  0.58595  0.11305  0.45215  1.0000 -0.6721108744
O   O17       1.0  0.16628  0.48092  0.01678  1.0000 -0.5995845387
O   O18       1.0  0.48092  0.16628  0.48322  1.0000 -0.5995845387
O   O19       1.0  0.83372  0.51908  0.98322  1.0000 -0.5995845387
O   O20       1.0  0.51908  0.83372  0.51678  1.0000 -0.5995845387
O   O21       1.0  0.02874  0.33186  0.98154  1.0000 -0.5789372364
O   O22       1.0  0.33186  0.02874  0.51846  1.0000 -0.5789372364
O   O23       1.0  0.97126  0.66814  0.01846  1.0000 -0.5789372364
O   O24       1.0  0.66814  0.97126  0.48154  1.0000 -0.5789372364
