# DDEC6 charges by PACMAN v1.1 (https://github.com/mtap-research/PACMAN-charge/)
data_2016[Cu][pts]3[ASR]1
_chemical_formula_sum              "Cu4 H44 C80 O16"
_cell_length_a       15.9399
_cell_length_b       15.9399
_cell_length_c       30.167
_cell_angle_alpha    90
_cell_angle_beta     90
_cell_angle_gamma    131.424

_symmetry_space_group_name_H-M    "P 1"
_symmetry_Int_Tables_number       1

loop_
  _symmetry_equiv_pos_as_xyz
  'x, y, z'

loop_
  _atom_site_type_symbol
  _atom_site_label
  _atom_site_symmetry_multiplicity
  _atom_site_fract_x
  _atom_site_fract_y
  _atom_site_fract_z
  _atom_site_occupancy
  _atom_site_charge
Cu  Cu1       1.0  0.10864  0.55802  0.00000  1.0000 0.8570522343
Cu  Cu2       1.0  0.89136  0.44198  0.00000  1.0000 0.8570522343
Cu  Cu3       1.0  0.55802  0.10864  0.50000  1.0000 0.8570522343
Cu  Cu4       1.0  0.44198  0.89136  0.50000  1.0000 0.8570522343
H   H1        1.0  0.89600  0.73280  0.15720  1.0000 0.1152611574
H   H2        1.0  0.10400  0.26720  0.15720  1.0000 0.1152611574
H   H3        1.0  0.73280  0.89600  0.34280  1.0000 0.1152611574
H   H4        1.0  0.26720  0.10400  0.34280  1.0000 0.1152611574
H   H5        1.0  0.10400  0.26720  0.84280  1.0000 0.1152611574
H   H6        1.0  0.89600  0.73280  0.84280  1.0000 0.1152611574
H   H7        1.0  0.26720  0.10400  0.65720  1.0000 0.1152611574
H   H8        1.0  0.73280  0.89600  0.65720  1.0000 0.1152611574
H   H9        1.0  0.98100  0.91340  0.18740  1.0000 0.1152611574
H   H10       1.0  0.01900  0.08660  0.18740  1.0000 0.113847936
H   H11       1.0  0.91340  0.98100  0.31260  1.0000 0.1152611574
H   H12       1.0  0.08660  0.01900  0.31260  1.0000 0.1152611574
H   H13       1.0  0.01900  0.08660  0.81260  1.0000 0.113847936
H   H14       1.0  0.98100  0.91340  0.81260  1.0000 0.1152611574
H   H15       1.0  0.08660  0.01900  0.68740  1.0000 0.1152611574
H   H16       1.0  0.91340  0.98100  0.68740  1.0000 0.1152611574
H   H17       1.0  0.21040  0.86180  0.17500  1.0000 0.113847936
H   H18       1.0  0.78960  0.13820  0.17500  1.0000 0.113847936
H   H19       1.0  0.86180  0.21040  0.32500  1.0000 0.113847936
H   H20       1.0  0.13820  0.78960  0.32500  1.0000 0.113847936
H   H21       1.0  0.78960  0.13820  0.82500  1.0000 0.113847936
H   H22       1.0  0.21040  0.86180  0.82500  1.0000 0.113847936
H   H23       1.0  0.13820  0.78960  0.67500  1.0000 0.113847936
H   H24       1.0  0.86180  0.21040  0.67500  1.0000 0.113847936
H   H25       1.0  0.87810  0.63210  0.09640  1.0000 0.1321232247
H   H26       1.0  0.12190  0.36790  0.09640  1.0000 0.1321232247
H   H27       1.0  0.63210  0.87810  0.40360  1.0000 0.1321232247
H   H28       1.0  0.36790  0.12190  0.40360  1.0000 0.1321232247
H   H29       1.0  0.12190  0.36790  0.90360  1.0000 0.1321232247
H   H30       1.0  0.87810  0.63210  0.90360  1.0000 0.1321232247
H   H31       1.0  0.36790  0.12190  0.59640  1.0000 0.1321232247
H   H32       1.0  0.63210  0.87810  0.59640  1.0000 0.1321232247
H   H33       1.0  0.19450  0.76750  0.11280  1.0000 0.1321232247
H   H34       1.0  0.80550  0.23250  0.11280  1.0000 0.1321232247
H   H35       1.0  0.76750  0.19450  0.38720  1.0000 0.1321232247
H   H36       1.0  0.23250  0.80550  0.38720  1.0000 0.1321232247
H   H37       1.0  0.80550  0.23250  0.88720  1.0000 0.1321232247
H   H38       1.0  0.19450  0.76750  0.88720  1.0000 0.1321232247
H   H39       1.0  0.23250  0.80550  0.61280  1.0000 0.1321232247
H   H40       1.0  0.76750  0.19450  0.61280  1.0000 0.1321232247
H   H41       1.0  0.15310  0.84690  0.25000  1.0000 0.113847936
H   H42       1.0  0.84690  0.15310  0.25000  1.0000 0.113847936
H   H43       1.0  0.84690  0.15310  0.75000  1.0000 0.113847936
H   H44       1.0  0.15310  0.84690  0.75000  1.0000 0.113847936
C   C1        1.0  0.02296  0.62264  0.06056  1.0000 0.5765002196
C   C2        1.0  0.97704  0.37736  0.06056  1.0000 0.5765002196
C   C3        1.0  0.62264  0.02296  0.43944  1.0000 0.5765002196
C   C4        1.0  0.37736  0.97704  0.43944  1.0000 0.5765002196
C   C5        1.0  0.97704  0.37736  0.93944  1.0000 0.5765002196
C   C6        1.0  0.02296  0.62264  0.93944  1.0000 0.5765002196
C   C7        1.0  0.37736  0.97704  0.56056  1.0000 0.5765002196
C   C8        1.0  0.62264  0.02296  0.56056  1.0000 0.5765002196
C   C9        1.0  0.02560  0.97440  0.25000  1.0000 0.0809074696
C   C10       1.0  0.97440  0.02560  0.25000  1.0000 0.0809074696
C   C11       1.0  0.97440  0.02560  0.75000  1.0000 0.0809074696
C   C12       1.0  0.02560  0.97440  0.75000  1.0000 0.0809074696
C   C13       1.0  0.05572  0.80908  0.17247  1.0000 0.0693852877
C   C14       1.0  0.94428  0.19092  0.17247  1.0000 0.0693852877
C   C15       1.0  0.80908  0.05572  0.32753  1.0000 0.0693852877
C   C16       1.0  0.19092  0.94428  0.32753  1.0000 0.0693852877
C   C17       1.0  0.94428  0.19092  0.82753  1.0000 0.0693852877
C   C18       1.0  0.05572  0.80908  0.82753  1.0000 0.0693852877
C   C19       1.0  0.19092  0.94428  0.67247  1.0000 0.0693852877
C   C20       1.0  0.80908  0.05572  0.67247  1.0000 0.0693852877
C   C21       1.0  0.03669  0.69091  0.09879  1.0000 -0.0357585202
C   C22       1.0  0.96331  0.30909  0.09879  1.0000 -0.0337990001
C   C23       1.0  0.69091  0.03669  0.40121  1.0000 -0.0337990001
C   C24       1.0  0.30909  0.96331  0.40121  1.0000 -0.0337990001
C   C25       1.0  0.96331  0.30909  0.90121  1.0000 -0.0337990001
C   C26       1.0  0.03669  0.69091  0.90121  1.0000 -0.0357585202
C   C27       1.0  0.30909  0.96331  0.59879  1.0000 -0.0337990001
C   C28       1.0  0.69091  0.03669  0.59879  1.0000 -0.0337990001
C   C29       1.0  0.95618  0.73942  0.14859  1.0000 -0.1589899498
C   C30       1.0  0.04382  0.26058  0.14859  1.0000 -0.1589899498
C   C31       1.0  0.73942  0.95618  0.35141  1.0000 -0.1589899498
C   C32       1.0  0.26058  0.04382  0.35141  1.0000 -0.1589899498
C   C33       1.0  0.04382  0.26058  0.85141  1.0000 -0.1589899498
C   C34       1.0  0.95618  0.73942  0.85141  1.0000 -0.1589899498
C   C35       1.0  0.26058  0.04382  0.64859  1.0000 -0.1589899498
C   C36       1.0  0.73942  0.95618  0.64859  1.0000 -0.1589899498
C   C37       1.0  0.01784  0.91836  0.21248  1.0000 -0.2097385402
C   C38       1.0  0.98216  0.08164  0.21248  1.0000 -0.2097385402
C   C39       1.0  0.91836  0.01784  0.28752  1.0000 -0.2097385402
C   C40       1.0  0.08164  0.98216  0.28752  1.0000 -0.2097385402
C   C41       1.0  0.98216  0.08164  0.78752  1.0000 -0.2097385402
C   C42       1.0  0.01784  0.91836  0.78752  1.0000 -0.2097385402
C   C43       1.0  0.08164  0.98216  0.71248  1.0000 -0.2097385402
C   C44       1.0  0.91836  0.01784  0.71248  1.0000 -0.2097385402
C   C45       1.0  0.14376  0.81724  0.15907  1.0000 -0.1528645183
C   C46       1.0  0.85624  0.18276  0.15907  1.0000 -0.1528645183
C   C47       1.0  0.81724  0.14376  0.34093  1.0000 -0.1528645183
C   C48       1.0  0.18276  0.85624  0.34093  1.0000 -0.1528645183
C   C49       1.0  0.85624  0.18276  0.84093  1.0000 -0.1528645183
C   C50       1.0  0.14376  0.81724  0.84093  1.0000 -0.1528645183
C   C51       1.0  0.18276  0.85624  0.65907  1.0000 -0.1528645183
C   C52       1.0  0.81724  0.14376  0.65907  1.0000 -0.1528645183
C   C53       1.0  0.94530  0.67930  0.11189  1.0000 -0.0834439186
C   C54       1.0  0.05470  0.32070  0.11189  1.0000 -0.0834439186
C   C55       1.0  0.67930  0.94530  0.38811  1.0000 -0.0874066653
C   C56       1.0  0.32070  0.05470  0.38811  1.0000 -0.0834439186
C   C57       1.0  0.05470  0.32070  0.88811  1.0000 -0.0834439186
C   C58       1.0  0.94530  0.67930  0.88811  1.0000 -0.0834439186
C   C59       1.0  0.32070  0.05470  0.61189  1.0000 -0.0834439186
C   C60       1.0  0.67930  0.94530  0.61189  1.0000 -0.0874066653
C   C61       1.0  0.06550  0.86950  0.21248  1.0000 0.0809074696
C   C62       1.0  0.93450  0.13050  0.21248  1.0000 0.0809074696
C   C63       1.0  0.86950  0.06550  0.28752  1.0000 0.0809074696
C   C64       1.0  0.13050  0.93450  0.28752  1.0000 0.0809074696
C   C65       1.0  0.93450  0.13050  0.78752  1.0000 0.0809074696
C   C66       1.0  0.06550  0.86950  0.78752  1.0000 0.0809074696
C   C67       1.0  0.13050  0.93450  0.71248  1.0000 0.0809074696
C   C68       1.0  0.86950  0.06550  0.71248  1.0000 0.0809074696
C   C69       1.0  0.13364  0.75916  0.12187  1.0000 -0.0874066653
C   C70       1.0  0.86636  0.24084  0.12187  1.0000 -0.0874066653
C   C71       1.0  0.75916  0.13364  0.37813  1.0000 -0.0874066653
C   C72       1.0  0.24084  0.86636  0.37813  1.0000 -0.0874066653
C   C73       1.0  0.86636  0.24084  0.87813  1.0000 -0.0874066653
C   C74       1.0  0.13364  0.75916  0.87813  1.0000 -0.0874066653
C   C75       1.0  0.24084  0.86636  0.62187  1.0000 -0.0874066653
C   C76       1.0  0.75916  0.13364  0.62187  1.0000 -0.0874066653
C   C77       1.0  0.12114  0.87886  0.25000  1.0000 -0.1974360372
C   C78       1.0  0.87886  0.12114  0.25000  1.0000 -0.1974360372
C   C79       1.0  0.87886  0.12114  0.75000  1.0000 -0.1974360372
C   C80       1.0  0.12114  0.87886  0.75000  1.0000 -0.1974360372
O   O1        1.0  0.11076  0.64564  0.04636  1.0000 -0.5215916659
O   O2        1.0  0.88924  0.35436  0.04636  1.0000 -0.5215916659
O   O3        1.0  0.64564  0.11076  0.45364  1.0000 -0.5215916659
O   O4        1.0  0.35436  0.88924  0.45364  1.0000 -0.5215916659
O   O5        1.0  0.88924  0.35436  0.95364  1.0000 -0.5215916659
O   O6        1.0  0.11076  0.64564  0.95364  1.0000 -0.5215916659
O   O7        1.0  0.35436  0.88924  0.54636  1.0000 -0.5215916659
O   O8        1.0  0.64564  0.11076  0.54636  1.0000 -0.5215916659
O   O9        1.0  0.92604  0.54776  0.04573  1.0000 -0.5129273484
O   O10       1.0  0.07396  0.45224  0.04573  1.0000 -0.5129273484
O   O11       1.0  0.54776  0.92604  0.45427  1.0000 -0.5129273484
O   O12       1.0  0.45224  0.07396  0.45427  1.0000 -0.5129273484
O   O13       1.0  0.07396  0.45224  0.95427  1.0000 -0.5129273484
O   O14       1.0  0.92604  0.54776  0.95427  1.0000 -0.5129273484
O   O15       1.0  0.45224  0.07396  0.54573  1.0000 -0.5129273484
O   O16       1.0  0.54776  0.92604  0.54573  1.0000 -0.5129273484
