# DDEC6 charges by PACMAN v1.1 (https://github.com/mtap-research/PACMAN-charge/)
data_2016[Cu][tbo]3[ASR]5
_chemical_formula_sum              "Cu12 H24 C72 O48"
_cell_length_a       18.7001
_cell_length_b       18.7001
_cell_length_c       18.7001
_cell_angle_alpha    60
_cell_angle_beta     60
_cell_angle_gamma    60

_symmetry_space_group_name_H-M    "P 1"
_symmetry_Int_Tables_number       1

loop_
  _symmetry_equiv_pos_as_xyz
  'x, y, z'

loop_
  _atom_site_type_symbol
  _atom_site_label
  _atom_site_symmetry_multiplicity
  _atom_site_fract_x
  _atom_site_fract_y
  _atom_site_fract_z
  _atom_site_occupancy
  _atom_site_charge
Cu  Cu1       1.0  0.00000  0.42852  0.00000  1.0000 0.8666808849
Cu  Cu2       1.0  0.42852  0.00000  0.57148  1.0000 0.8666808849
Cu  Cu3       1.0  0.00000  0.57148  0.00000  1.0000 0.8666808849
Cu  Cu4       1.0  0.57148  0.00000  0.42852  1.0000 0.8666808849
Cu  Cu5       1.0  0.00000  0.00000  0.42852  1.0000 0.8666808849
Cu  Cu6       1.0  0.57148  0.42852  0.00000  1.0000 0.8666808849
Cu  Cu7       1.0  0.00000  0.00000  0.57148  1.0000 0.8666808849
Cu  Cu8       1.0  0.42852  0.57148  0.00000  1.0000 0.8666808849
Cu  Cu9       1.0  0.42852  0.00000  0.00000  1.0000 0.8666808849
Cu  Cu10      1.0  0.00000  0.57148  0.42852  1.0000 0.8666808849
Cu  Cu11      1.0  0.57148  0.00000  0.00000  1.0000 0.8666808849
Cu  Cu12      1.0  0.00000  0.42852  0.57148  1.0000 0.8666808849
H   H1        1.0  0.27210  0.48670  0.96910  1.0000 0.1360775128
H   H2        1.0  0.48670  0.27210  0.27210  1.0000 0.1360775128
H   H3        1.0  0.96910  0.27210  0.27210  1.0000 0.1360775128
H   H4        1.0  0.27210  0.96910  0.48670  1.0000 0.1360775128
H   H5        1.0  0.96910  0.27210  0.48670  1.0000 0.1360775128
H   H6        1.0  0.27210  0.48670  0.27210  1.0000 0.1360775128
H   H7        1.0  0.27210  0.96910  0.27210  1.0000 0.1360775128
H   H8        1.0  0.48670  0.27210  0.96910  1.0000 0.1360775128
H   H9        1.0  0.48670  0.96910  0.27210  1.0000 0.1360775128
H   H10       1.0  0.27210  0.27210  0.48670  1.0000 0.1360775128
H   H11       1.0  0.27210  0.27210  0.96910  1.0000 0.1360775128
H   H12       1.0  0.96910  0.48670  0.27210  1.0000 0.1360775128
H   H13       1.0  0.72790  0.51330  0.72790  1.0000 0.1360775128
H   H14       1.0  0.51330  0.72790  0.03090  1.0000 0.1360775128
H   H15       1.0  0.03090  0.72790  0.51330  1.0000 0.1360775128
H   H16       1.0  0.72790  0.03090  0.72790  1.0000 0.1360775128
H   H17       1.0  0.03090  0.72790  0.72790  1.0000 0.1360775128
H   H18       1.0  0.72790  0.51330  0.03090  1.0000 0.1360775128
H   H19       1.0  0.72790  0.03090  0.51330  1.0000 0.1360775128
H   H20       1.0  0.51330  0.72790  0.72790  1.0000 0.1360775128
H   H21       1.0  0.51330  0.03090  0.72790  1.0000 0.1360775128
H   H22       1.0  0.72790  0.72790  0.03090  1.0000 0.1360775128
H   H23       1.0  0.72790  0.72790  0.51330  1.0000 0.1360775128
H   H24       1.0  0.03090  0.51330  0.72790  1.0000 0.1360775128
C   C1        1.0  0.16271  0.43053  0.97623  1.0000 0.5888423368
C   C2        1.0  0.43053  0.16271  0.43053  1.0000 0.5888423368
C   C3        1.0  0.97623  0.43053  0.16271  1.0000 0.5888423368
C   C4        1.0  0.43053  0.97623  0.43053  1.0000 0.5888423368
C   C5        1.0  0.97623  0.16271  0.43053  1.0000 0.5888423368
C   C6        1.0  0.43053  0.43053  0.16271  1.0000 0.5888423368
C   C7        1.0  0.16271  0.97623  0.43053  1.0000 0.5888423368
C   C8        1.0  0.43053  0.43053  0.97623  1.0000 0.5888423368
C   C9        1.0  0.43053  0.97623  0.16271  1.0000 0.5888423368
C   C10       1.0  0.16271  0.43053  0.43053  1.0000 0.5888423368
C   C11       1.0  0.43053  0.16271  0.97623  1.0000 0.5888423368
C   C12       1.0  0.97623  0.43053  0.43053  1.0000 0.5888423368
C   C13       1.0  0.83729  0.56947  0.56947  1.0000 0.5888423368
C   C14       1.0  0.56947  0.83729  0.02377  1.0000 0.5888423368
C   C15       1.0  0.02377  0.56947  0.56947  1.0000 0.5888423368
C   C16       1.0  0.56947  0.02377  0.83729  1.0000 0.5888423368
C   C17       1.0  0.02377  0.83729  0.56947  1.0000 0.5888423368
C   C18       1.0  0.56947  0.56947  0.02377  1.0000 0.5888423368
C   C19       1.0  0.83729  0.02377  0.56947  1.0000 0.5888423368
C   C20       1.0  0.56947  0.56947  0.83729  1.0000 0.5888423368
C   C21       1.0  0.56947  0.02377  0.56947  1.0000 0.5888423368
C   C22       1.0  0.83729  0.56947  0.02377  1.0000 0.5888423368
C   C23       1.0  0.56947  0.83729  0.56947  1.0000 0.5888423368
C   C24       1.0  0.02377  0.56947  0.83729  1.0000 0.5888423368
C   C25       1.0  0.25730  0.38626  0.97018  1.0000 -0.0309106694
C   C26       1.0  0.38626  0.25730  0.38626  1.0000 -0.0309106694
C   C27       1.0  0.97018  0.38626  0.25730  1.0000 -0.0309106694
C   C28       1.0  0.38626  0.97018  0.38626  1.0000 -0.0309106694
C   C29       1.0  0.97018  0.25730  0.38626  1.0000 -0.0309106694
C   C30       1.0  0.38626  0.38626  0.25730  1.0000 -0.0309106694
C   C31       1.0  0.25730  0.97018  0.38626  1.0000 -0.0309106694
C   C32       1.0  0.38626  0.38626  0.97018  1.0000 -0.0309106694
C   C33       1.0  0.38626  0.97018  0.25730  1.0000 -0.0309106694
C   C34       1.0  0.25730  0.38626  0.38626  1.0000 -0.0309106694
C   C35       1.0  0.38626  0.25730  0.97018  1.0000 -0.0309106694
C   C36       1.0  0.97018  0.38626  0.38626  1.0000 -0.0309106694
C   C37       1.0  0.74270  0.61374  0.61374  1.0000 -0.0309106694
C   C38       1.0  0.61374  0.74270  0.02982  1.0000 -0.0309106694
C   C39       1.0  0.02982  0.61374  0.61374  1.0000 -0.0309106694
C   C40       1.0  0.61374  0.02982  0.74270  1.0000 -0.0309106694
C   C41       1.0  0.02982  0.74270  0.61374  1.0000 -0.0309106694
C   C42       1.0  0.61374  0.61374  0.02982  1.0000 -0.0309106694
C   C43       1.0  0.74270  0.02982  0.61374  1.0000 -0.0309106694
C   C44       1.0  0.61374  0.61374  0.74270  1.0000 -0.0309106694
C   C45       1.0  0.61374  0.02982  0.61374  1.0000 -0.0309106694
C   C46       1.0  0.74270  0.61374  0.02982  1.0000 -0.0309106694
C   C47       1.0  0.61374  0.74270  0.61374  1.0000 -0.0309106694
C   C48       1.0  0.02982  0.61374  0.74270  1.0000 -0.0309106694
C   C49       1.0  0.30061  0.42905  0.96973  1.0000 -0.0792314378
C   C50       1.0  0.42905  0.30061  0.30061  1.0000 -0.0792314378
C   C51       1.0  0.96973  0.30061  0.30061  1.0000 -0.0792314378
C   C52       1.0  0.30061  0.96973  0.42905  1.0000 -0.0792314378
C   C53       1.0  0.96973  0.30061  0.42905  1.0000 -0.0792314378
C   C54       1.0  0.30061  0.42905  0.30061  1.0000 -0.0792314378
C   C55       1.0  0.30061  0.96973  0.30061  1.0000 -0.0792314378
C   C56       1.0  0.42905  0.30061  0.96973  1.0000 -0.0792314378
C   C57       1.0  0.42905  0.96973  0.30061  1.0000 -0.0792314378
C   C58       1.0  0.30061  0.30061  0.42905  1.0000 -0.0792314378
C   C59       1.0  0.30061  0.30061  0.96973  1.0000 -0.0792314378
C   C60       1.0  0.96973  0.42905  0.30061  1.0000 -0.0792314378
C   C61       1.0  0.69939  0.57095  0.69939  1.0000 -0.0792314378
C   C62       1.0  0.57095  0.69939  0.03027  1.0000 -0.0792314378
C   C63       1.0  0.03027  0.69939  0.57095  1.0000 -0.0792314378
C   C64       1.0  0.69939  0.03027  0.69939  1.0000 -0.0792314378
C   C65       1.0  0.03027  0.69939  0.69939  1.0000 -0.0792314378
C   C66       1.0  0.69939  0.57095  0.03027  1.0000 -0.0792314378
C   C67       1.0  0.69939  0.03027  0.57095  1.0000 -0.0792314378
C   C68       1.0  0.57095  0.69939  0.69939  1.0000 -0.0792314378
C   C69       1.0  0.57095  0.03027  0.69939  1.0000 -0.0792314378
C   C70       1.0  0.69939  0.69939  0.03027  1.0000 -0.0792314378
C   C71       1.0  0.69939  0.69939  0.57095  1.0000 -0.0792314378
C   C72       1.0  0.03027  0.57095  0.69939  1.0000 -0.0792314378
O   O1        1.0  0.12614  0.38744  0.97922  1.0000 -0.5236763299
O   O2        1.0  0.38744  0.12614  0.50720  1.0000 -0.5236763299
O   O3        1.0  0.97922  0.50720  0.12614  1.0000 -0.5236763299
O   O4        1.0  0.50720  0.97922  0.38744  1.0000 -0.5250896071
O   O5        1.0  0.97922  0.12614  0.38744  1.0000 -0.5236763299
O   O6        1.0  0.50720  0.38744  0.12614  1.0000 -0.5236763299
O   O7        1.0  0.12614  0.97922  0.50720  1.0000 -0.5250896071
O   O8        1.0  0.38744  0.50720  0.97922  1.0000 -0.5250896071
O   O9        1.0  0.38744  0.97922  0.12614  1.0000 -0.5236763299
O   O10       1.0  0.12614  0.50720  0.38744  1.0000 -0.5236763299
O   O11       1.0  0.50720  0.12614  0.97922  1.0000 -0.5236763299
O   O12       1.0  0.97922  0.38744  0.50720  1.0000 -0.5236763299
O   O13       1.0  0.87386  0.61256  0.49280  1.0000 -0.5250896071
O   O14       1.0  0.61256  0.87386  0.02078  1.0000 -0.5236763299
O   O15       1.0  0.02078  0.49280  0.61256  1.0000 -0.5236763299
O   O16       1.0  0.49280  0.02078  0.87386  1.0000 -0.5250896071
O   O17       1.0  0.02078  0.87386  0.49280  1.0000 -0.5236763299
O   O18       1.0  0.49280  0.61256  0.02078  1.0000 -0.5250896071
O   O19       1.0  0.87386  0.02078  0.61256  1.0000 -0.5236763299
O   O20       1.0  0.61256  0.49280  0.87386  1.0000 -0.5236763299
O   O21       1.0  0.61256  0.02078  0.49280  1.0000 -0.5236763299
O   O22       1.0  0.87386  0.49280  0.02078  1.0000 -0.5236763299
O   O23       1.0  0.49280  0.87386  0.61256  1.0000 -0.5250896071
O   O24       1.0  0.02078  0.61256  0.87386  1.0000 -0.5250896071
O   O25       1.0  0.87386  0.61256  0.02078  1.0000 -0.5236763299
O   O26       1.0  0.61256  0.87386  0.49280  1.0000 -0.5236763299
O   O27       1.0  0.02078  0.49280  0.87386  1.0000 -0.5250896071
O   O28       1.0  0.49280  0.02078  0.61256  1.0000 -0.5236763299
O   O29       1.0  0.02078  0.87386  0.61256  1.0000 -0.5236763299
O   O30       1.0  0.49280  0.61256  0.87386  1.0000 -0.5236763299
O   O31       1.0  0.87386  0.02078  0.49280  1.0000 -0.5250896071
O   O32       1.0  0.61256  0.49280  0.02078  1.0000 -0.5236763299
O   O33       1.0  0.61256  0.02078  0.87386  1.0000 -0.5250896071
O   O34       1.0  0.87386  0.49280  0.61256  1.0000 -0.5236763299
O   O35       1.0  0.49280  0.87386  0.02078  1.0000 -0.5250896071
O   O36       1.0  0.02078  0.61256  0.49280  1.0000 -0.5236763299
O   O37       1.0  0.12614  0.38744  0.50720  1.0000 -0.5236763299
O   O38       1.0  0.38744  0.12614  0.97922  1.0000 -0.5236763299
O   O39       1.0  0.97922  0.50720  0.38744  1.0000 -0.5236763299
O   O40       1.0  0.50720  0.97922  0.12614  1.0000 -0.5236763299
O   O41       1.0  0.97922  0.12614  0.50720  1.0000 -0.5236763299
O   O42       1.0  0.50720  0.38744  0.97922  1.0000 -0.5236763299
O   O43       1.0  0.12614  0.97922  0.38744  1.0000 -0.5236763299
O   O44       1.0  0.38744  0.50720  0.12614  1.0000 -0.5236763299
O   O45       1.0  0.38744  0.97922  0.50720  1.0000 -0.5236763299
O   O46       1.0  0.12614  0.50720  0.97922  1.0000 -0.5250896071
O   O47       1.0  0.50720  0.12614  0.38744  1.0000 -0.5236763299
O   O48       1.0  0.97922  0.38744  0.12614  1.0000 -0.5236763299
