# DDEC6 charges by PACMAN v1.1 (https://github.com/mtap-research/PACMAN-charge/)
data_2016[Cu][nbo]3[ASR]36
_chemical_formula_sum              "Cu6 H90 C132 O30"
_cell_length_a       21.472
_cell_length_b       21.472
_cell_length_c       21.472
_cell_angle_alpha    110.756
_cell_angle_beta     110.756
_cell_angle_gamma    110.756

_symmetry_space_group_name_H-M    "P 1"
_symmetry_Int_Tables_number       1

loop_
  _symmetry_equiv_pos_as_xyz
  'x, y, z'

loop_
  _atom_site_type_symbol
  _atom_site_label
  _atom_site_symmetry_multiplicity
  _atom_site_fract_x
  _atom_site_fract_y
  _atom_site_fract_z
  _atom_site_occupancy
  _atom_site_charge
Cu  Cu1       1.0  0.55342  0.07597  0.55342  1.0000 0.8603170623
Cu  Cu2       1.0  0.07597  0.55342  0.55342  1.0000 0.8603170623
Cu  Cu3       1.0  0.55342  0.55342  0.07597  1.0000 0.8603170623
Cu  Cu4       1.0  0.92403  0.44658  0.44658  1.0000 0.8603170623
Cu  Cu5       1.0  0.44658  0.92403  0.44658  1.0000 0.8603170623
Cu  Cu6       1.0  0.44658  0.44658  0.92403  1.0000 0.8603170623
H   H1        1.0  0.42870  0.83960  0.59870  1.0000 0.1268814572
H   H2        1.0  0.83960  0.59870  0.42870  1.0000 0.1268814572
H   H3        1.0  0.59870  0.42870  0.83960  1.0000 0.1268814572
H   H4        1.0  0.16040  0.57130  0.40130  1.0000 0.1268814572
H   H5        1.0  0.40130  0.16040  0.57130  1.0000 0.1268814572
H   H6        1.0  0.57130  0.40130  0.16040  1.0000 0.1268814572
H   H7        1.0  0.57130  0.16040  0.40130  1.0000 0.1268814572
H   H8        1.0  0.16040  0.40130  0.57130  1.0000 0.1268814572
H   H9        1.0  0.40130  0.57130  0.16040  1.0000 0.1268814572
H   H10       1.0  0.83960  0.42870  0.59870  1.0000 0.1268814572
H   H11       1.0  0.59870  0.83960  0.42870  1.0000 0.1268814572
H   H12       1.0  0.42870  0.59870  0.83960  1.0000 0.1268814572
H   H13       1.0  0.44190  0.82060  0.70260  1.0000 0.1268814572
H   H14       1.0  0.82060  0.70260  0.44190  1.0000 0.1268814572
H   H15       1.0  0.70260  0.44190  0.82060  1.0000 0.1268814572
H   H16       1.0  0.17940  0.55810  0.29740  1.0000 0.1268814572
H   H17       1.0  0.29740  0.17940  0.55810  1.0000 0.1268814572
H   H18       1.0  0.55810  0.29740  0.17940  1.0000 0.1268814572
H   H19       1.0  0.55810  0.17940  0.29740  1.0000 0.1268814572
H   H20       1.0  0.17940  0.29740  0.55810  1.0000 0.1268814572
H   H21       1.0  0.29740  0.55810  0.17940  1.0000 0.1268814572
H   H22       1.0  0.82060  0.44190  0.70260  1.0000 0.1268814572
H   H23       1.0  0.70260  0.82060  0.44190  1.0000 0.1268814572
H   H24       1.0  0.44190  0.70260  0.82060  1.0000 0.1268814572
H   H25       1.0  0.60060  0.05920  0.86750  1.0000 0.1185518049
H   H26       1.0  0.05920  0.86750  0.60060  1.0000 0.1185518049
H   H27       1.0  0.86750  0.60060  0.05920  1.0000 0.1185518049
H   H28       1.0  0.94080  0.39940  0.13250  1.0000 0.1185518049
H   H29       1.0  0.13250  0.94080  0.39940  1.0000 0.1185518049
H   H30       1.0  0.39940  0.13250  0.94080  1.0000 0.1185518049
H   H31       1.0  0.39940  0.94080  0.13250  1.0000 0.1185518049
H   H32       1.0  0.94080  0.13250  0.39940  1.0000 0.1185518049
H   H33       1.0  0.13250  0.39940  0.94080  1.0000 0.1185518049
H   H34       1.0  0.05920  0.60060  0.86750  1.0000 0.1185518049
H   H35       1.0  0.86750  0.05920  0.60060  1.0000 0.1185518049
H   H36       1.0  0.60060  0.86750  0.05920  1.0000 0.1185518049
H   H37       1.0  0.59320  0.07700  0.76380  1.0000 0.1268814572
H   H38       1.0  0.07700  0.76380  0.59320  1.0000 0.1268814572
H   H39       1.0  0.76380  0.59320  0.07700  1.0000 0.1268814572
H   H40       1.0  0.92300  0.40680  0.23620  1.0000 0.1268814572
H   H41       1.0  0.23620  0.92300  0.40680  1.0000 0.1268814572
H   H42       1.0  0.40680  0.23620  0.92300  1.0000 0.1268814572
H   H43       1.0  0.40680  0.92300  0.23620  1.0000 0.1268814572
H   H44       1.0  0.92300  0.23620  0.40680  1.0000 0.1268814572
H   H45       1.0  0.23620  0.40680  0.92300  1.0000 0.1268814572
H   H46       1.0  0.07700  0.59320  0.76380  1.0000 0.1268814572
H   H47       1.0  0.76380  0.07700  0.59320  1.0000 0.1268814572
H   H48       1.0  0.59320  0.76380  0.07700  1.0000 0.1268814572
H   H49       1.0  0.50720  0.02070  0.90640  1.0000 0.1133869251
H   H50       1.0  0.02070  0.90640  0.50720  1.0000 0.1133869251
H   H51       1.0  0.90640  0.50720  0.02070  1.0000 0.1133869251
H   H52       1.0  0.97930  0.49280  0.09360  1.0000 0.1133869251
H   H53       1.0  0.09360  0.97930  0.49280  1.0000 0.1133869251
H   H54       1.0  0.49280  0.09360  0.97930  1.0000 0.1133869251
H   H55       1.0  0.49280  0.97930  0.09360  1.0000 0.1133869251
H   H56       1.0  0.97930  0.09360  0.49280  1.0000 0.1133869251
H   H57       1.0  0.09360  0.49280  0.97930  1.0000 0.1133869251
H   H58       1.0  0.02070  0.50720  0.90640  1.0000 0.1133869251
H   H59       1.0  0.90640  0.02070  0.50720  1.0000 0.1133869251
H   H60       1.0  0.50720  0.90640  0.02070  1.0000 0.1133869251
H   H61       1.0  0.63960  0.89010  0.84430  1.0000 0.0766497124
H   H62       1.0  0.89010  0.84430  0.63960  1.0000 0.0766497124
H   H63       1.0  0.84430  0.63960  0.89010  1.0000 0.0766497124
H   H64       1.0  0.10990  0.36040  0.15570  1.0000 0.0766497124
H   H65       1.0  0.15570  0.10990  0.36040  1.0000 0.0766497124
H   H66       1.0  0.36040  0.15570  0.10990  1.0000 0.0766497124
H   H67       1.0  0.36040  0.10990  0.15570  1.0000 0.0766497124
H   H68       1.0  0.10990  0.15570  0.36040  1.0000 0.0766497124
H   H69       1.0  0.15570  0.36040  0.10990  1.0000 0.0766497124
H   H70       1.0  0.89010  0.63960  0.84430  1.0000 0.0766497124
H   H71       1.0  0.84430  0.89010  0.63960  1.0000 0.0766497124
H   H72       1.0  0.63960  0.84430  0.89010  1.0000 0.0766497124
H   H73       1.0  0.64580  0.77260  0.77260  1.0000 0.1185518049
H   H74       1.0  0.77260  0.77260  0.64580  1.0000 0.1185518049
H   H75       1.0  0.77260  0.64580  0.77260  1.0000 0.1185518049
H   H76       1.0  0.22740  0.35420  0.22740  1.0000 0.1185518049
H   H77       1.0  0.22740  0.22740  0.35420  1.0000 0.1185518049
H   H78       1.0  0.35420  0.22740  0.22740  1.0000 0.1185518049
H   H79       1.0  0.56440  0.71430  0.75960  1.0000 0.1185518049
H   H80       1.0  0.71430  0.75960  0.56440  1.0000 0.1185518049
H   H81       1.0  0.75960  0.56440  0.71430  1.0000 0.1185518049
H   H82       1.0  0.28570  0.43560  0.24040  1.0000 0.1185518049
H   H83       1.0  0.24040  0.28570  0.43560  1.0000 0.1185518049
H   H84       1.0  0.43560  0.24040  0.28570  1.0000 0.1185518049
H   H85       1.0  0.43560  0.28570  0.24040  1.0000 0.1185518049
H   H86       1.0  0.28570  0.24040  0.43560  1.0000 0.1185518049
H   H87       1.0  0.24040  0.43560  0.28570  1.0000 0.1185518049
H   H88       1.0  0.71430  0.56440  0.75960  1.0000 0.1185518049
H   H89       1.0  0.75960  0.71430  0.56440  1.0000 0.1185518049
H   H90       1.0  0.56440  0.75960  0.71430  1.0000 0.1185518049
C   C1        1.0  0.50638  0.97480  0.60677  1.0000 0.5789491942
C   C2        1.0  0.97480  0.60677  0.50638  1.0000 0.5789491942
C   C3        1.0  0.60677  0.50638  0.97480  1.0000 0.5789491942
C   C4        1.0  0.02520  0.49362  0.39323  1.0000 0.5789491942
C   C5        1.0  0.39323  0.02520  0.49362  1.0000 0.5789491942
C   C6        1.0  0.49362  0.39323  0.02520  1.0000 0.5789491942
C   C7        1.0  0.49362  0.02520  0.39323  1.0000 0.5789491942
C   C8        1.0  0.02520  0.39323  0.49362  1.0000 0.5789491942
C   C9        1.0  0.39323  0.49362  0.02520  1.0000 0.5789491942
C   C10       1.0  0.97480  0.50638  0.60677  1.0000 0.5789491942
C   C11       1.0  0.60677  0.97480  0.50638  1.0000 0.5789491942
C   C12       1.0  0.50638  0.60677  0.97480  1.0000 0.5789491942
C   C13       1.0  0.51333  0.96244  0.67383  1.0000 -0.0180917577
C   C14       1.0  0.96244  0.67383  0.51333  1.0000 -0.0180917577
C   C15       1.0  0.67383  0.51333  0.96244  1.0000 -0.0180917577
C   C16       1.0  0.03756  0.48667  0.32617  1.0000 -0.0180917577
C   C17       1.0  0.32617  0.03756  0.48667  1.0000 -0.0180917577
C   C18       1.0  0.48667  0.32617  0.03756  1.0000 -0.0180917577
C   C19       1.0  0.48667  0.03756  0.32617  1.0000 -0.0180917577
C   C20       1.0  0.03756  0.32617  0.48667  1.0000 -0.0180917577
C   C21       1.0  0.32617  0.48667  0.03756  1.0000 -0.0180917577
C   C22       1.0  0.96244  0.51333  0.67383  1.0000 -0.0180917577
C   C23       1.0  0.67383  0.96244  0.51333  1.0000 -0.0180917577
C   C24       1.0  0.51333  0.67383  0.96244  1.0000 -0.0180917577
C   C25       1.0  0.46416  0.88326  0.65272  1.0000 -0.0868043334
C   C26       1.0  0.88326  0.65272  0.46416  1.0000 -0.0868043334
C   C27       1.0  0.65272  0.46416  0.88326  1.0000 -0.0868043334
C   C28       1.0  0.11674  0.53584  0.34728  1.0000 -0.0868043334
C   C29       1.0  0.34728  0.11674  0.53584  1.0000 -0.0868043334
C   C30       1.0  0.53584  0.34728  0.11674  1.0000 -0.0868043334
C   C31       1.0  0.53584  0.11674  0.34728  1.0000 -0.0868043334
C   C32       1.0  0.11674  0.34728  0.53584  1.0000 -0.0868043334
C   C33       1.0  0.34728  0.53584  0.11674  1.0000 -0.0868043334
C   C34       1.0  0.88326  0.46416  0.65272  1.0000 -0.0868043334
C   C35       1.0  0.65272  0.88326  0.46416  1.0000 -0.0868043334
C   C36       1.0  0.46416  0.65272  0.88326  1.0000 -0.0868043334
C   C37       1.0  0.47036  0.87300  0.71462  1.0000 -0.1483443257
C   C38       1.0  0.87300  0.71462  0.47036  1.0000 -0.1483443257
C   C39       1.0  0.71462  0.47036  0.87300  1.0000 -0.1483443257
C   C40       1.0  0.12700  0.52964  0.28538  1.0000 -0.1483443257
C   C41       1.0  0.28538  0.12700  0.52964  1.0000 -0.1483443257
C   C42       1.0  0.52964  0.28538  0.12700  1.0000 -0.1483443257
C   C43       1.0  0.52964  0.12700  0.28538  1.0000 -0.1483443257
C   C44       1.0  0.12700  0.28538  0.52964  1.0000 -0.1483443257
C   C45       1.0  0.28538  0.52964  0.12700  1.0000 -0.1483443257
C   C46       1.0  0.87300  0.47036  0.71462  1.0000 -0.1483443257
C   C47       1.0  0.71462  0.87300  0.47036  1.0000 -0.1483443257
C   C48       1.0  0.47036  0.71462  0.87300  1.0000 -0.1483443257
C   C49       1.0  0.51673  0.93666  0.79311  1.0000 0.0940720698
C   C50       1.0  0.93666  0.79311  0.51673  1.0000 0.0940720698
C   C51       1.0  0.79311  0.51673  0.93666  1.0000 0.0940720698
C   C52       1.0  0.06334  0.48327  0.20689  1.0000 0.0940720698
C   C53       1.0  0.20689  0.06334  0.48327  1.0000 0.0940720698
C   C54       1.0  0.48327  0.20689  0.06334  1.0000 0.0940720698
C   C55       1.0  0.48327  0.06334  0.20689  1.0000 0.0940720698
C   C56       1.0  0.06334  0.20689  0.48327  1.0000 0.0940720698
C   C57       1.0  0.20689  0.48327  0.06334  1.0000 0.0940720698
C   C58       1.0  0.93666  0.51673  0.79311  1.0000 0.0940720698
C   C59       1.0  0.79311  0.93666  0.51673  1.0000 0.0940720698
C   C60       1.0  0.51673  0.79311  0.93666  1.0000 0.0940720698
C   C61       1.0  0.56601  0.01521  0.81363  1.0000 -0.1680583907
C   C62       1.0  0.01521  0.81363  0.56601  1.0000 -0.1680583907
C   C63       1.0  0.81363  0.56601  0.01521  1.0000 -0.1680583907
C   C64       1.0  0.98479  0.43399  0.18637  1.0000 -0.1680583907
C   C65       1.0  0.18637  0.98479  0.43399  1.0000 -0.1680583907
C   C66       1.0  0.43399  0.18637  0.98479  1.0000 -0.1680583907
C   C67       1.0  0.43399  0.98479  0.18637  1.0000 -0.1680583907
C   C68       1.0  0.98479  0.18637  0.43399  1.0000 -0.1680583907
C   C69       1.0  0.18637  0.43399  0.98479  1.0000 -0.1680583907
C   C70       1.0  0.01521  0.56601  0.81363  1.0000 -0.1680583907
C   C71       1.0  0.81363  0.01521  0.56601  1.0000 -0.1680583907
C   C72       1.0  0.56601  0.81363  0.01521  1.0000 -0.1680583907
C   C73       1.0  0.56156  0.02501  0.75149  1.0000 -0.0868043334
C   C74       1.0  0.02501  0.75149  0.56156  1.0000 -0.0868043334
C   C75       1.0  0.75149  0.56156  0.02501  1.0000 -0.0868043334
C   C76       1.0  0.97499  0.43844  0.24851  1.0000 -0.0868043334
C   C77       1.0  0.24851  0.97499  0.43844  1.0000 -0.0868043334
C   C78       1.0  0.43844  0.24851  0.97499  1.0000 -0.0868043334
C   C79       1.0  0.43844  0.97499  0.24851  1.0000 -0.0868043334
C   C80       1.0  0.97499  0.24851  0.43844  1.0000 -0.0868043334
C   C81       1.0  0.24851  0.43844  0.97499  1.0000 -0.0868043334
C   C82       1.0  0.02501  0.56156  0.75149  1.0000 -0.0868043334
C   C83       1.0  0.75149  0.02501  0.56156  1.0000 -0.0868043334
C   C84       1.0  0.56156  0.75149  0.02501  1.0000 -0.0868043334
C   C85       1.0  0.51564  0.92682  0.85774  1.0000 -0.0180917577
C   C86       1.0  0.92682  0.85774  0.51564  1.0000 -0.0180917577
C   C87       1.0  0.85774  0.51564  0.92682  1.0000 -0.0180917577
C   C88       1.0  0.07318  0.48436  0.14226  1.0000 -0.0180917577
C   C89       1.0  0.14226  0.07318  0.48436  1.0000 -0.0180917577
C   C90       1.0  0.48436  0.14226  0.07318  1.0000 -0.0180917577
C   C91       1.0  0.48436  0.07318  0.14226  1.0000 -0.0180917577
C   C92       1.0  0.07318  0.14226  0.48436  1.0000 -0.0180917577
C   C93       1.0  0.14226  0.48436  0.07318  1.0000 -0.0180917577
C   C94       1.0  0.92682  0.51564  0.85774  1.0000 -0.0180917577
C   C95       1.0  0.85774  0.92682  0.51564  1.0000 -0.0180917577
C   C96       1.0  0.51564  0.85774  0.92682  1.0000 -0.0180917577
C   C97       1.0  0.50961  0.97939  0.91170  1.0000 -0.1911998629
C   C98       1.0  0.97939  0.91170  0.50961  1.0000 -0.1911998629
C   C99       1.0  0.91170  0.50961  0.97939  1.0000 -0.1911998629
C   C100      1.0  0.02061  0.49039  0.08830  1.0000 -0.1911998629
C   C101      1.0  0.08830  0.02061  0.49039  1.0000 -0.1911998629
C   C102      1.0  0.49039  0.08830  0.02061  1.0000 -0.1911998629
C   C103      1.0  0.49039  0.02061  0.08830  1.0000 -0.1911998629
C   C104      1.0  0.02061  0.08830  0.49039  1.0000 -0.1911998629
C   C105      1.0  0.08830  0.49039  0.02061  1.0000 -0.1911998629
C   C106      1.0  0.97939  0.50961  0.91170  1.0000 -0.1911998629
C   C107      1.0  0.91170  0.97939  0.50961  1.0000 -0.1911998629
C   C108      1.0  0.50961  0.91170  0.97939  1.0000 -0.1911998629
C   C109      1.0  0.50704  0.97383  0.97383  1.0000 0.0766497124
C   C110      1.0  0.97383  0.97383  0.50704  1.0000 0.0766497124
C   C111      1.0  0.97383  0.50704  0.97383  1.0000 0.0766497124
C   C112      1.0  0.02617  0.49296  0.02617  1.0000 0.0766497124
C   C113      1.0  0.02617  0.02617  0.49296  1.0000 0.0766497124
C   C114      1.0  0.49296  0.02617  0.02617  1.0000 0.0766497124
C   C115      1.0  0.51698  0.86521  0.86521  1.0000 0.1598189061
C   C116      1.0  0.86521  0.86521  0.51698  1.0000 0.1598189061
C   C117      1.0  0.86521  0.51698  0.86521  1.0000 0.1598189061
C   C118      1.0  0.13479  0.48302  0.13479  1.0000 0.1598189061
C   C119      1.0  0.13479  0.13479  0.48302  1.0000 0.1598189061
C   C120      1.0  0.48302  0.13479  0.13479  1.0000 0.1598189061
C   C121      1.0  0.61048  0.83916  0.83916  1.0000 -0.004993268
C   C122      1.0  0.83916  0.83916  0.61048  1.0000 -0.004993268
C   C123      1.0  0.83916  0.61048  0.83916  1.0000 -0.004993268
C   C124      1.0  0.16084  0.38952  0.16084  1.0000 -0.0058437141
C   C125      1.0  0.16084  0.16084  0.38952  1.0000 -0.0058437141
C   C126      1.0  0.38952  0.16084  0.16084  1.0000 -0.004993268
C   C127      1.0  0.59470  0.76380  0.76380  1.0000 -0.3900073856
C   C128      1.0  0.76380  0.76380  0.59470  1.0000 -0.3900073856
C   C129      1.0  0.76380  0.59470  0.76380  1.0000 -0.3900073856
C   C130      1.0  0.23620  0.40530  0.23620  1.0000 -0.3900073856
C   C131      1.0  0.23620  0.23620  0.40530  1.0000 -0.3900073856
C   C132      1.0  0.40530  0.23620  0.23620  1.0000 -0.3900073856
O   O1        1.0  0.55108  0.04630  0.62899  1.0000 -0.5266408016
O   O2        1.0  0.04630  0.62899  0.55108  1.0000 -0.5266408016
O   O3        1.0  0.62899  0.55108  0.04630  1.0000 -0.5266408016
O   O4        1.0  0.95370  0.44892  0.37101  1.0000 -0.5266408016
O   O5        1.0  0.37101  0.95370  0.44892  1.0000 -0.5266408016
O   O6        1.0  0.44892  0.37101  0.95370  1.0000 -0.5266408016
O   O7        1.0  0.44892  0.95370  0.37101  1.0000 -0.5266408016
O   O8        1.0  0.95370  0.37101  0.44892  1.0000 -0.5266408016
O   O9        1.0  0.37101  0.44892  0.95370  1.0000 -0.5266408016
O   O10       1.0  0.04630  0.55108  0.62899  1.0000 -0.5266408016
O   O11       1.0  0.62899  0.04630  0.55108  1.0000 -0.5266408016
O   O12       1.0  0.55108  0.62899  0.04630  1.0000 -0.5266408016
O   O13       1.0  0.45844  0.91372  0.53615  1.0000 -0.5198747704
O   O14       1.0  0.91372  0.53615  0.45844  1.0000 -0.5198747704
O   O15       1.0  0.53615  0.45844  0.91372  1.0000 -0.5198747704
O   O16       1.0  0.08628  0.54156  0.46385  1.0000 -0.5198747704
O   O17       1.0  0.46385  0.08628  0.54156  1.0000 -0.5198747704
O   O18       1.0  0.54156  0.46385  0.08628  1.0000 -0.5198747704
O   O19       1.0  0.54156  0.08628  0.46385  1.0000 -0.5198747704
O   O20       1.0  0.08628  0.46385  0.54156  1.0000 -0.5198747704
O   O21       1.0  0.46385  0.54156  0.08628  1.0000 -0.5198747704
O   O22       1.0  0.91372  0.45844  0.53615  1.0000 -0.5198747704
O   O23       1.0  0.53615  0.91372  0.45844  1.0000 -0.5198747704
O   O24       1.0  0.45844  0.53615  0.91372  1.0000 -0.5198747704
O   O25       1.0  0.52622  0.81184  0.81184  1.0000 -0.2538444489
O   O26       1.0  0.81184  0.81184  0.52622  1.0000 -0.2538444489
O   O27       1.0  0.81184  0.52622  0.81184  1.0000 -0.2538444489
O   O28       1.0  0.18816  0.47378  0.18816  1.0000 -0.2538444489
O   O29       1.0  0.18816  0.18816  0.47378  1.0000 -0.2538444489
O   O30       1.0  0.47378  0.18816  0.18816  1.0000 -0.2538444489
