# DDEC6 charges by PACMAN v1.1 (https://github.com/mtap-research/PACMAN-charge/)
data_2016[Ti][srs]3[ASR]2
_chemical_formula_sum              "Ti8 H24 C96 O72"
_cell_length_a       19.8422
_cell_length_b       19.8422
_cell_length_c       19.8422
_cell_angle_alpha    109.471
_cell_angle_beta     109.471
_cell_angle_gamma    109.471

_symmetry_space_group_name_H-M    "P 1"
_symmetry_Int_Tables_number       1

loop_
  _symmetry_equiv_pos_as_xyz
  'x, y, z'

loop_
  _atom_site_type_symbol
  _atom_site_label
  _atom_site_symmetry_multiplicity
  _atom_site_fract_x
  _atom_site_fract_y
  _atom_site_fract_z
  _atom_site_occupancy
  _atom_site_charge
Ti  Ti1       1.0  0.29810  0.29810  0.29810  1.0000 1.2484445511
Ti  Ti2       1.0  0.20190  0.50000  0.00000  1.0000 1.2847691713
Ti  Ti3       1.0  0.00000  0.20190  0.50000  1.0000 1.2898440697
Ti  Ti4       1.0  0.50000  0.00000  0.20190  1.0000 1.2847691713
Ti  Ti5       1.0  0.00000  0.70190  0.50000  1.0000 1.2898440697
Ti  Ti6       1.0  0.70190  0.50000  0.00000  1.0000 1.2484445511
Ti  Ti7       1.0  0.79810  0.79810  0.79810  1.0000 1.2847691713
Ti  Ti8       1.0  0.50000  0.00000  0.70190  1.0000 1.2898440697
H   H1        1.0  0.38229  0.51909  0.20960  1.0000 0.1480380018
H   H2        1.0  0.11771  0.32731  0.13680  1.0000 0.1480380018
H   H3        1.0  0.13680  0.11771  0.32731  1.0000 0.1480380018
H   H4        1.0  0.36320  0.69051  0.98091  1.0000 0.1480380018
H   H5        1.0  0.98091  0.36320  0.69051  1.0000 0.1480380018
H   H6        1.0  0.51909  0.20960  0.38229  1.0000 0.1480380018
H   H7        1.0  0.32731  0.13680  0.11771  1.0000 0.1480380018
H   H8        1.0  0.17269  0.29040  0.80949  1.0000 0.1480380018
H   H9        1.0  0.20960  0.38229  0.51909  1.0000 0.1480380018
H   H10       1.0  0.29040  0.80949  0.17269  1.0000 0.1480380018
H   H11       1.0  0.69051  0.98091  0.36320  1.0000 0.1480380018
H   H12       1.0  0.80949  0.17269  0.29040  1.0000 0.1480380018
H   H13       1.0  0.30949  0.79040  0.67269  1.0000 0.1480380018
H   H14       1.0  0.61771  0.63680  0.82731  1.0000 0.1480380018
H   H15       1.0  0.88229  0.70960  0.01909  1.0000 0.1480380018
H   H16       1.0  0.86320  0.48091  0.19051  1.0000 0.1480380018
H   H17       1.0  0.63680  0.82731  0.61771  1.0000 0.1480380018
H   H18       1.0  0.01909  0.88229  0.70960  1.0000 0.1480380018
H   H19       1.0  0.48091  0.19051  0.86320  1.0000 0.1480380018
H   H20       1.0  0.82731  0.61771  0.63680  1.0000 0.1480380018
H   H21       1.0  0.67269  0.30949  0.79040  1.0000 0.1480380018
H   H22       1.0  0.70960  0.01909  0.88229  1.0000 0.1480380018
H   H23       1.0  0.79040  0.67269  0.30949  1.0000 0.1480380018
H   H24       1.0  0.19051  0.86320  0.48091  1.0000 0.1480380018
C   C1        1.0  0.18141  0.41363  0.11418  1.0000 -0.0852103273
C   C2        1.0  0.31860  0.43278  0.23222  1.0000 -0.0825113426
C   C3        1.0  0.23222  0.31860  0.43278  1.0000 -0.0825113426
C   C4        1.0  0.26778  0.70056  0.08637  1.0000 -0.0825113426
C   C5        1.0  0.08638  0.26778  0.70056  1.0000 -0.0852103273
C   C6        1.0  0.41362  0.11418  0.18141  1.0000 -0.0825113426
C   C7        1.0  0.43278  0.23222  0.31860  1.0000 -0.0825113426
C   C8        1.0  0.06722  0.38582  0.79944  1.0000 -0.0825113426
C   C9        1.0  0.11418  0.18140  0.41362  1.0000 -0.0852103273
C   C10       1.0  0.38582  0.79944  0.06722  1.0000 -0.0852103273
C   C11       1.0  0.70056  0.08637  0.26778  1.0000 -0.0825113426
C   C12       1.0  0.79944  0.06722  0.38582  1.0000 -0.0825113426
C   C13       1.0  0.25853  0.46953  0.13540  1.0000 0.2953752516
C   C14       1.0  0.24147  0.37687  0.21100  1.0000 0.2938586762
C   C15       1.0  0.21100  0.24147  0.37687  1.0000 0.2938586762
C   C16       1.0  0.28900  0.66587  0.03047  1.0000 0.2938586762
C   C17       1.0  0.03047  0.28900  0.66587  1.0000 0.2938586762
C   C18       1.0  0.46953  0.13540  0.25853  1.0000 0.2938586762
C   C19       1.0  0.37687  0.21100  0.24147  1.0000 0.2938586762
C   C20       1.0  0.12313  0.36460  0.83413  1.0000 0.2938586762
C   C21       1.0  0.13540  0.25853  0.46953  1.0000 0.2938586762
C   C22       1.0  0.36460  0.83413  0.12313  1.0000 0.2938586762
C   C23       1.0  0.66587  0.03047  0.28900  1.0000 0.2938586762
C   C24       1.0  0.83413  0.12313  0.36460  1.0000 0.2938586762
C   C25       1.0  0.32712  0.47910  0.19442  1.0000 -0.0990660221
C   C26       1.0  0.17288  0.36730  0.15198  1.0000 -0.0990660221
C   C27       1.0  0.15198  0.17288  0.36730  1.0000 -0.0990660221
C   C28       1.0  0.34802  0.71532  0.02090  1.0000 -0.0990660221
C   C29       1.0  0.02090  0.34802  0.71532  1.0000 -0.0990660221
C   C30       1.0  0.47910  0.19442  0.32712  1.0000 -0.0990660221
C   C31       1.0  0.36730  0.15198  0.17288  1.0000 -0.0990660221
C   C32       1.0  0.13270  0.30558  0.78468  1.0000 -0.0990660221
C   C33       1.0  0.19442  0.32712  0.47910  1.0000 -0.0990660221
C   C34       1.0  0.30558  0.78468  0.13270  1.0000 -0.0990660221
C   C35       1.0  0.71532  0.02090  0.34802  1.0000 -0.0990660221
C   C36       1.0  0.78468  0.13270  0.30558  1.0000 -0.0990660221
C   C37       1.0  0.10773  0.40334  0.05079  1.0000 0.5944216818
C   C38       1.0  0.39227  0.44306  0.29561  1.0000 0.5944216818
C   C39       1.0  0.29561  0.39227  0.44306  1.0000 0.5944216818
C   C40       1.0  0.20439  0.64745  0.09666  1.0000 0.5958403884
C   C41       1.0  0.09666  0.20439  0.64745  1.0000 0.5944216818
C   C42       1.0  0.40334  0.05079  0.10773  1.0000 0.5944216818
C   C43       1.0  0.44306  0.29561  0.39227  1.0000 0.5944216818
C   C44       1.0  0.05694  0.44921  0.85255  1.0000 0.5958403884
C   C45       1.0  0.05079  0.10773  0.40334  1.0000 0.5944216818
C   C46       1.0  0.44921  0.85255  0.05694  1.0000 0.5944216818
C   C47       1.0  0.64745  0.09666  0.20439  1.0000 0.5944216818
C   C48       1.0  0.85255  0.05694  0.44921  1.0000 0.5944216818
C   C49       1.0  0.29945  0.88582  0.56722  1.0000 -0.0852103273
C   C50       1.0  0.81859  0.73222  0.93277  1.0000 -0.0825113426
C   C51       1.0  0.68140  0.61418  0.91363  1.0000 -0.0825113426
C   C52       1.0  0.76778  0.58637  0.20056  1.0000 -0.0825113426
C   C53       1.0  0.73222  0.93278  0.81859  1.0000 -0.0825113426
C   C54       1.0  0.91363  0.68141  0.61418  1.0000 -0.0825113426
C   C55       1.0  0.58637  0.20055  0.76778  1.0000 -0.0825113426
C   C56       1.0  0.93278  0.81859  0.73222  1.0000 -0.0825113426
C   C57       1.0  0.56722  0.29945  0.88582  1.0000 -0.0825113426
C   C58       1.0  0.61418  0.91363  0.68141  1.0000 -0.0825113426
C   C59       1.0  0.88582  0.56722  0.29945  1.0000 -0.0852103273
C   C60       1.0  0.20055  0.76778  0.58637  1.0000 -0.0852103273
C   C61       1.0  0.33413  0.86460  0.62313  1.0000 0.2938586762
C   C62       1.0  0.74147  0.71100  0.87687  1.0000 0.2938586762
C   C63       1.0  0.75853  0.63540  0.96953  1.0000 0.2938586762
C   C64       1.0  0.78900  0.53047  0.16587  1.0000 0.2938586762
C   C65       1.0  0.71100  0.87687  0.74147  1.0000 0.2938586762
C   C66       1.0  0.96953  0.75853  0.63540  1.0000 0.2938586762
C   C67       1.0  0.53047  0.16587  0.78900  1.0000 0.2938586762
C   C68       1.0  0.87687  0.74147  0.71100  1.0000 0.2938586762
C   C69       1.0  0.62313  0.33413  0.86460  1.0000 0.2938586762
C   C70       1.0  0.63540  0.96953  0.75853  1.0000 0.2938586762
C   C71       1.0  0.86460  0.62313  0.33413  1.0000 0.2938586762
C   C72       1.0  0.16587  0.78900  0.53047  1.0000 0.2938586762
C   C73       1.0  0.28468  0.80558  0.63270  1.0000 -0.0990660221
C   C74       1.0  0.67288  0.65198  0.86730  1.0000 -0.0990660221
C   C75       1.0  0.82712  0.69442  0.97910  1.0000 -0.0990660221
C   C76       1.0  0.84802  0.52090  0.21532  1.0000 -0.0990660221
C   C77       1.0  0.65198  0.86730  0.67288  1.0000 -0.0990660221
C   C78       1.0  0.97910  0.82712  0.69442  1.0000 -0.0990660221
C   C79       1.0  0.52090  0.21532  0.84802  1.0000 -0.0990660221
C   C80       1.0  0.86730  0.67288  0.65198  1.0000 -0.0990660221
C   C81       1.0  0.63270  0.28468  0.80558  1.0000 -0.0990660221
C   C82       1.0  0.69442  0.97910  0.82712  1.0000 -0.0990660221
C   C83       1.0  0.80558  0.63270  0.28468  1.0000 -0.0990660221
C   C84       1.0  0.21532  0.84802  0.52090  1.0000 -0.0990660221
C   C85       1.0  0.35255  0.94921  0.55694  1.0000 0.5958403884
C   C86       1.0  0.89227  0.79561  0.94306  1.0000 0.5944216818
C   C87       1.0  0.60773  0.55079  0.90334  1.0000 0.5958403884
C   C88       1.0  0.70439  0.59666  0.14745  1.0000 0.5944216818
C   C89       1.0  0.79561  0.94306  0.89227  1.0000 0.5944216818
C   C90       1.0  0.90334  0.60773  0.55079  1.0000 0.5944216818
C   C91       1.0  0.59666  0.14745  0.70439  1.0000 0.5944216818
C   C92       1.0  0.94306  0.89227  0.79561  1.0000 0.5944216818
C   C93       1.0  0.55694  0.35255  0.94921  1.0000 0.5944216818
C   C94       1.0  0.55079  0.90334  0.60773  1.0000 0.5944216818
C   C95       1.0  0.94921  0.55694  0.35255  1.0000 0.5958403884
C   C96       1.0  0.14745  0.70439  0.59666  1.0000 0.5944216818
O   O1        1.0  0.03979  0.36440  0.04121  1.0000 -0.3052920872
O   O2        1.0  0.46021  0.50142  0.32461  1.0000 -0.3040551642
O   O3        1.0  0.32461  0.46021  0.50142  1.0000 -0.3040551642
O   O4        1.0  0.17539  0.67681  0.13560  1.0000 -0.3040551642
O   O5        1.0  0.13560  0.17539  0.67681  1.0000 -0.3040551642
O   O6        1.0  0.36440  0.04121  0.03979  1.0000 -0.3040551642
O   O7        1.0  0.50142  0.32461  0.46021  1.0000 -0.3040551642
O   O8        1.0  0.99858  0.45879  0.82319  1.0000 -0.3040551642
O   O9        1.0  0.04121  0.03979  0.36440  1.0000 -0.3040551642
O   O10       1.0  0.45879  0.82319  0.99858  1.0000 -0.3052920872
O   O11       1.0  0.67681  0.13560  0.17539  1.0000 -0.3040551642
O   O12       1.0  0.82319  0.99858  0.45879  1.0000 -0.3040551642
O   O13       1.0  0.11490  0.43452  0.00761  1.0000 -0.4413014286
O   O14       1.0  0.38510  0.39271  0.31961  1.0000 -0.4413014286
O   O15       1.0  0.31961  0.38510  0.39271  1.0000 -0.4413014286
O   O16       1.0  0.18038  0.57310  0.06549  1.0000 -0.4413014286
O   O17       1.0  0.06549  0.18038  0.57310  1.0000 -0.4413014286
O   O18       1.0  0.43451  0.00761  0.11490  1.0000 -0.4413014286
O   O19       1.0  0.39271  0.31961  0.38510  1.0000 -0.4413014286
O   O20       1.0  0.10728  0.49238  0.92690  1.0000 -0.4413014286
O   O21       1.0  0.00762  0.11490  0.43451  1.0000 -0.4413014286
O   O22       1.0  0.49239  0.92690  0.10729  1.0000 -0.4413014286
O   O23       1.0  0.57310  0.06549  0.18038  1.0000 -0.4456857702
O   O24       1.0  0.92690  0.10728  0.49239  1.0000 -0.4413014286
O   O25       1.0  0.26661  0.51349  0.09952  1.0000 -0.5351895751
O   O26       1.0  0.23339  0.33291  0.24688  1.0000 -0.5333115449
O   O27       1.0  0.24688  0.23339  0.33291  1.0000 -0.5333115449
O   O28       1.0  0.25312  0.58603  0.98651  1.0000 -0.5351895751
O   O29       1.0  0.98651  0.25312  0.58603  1.0000 -0.5333115449
O   O30       1.0  0.51349  0.09952  0.26661  1.0000 -0.5333115449
O   O31       1.0  0.33291  0.24688  0.23339  1.0000 -0.5333115449
O   O32       1.0  0.16709  0.40048  0.91397  1.0000 -0.5351895751
O   O33       1.0  0.09952  0.26661  0.51349  1.0000 -0.5333115449
O   O34       1.0  0.40048  0.91397  0.16709  1.0000 -0.5351895751
O   O35       1.0  0.58603  0.98651  0.25312  1.0000 -0.5333115449
O   O36       1.0  0.91397  0.16709  0.40048  1.0000 -0.5333115449
O   O37       1.0  0.32319  0.95879  0.49858  1.0000 -0.3052920872
O   O38       1.0  0.96021  0.82461  0.00142  1.0000 -0.3040551642
O   O39       1.0  0.53979  0.54121  0.86440  1.0000 -0.3040551642
O   O40       1.0  0.67539  0.63560  0.17681  1.0000 -0.3040551642
O   O41       1.0  0.82461  0.00142  0.96021  1.0000 -0.3040551642
O   O42       1.0  0.86440  0.53979  0.54121  1.0000 -0.3052920872
O   O43       1.0  0.63560  0.17681  0.67539  1.0000 -0.3052920872
O   O44       1.0  0.00142  0.96021  0.82461  1.0000 -0.3052920872
O   O45       1.0  0.49858  0.32319  0.95879  1.0000 -0.3040551642
O   O46       1.0  0.54121  0.86440  0.53979  1.0000 -0.3052920872
O   O47       1.0  0.95879  0.49858  0.32319  1.0000 -0.3040551642
O   O48       1.0  0.17681  0.67539  0.63560  1.0000 -0.3052920872
O   O49       1.0  0.42690  0.99239  0.60728  1.0000 -0.4413014286
O   O50       1.0  0.88510  0.81961  0.89271  1.0000 -0.4456857702
O   O51       1.0  0.61490  0.50761  0.93451  1.0000 -0.4413014286
O   O52       1.0  0.68039  0.56549  0.07310  1.0000 -0.4413014286
O   O53       1.0  0.81962  0.89271  0.88510  1.0000 -0.4413014286
O   O54       1.0  0.93451  0.61490  0.50762  1.0000 -0.4456857702
O   O55       1.0  0.56549  0.07310  0.68039  1.0000 -0.4413014286
O   O56       1.0  0.89271  0.88510  0.81961  1.0000 -0.4413014286
O   O57       1.0  0.60728  0.42690  0.99238  1.0000 -0.4413014286
O   O58       1.0  0.50762  0.93451  0.61490  1.0000 -0.4413014286
O   O59       1.0  0.99238  0.60728  0.42690  1.0000 -0.4413014286
O   O60       1.0  0.07310  0.68039  0.56549  1.0000 -0.4413014286
O   O61       1.0  0.41397  0.90048  0.66709  1.0000 -0.5333115449
O   O62       1.0  0.73339  0.74688  0.83291  1.0000 -0.5333115449
O   O63       1.0  0.76661  0.59952  0.01349  1.0000 -0.5333115449
O   O64       1.0  0.75312  0.48651  0.08603  1.0000 -0.5333115449
O   O65       1.0  0.74688  0.83291  0.73339  1.0000 -0.5351895751
O   O66       1.0  0.01349  0.76661  0.59952  1.0000 -0.5351895751
O   O67       1.0  0.48651  0.08603  0.75312  1.0000 -0.5333115449
O   O68       1.0  0.83291  0.73339  0.74688  1.0000 -0.5333115449
O   O69       1.0  0.66709  0.41397  0.90048  1.0000 -0.5333115449
O   O70       1.0  0.59952  0.01349  0.76661  1.0000 -0.5333115449
O   O71       1.0  0.90048  0.66709  0.41397  1.0000 -0.5333115449
O   O72       1.0  0.08603  0.75312  0.48651  1.0000 -0.5351895751
