# DDEC6 charges by PACMAN v1.1 (https://github.com/mtap-research/PACMAN-charge/)
data_2016[Cu][nbo]3[ASR]27
_chemical_formula_sum              "Cu6 H90 C132 O30"
_cell_length_a       21.3113
_cell_length_b       21.3113
_cell_length_c       21.3113
_cell_angle_alpha    114.401
_cell_angle_beta     114.401
_cell_angle_gamma    114.401

_symmetry_space_group_name_H-M    "P 1"
_symmetry_Int_Tables_number       1

loop_
  _symmetry_equiv_pos_as_xyz
  'x, y, z'

loop_
  _atom_site_type_symbol
  _atom_site_label
  _atom_site_symmetry_multiplicity
  _atom_site_fract_x
  _atom_site_fract_y
  _atom_site_fract_z
  _atom_site_occupancy
  _atom_site_charge
Cu  Cu1       1.0  0.91855  0.91855  0.40829  1.0000 0.8459890337
Cu  Cu2       1.0  0.91855  0.40829  0.91855  1.0000 0.8459890337
Cu  Cu3       1.0  0.40829  0.91855  0.91855  1.0000 0.8459890337
Cu  Cu4       1.0  0.08145  0.08145  0.59171  1.0000 0.8459890337
Cu  Cu5       1.0  0.59171  0.08145  0.08145  1.0000 0.8459890337
Cu  Cu6       1.0  0.08145  0.59171  0.08145  1.0000 0.8459890337
H   H1        1.0  0.86220  0.04100  0.29410  1.0000 0.1184570176
H   H2        1.0  0.04100  0.29410  0.86220  1.0000 0.1184570176
H   H3        1.0  0.29410  0.86220  0.04100  1.0000 0.1184570176
H   H4        1.0  0.95900  0.13780  0.70590  1.0000 0.1184570176
H   H5        1.0  0.70590  0.95900  0.13780  1.0000 0.1184570176
H   H6        1.0  0.13780  0.70590  0.95900  1.0000 0.1184570176
H   H7        1.0  0.13780  0.95900  0.70590  1.0000 0.1184570176
H   H8        1.0  0.95900  0.70590  0.13780  1.0000 0.1184570176
H   H9        1.0  0.70590  0.13780  0.95900  1.0000 0.1184570176
H   H10       1.0  0.04100  0.86220  0.29410  1.0000 0.1184570176
H   H11       1.0  0.29410  0.04100  0.86220  1.0000 0.1184570176
H   H12       1.0  0.86220  0.29410  0.04100  1.0000 0.1184570176
H   H13       1.0  0.86300  0.13690  0.27000  1.0000 0.1282596962
H   H14       1.0  0.13690  0.27000  0.86300  1.0000 0.1282596962
H   H15       1.0  0.27000  0.86300  0.13690  1.0000 0.1282596962
H   H16       1.0  0.86310  0.13700  0.73000  1.0000 0.1282596962
H   H17       1.0  0.73000  0.86310  0.13700  1.0000 0.1282596962
H   H18       1.0  0.13700  0.73000  0.86310  1.0000 0.1282596962
H   H19       1.0  0.13700  0.86310  0.73000  1.0000 0.1282596962
H   H20       1.0  0.86310  0.73000  0.13700  1.0000 0.1282596962
H   H21       1.0  0.73000  0.13700  0.86310  1.0000 0.1282596962
H   H22       1.0  0.13690  0.86300  0.27000  1.0000 0.1282596962
H   H23       1.0  0.27000  0.13690  0.86300  1.0000 0.1282596962
H   H24       1.0  0.86300  0.27000  0.13690  1.0000 0.1282596962
H   H25       1.0  0.11290  0.37360  0.54660  1.0000 0.1184570176
H   H26       1.0  0.37360  0.54660  0.11290  1.0000 0.1184570176
H   H27       1.0  0.54660  0.11290  0.37360  1.0000 0.1184570176
H   H28       1.0  0.62640  0.88710  0.45340  1.0000 0.1184570176
H   H29       1.0  0.45340  0.62640  0.88710  1.0000 0.1184570176
H   H30       1.0  0.88710  0.45340  0.62640  1.0000 0.1184570176
H   H31       1.0  0.88710  0.62640  0.45340  1.0000 0.1184570176
H   H32       1.0  0.62640  0.45340  0.88710  1.0000 0.1184570176
H   H33       1.0  0.45340  0.88710  0.62640  1.0000 0.1184570176
H   H34       1.0  0.37360  0.11290  0.54660  1.0000 0.1184570176
H   H35       1.0  0.54660  0.37360  0.11290  1.0000 0.1184570176
H   H36       1.0  0.11290  0.54660  0.37360  1.0000 0.1184570176
H   H37       1.0  0.11750  0.27880  0.56930  1.0000 0.1282596962
H   H38       1.0  0.27880  0.56930  0.11750  1.0000 0.1282596962
H   H39       1.0  0.56930  0.11750  0.27880  1.0000 0.1282596962
H   H40       1.0  0.72120  0.88250  0.43070  1.0000 0.1282596962
H   H41       1.0  0.43070  0.72120  0.88250  1.0000 0.1282596962
H   H42       1.0  0.88250  0.43070  0.72120  1.0000 0.1282596962
H   H43       1.0  0.88250  0.72120  0.43070  1.0000 0.1282596962
H   H44       1.0  0.72120  0.43070  0.88250  1.0000 0.1282596962
H   H45       1.0  0.43070  0.88250  0.72120  1.0000 0.1282596962
H   H46       1.0  0.27880  0.11750  0.56930  1.0000 0.1282596962
H   H47       1.0  0.56930  0.27880  0.11750  1.0000 0.1282596962
H   H48       1.0  0.11750  0.56930  0.27880  1.0000 0.1282596962
H   H49       1.0  0.99520  0.39700  0.50800  1.0000 0.1127141384
H   H50       1.0  0.39700  0.50800  0.99520  1.0000 0.1127141384
H   H51       1.0  0.50800  0.99520  0.39700  1.0000 0.1127141384
H   H52       1.0  0.60300  0.00480  0.49200  1.0000 0.1127141384
H   H53       1.0  0.49200  0.60300  0.00480  1.0000 0.1127141384
H   H54       1.0  0.00480  0.49200  0.60300  1.0000 0.1127141384
H   H55       1.0  0.00480  0.60300  0.49200  1.0000 0.1127141384
H   H56       1.0  0.60300  0.49200  0.00480  1.0000 0.1127141384
H   H57       1.0  0.49200  0.00480  0.60300  1.0000 0.1127141384
H   H58       1.0  0.39700  0.99520  0.50800  1.0000 0.1127141384
H   H59       1.0  0.50800  0.39700  0.99520  1.0000 0.1127141384
H   H60       1.0  0.99520  0.50800  0.39700  1.0000 0.1127141384
H   H61       1.0  0.10010  0.36510  0.32130  1.0000 0.0682144816
H   H62       1.0  0.36510  0.32130  0.10010  1.0000 0.0682144816
H   H63       1.0  0.32130  0.10010  0.36510  1.0000 0.0682144816
H   H64       1.0  0.63490  0.89990  0.67870  1.0000 0.0682144816
H   H65       1.0  0.67870  0.63490  0.89990  1.0000 0.0682144816
H   H66       1.0  0.89990  0.67870  0.63490  1.0000 0.0682144816
H   H67       1.0  0.89990  0.63490  0.67870  1.0000 0.0682144816
H   H68       1.0  0.63490  0.67870  0.89990  1.0000 0.0682144816
H   H69       1.0  0.67870  0.89990  0.63490  1.0000 0.0682144816
H   H70       1.0  0.36510  0.10010  0.32130  1.0000 0.0682144816
H   H71       1.0  0.32130  0.36510  0.10010  1.0000 0.0682144816
H   H72       1.0  0.10010  0.32130  0.36510  1.0000 0.0682144816
H   H73       1.0  0.12440  0.26580  0.26580  1.0000 0.1127141384
H   H74       1.0  0.26580  0.26580  0.12440  1.0000 0.1127141384
H   H75       1.0  0.26580  0.12440  0.26580  1.0000 0.1127141384
H   H76       1.0  0.73420  0.87560  0.73420  1.0000 0.1127141384
H   H77       1.0  0.73420  0.73420  0.87560  1.0000 0.1127141384
H   H78       1.0  0.87560  0.73420  0.73420  1.0000 0.1127141384
H   H79       1.0  0.02600  0.22090  0.17720  1.0000 0.1184570176
H   H80       1.0  0.22090  0.17720  0.02600  1.0000 0.1184570176
H   H81       1.0  0.17720  0.02600  0.22090  1.0000 0.1184570176
H   H82       1.0  0.77910  0.97400  0.82280  1.0000 0.1184570176
H   H83       1.0  0.82280  0.77910  0.97400  1.0000 0.1184570176
H   H84       1.0  0.97400  0.82280  0.77910  1.0000 0.1184570176
H   H85       1.0  0.97400  0.77910  0.82280  1.0000 0.1184570176
H   H86       1.0  0.77910  0.82280  0.97400  1.0000 0.1184570176
H   H87       1.0  0.82280  0.97400  0.77910  1.0000 0.1184570176
H   H88       1.0  0.22090  0.02600  0.17720  1.0000 0.1184570176
H   H89       1.0  0.17720  0.22090  0.02600  1.0000 0.1184570176
H   H90       1.0  0.02600  0.17720  0.22090  1.0000 0.1184570176
C   C1        1.0  0.98787  0.08805  0.45258  1.0000 0.5757736515
C   C2        1.0  0.08805  0.45258  0.98787  1.0000 0.5757736515
C   C3        1.0  0.45258  0.98787  0.08805  1.0000 0.5757736515
C   C4        1.0  0.91195  0.01213  0.54742  1.0000 0.5757736515
C   C5        1.0  0.54742  0.91195  0.01213  1.0000 0.5757736515
C   C6        1.0  0.01213  0.54742  0.91195  1.0000 0.5757736515
C   C7        1.0  0.01213  0.91195  0.54742  1.0000 0.5757736515
C   C8        1.0  0.91195  0.54742  0.01213  1.0000 0.5757736515
C   C9        1.0  0.54742  0.01213  0.91195  1.0000 0.5757736515
C   C10       1.0  0.08805  0.98787  0.45258  1.0000 0.5757736515
C   C11       1.0  0.45258  0.08805  0.98787  1.0000 0.5757736515
C   C12       1.0  0.98787  0.45258  0.08805  1.0000 0.5757736515
C   C13       1.0  0.98673  0.14825  0.43402  1.0000 -0.0287794925
C   C14       1.0  0.14825  0.43402  0.98673  1.0000 -0.0287794925
C   C15       1.0  0.43402  0.98673  0.14825  1.0000 -0.0287794925
C   C16       1.0  0.85175  0.01327  0.56598  1.0000 -0.0287794925
C   C17       1.0  0.56598  0.85175  0.01327  1.0000 -0.0287794925
C   C18       1.0  0.01327  0.56598  0.85175  1.0000 -0.0287794925
C   C19       1.0  0.01327  0.85175  0.56598  1.0000 -0.0287794925
C   C20       1.0  0.85175  0.56598  0.01327  1.0000 -0.0287794925
C   C21       1.0  0.56598  0.01327  0.85175  1.0000 -0.0287794925
C   C22       1.0  0.14825  0.98673  0.43402  1.0000 -0.0287794925
C   C23       1.0  0.43402  0.14825  0.98673  1.0000 -0.0287794925
C   C24       1.0  0.98673  0.43402  0.14825  1.0000 -0.0287794925
C   C25       1.0  0.91302  0.10816  0.34562  1.0000 -0.0888114142
C   C26       1.0  0.10816  0.34562  0.91302  1.0000 -0.0888114142
C   C27       1.0  0.34562  0.91302  0.10816  1.0000 -0.0888114142
C   C28       1.0  0.89184  0.08698  0.65438  1.0000 -0.0888114142
C   C29       1.0  0.65438  0.89184  0.08698  1.0000 -0.0888114142
C   C30       1.0  0.08698  0.65438  0.89184  1.0000 -0.0888114142
C   C31       1.0  0.08698  0.89184  0.65438  1.0000 -0.0888114142
C   C32       1.0  0.89184  0.65438  0.08698  1.0000 -0.0888114142
C   C33       1.0  0.65438  0.08698  0.89184  1.0000 -0.0888114142
C   C34       1.0  0.10816  0.91302  0.34562  1.0000 -0.0888114142
C   C35       1.0  0.34562  0.10816  0.91302  1.0000 -0.0888114142
C   C36       1.0  0.91302  0.34562  0.10816  1.0000 -0.0888114142
C   C37       1.0  0.91266  0.16588  0.33146  1.0000 -0.1442534078
C   C38       1.0  0.16588  0.33146  0.91266  1.0000 -0.1442534078
C   C39       1.0  0.33146  0.91266  0.16588  1.0000 -0.1442534078
C   C40       1.0  0.83412  0.08734  0.66854  1.0000 -0.1442534078
C   C41       1.0  0.66854  0.83412  0.08734  1.0000 -0.1442534078
C   C42       1.0  0.08734  0.66854  0.83412  1.0000 -0.1442534078
C   C43       1.0  0.08734  0.83412  0.66854  1.0000 -0.1442534078
C   C44       1.0  0.83412  0.66854  0.08734  1.0000 -0.1442534078
C   C45       1.0  0.66854  0.08734  0.83412  1.0000 -0.1442534078
C   C46       1.0  0.16588  0.91266  0.33146  1.0000 -0.1442534078
C   C47       1.0  0.33146  0.16588  0.91266  1.0000 -0.1442534078
C   C48       1.0  0.91266  0.33146  0.16588  1.0000 -0.1442534078
C   C49       1.0  0.98443  0.26524  0.40663  1.0000 0.0897087121
C   C50       1.0  0.26524  0.40663  0.98443  1.0000 0.0897087121
C   C51       1.0  0.40663  0.98443  0.26524  1.0000 0.0897087121
C   C52       1.0  0.73476  0.01557  0.59337  1.0000 0.0897087121
C   C53       1.0  0.59337  0.73476  0.01557  1.0000 0.0897087121
C   C54       1.0  0.01557  0.59337  0.73476  1.0000 0.0897087121
C   C55       1.0  0.01557  0.73476  0.59337  1.0000 0.0897087121
C   C56       1.0  0.73476  0.59337  0.01557  1.0000 0.0897087121
C   C57       1.0  0.59337  0.01557  0.73476  1.0000 0.0897087121
C   C58       1.0  0.26524  0.98443  0.40663  1.0000 0.0897087121
C   C59       1.0  0.40663  0.26524  0.98443  1.0000 0.0897087121
C   C60       1.0  0.98443  0.40663  0.26524  1.0000 0.0897087121
C   C61       1.0  0.06185  0.30645  0.49560  1.0000 -0.1563979684
C   C62       1.0  0.30645  0.49560  0.06185  1.0000 -0.1563979684
C   C63       1.0  0.49560  0.06185  0.30645  1.0000 -0.1563979684
C   C64       1.0  0.69355  0.93815  0.50440  1.0000 -0.1563979684
C   C65       1.0  0.50440  0.69355  0.93815  1.0000 -0.1563979684
C   C66       1.0  0.93815  0.50440  0.69355  1.0000 -0.1563979684
C   C67       1.0  0.93815  0.69355  0.50440  1.0000 -0.1563979684
C   C68       1.0  0.69355  0.50440  0.93815  1.0000 -0.1563979684
C   C69       1.0  0.50440  0.93815  0.69355  1.0000 -0.1563979684
C   C70       1.0  0.30645  0.06185  0.49560  1.0000 -0.1563979684
C   C71       1.0  0.49560  0.30645  0.06185  1.0000 -0.1563979684
C   C72       1.0  0.06185  0.49560  0.30645  1.0000 -0.1563979684
C   C73       1.0  0.06429  0.24980  0.50961  1.0000 -0.0888114142
C   C74       1.0  0.24980  0.50961  0.06429  1.0000 -0.0888114142
C   C75       1.0  0.50961  0.06429  0.24980  1.0000 -0.0888114142
C   C76       1.0  0.75020  0.93571  0.49039  1.0000 -0.0888114142
C   C77       1.0  0.49039  0.75020  0.93571  1.0000 -0.0888114142
C   C78       1.0  0.93571  0.49039  0.75020  1.0000 -0.0888114142
C   C79       1.0  0.93571  0.75020  0.49039  1.0000 -0.0888114142
C   C80       1.0  0.75020  0.49039  0.93571  1.0000 -0.0888114142
C   C81       1.0  0.49039  0.93571  0.75020  1.0000 -0.0888114142
C   C82       1.0  0.24980  0.06429  0.50961  1.0000 -0.0888114142
C   C83       1.0  0.50961  0.24980  0.06429  1.0000 -0.0888114142
C   C84       1.0  0.06429  0.50961  0.24980  1.0000 -0.0888114142
C   C85       1.0  0.98183  0.32967  0.39700  1.0000 -0.0287794925
C   C86       1.0  0.32967  0.39700  0.98183  1.0000 -0.0287794925
C   C87       1.0  0.39700  0.98183  0.32967  1.0000 -0.0287794925
C   C88       1.0  0.67033  0.01817  0.60300  1.0000 -0.0287794925
C   C89       1.0  0.60300  0.67033  0.01817  1.0000 -0.0287794925
C   C90       1.0  0.01817  0.60300  0.67033  1.0000 -0.0287794925
C   C91       1.0  0.01817  0.67033  0.60300  1.0000 -0.0287794925
C   C92       1.0  0.67033  0.60300  0.01817  1.0000 -0.0287794925
C   C93       1.0  0.60300  0.01817  0.67033  1.0000 -0.0287794925
C   C94       1.0  0.32967  0.98183  0.39700  1.0000 -0.0287794925
C   C95       1.0  0.39700  0.32967  0.98183  1.0000 -0.0287794925
C   C96       1.0  0.98183  0.39700  0.32967  1.0000 -0.0287794925
C   C97       1.0  0.99130  0.39707  0.46293  1.0000 -0.1945191807
C   C98       1.0  0.39707  0.46293  0.99130  1.0000 -0.1945191807
C   C99       1.0  0.46293  0.99130  0.39707  1.0000 -0.1945191807
C   C100      1.0  0.60293  0.00870  0.53707  1.0000 -0.1945191807
C   C101      1.0  0.53707  0.60293  0.00870  1.0000 -0.1945191807
C   C102      1.0  0.00870  0.53707  0.60293  1.0000 -0.1945191807
C   C103      1.0  0.00870  0.60293  0.53707  1.0000 -0.1945191807
C   C104      1.0  0.60293  0.53707  0.00870  1.0000 -0.1945191807
C   C105      1.0  0.53707  0.00870  0.60293  1.0000 -0.1945191807
C   C106      1.0  0.39707  0.99130  0.46293  1.0000 -0.1945191807
C   C107      1.0  0.46293  0.39707  0.99130  1.0000 -0.1945191807
C   C108      1.0  0.99130  0.46293  0.39707  1.0000 -0.1945191807
C   C109      1.0  0.99518  0.46421  0.46421  1.0000 0.0682144816
C   C110      1.0  0.46421  0.46421  0.99518  1.0000 0.0682144816
C   C111      1.0  0.46421  0.99518  0.46421  1.0000 0.0682144816
C   C112      1.0  0.53579  0.00482  0.53579  1.0000 0.0682144816
C   C113      1.0  0.53579  0.53579  0.00482  1.0000 0.0682144816
C   C114      1.0  0.00482  0.53579  0.53579  1.0000 0.0682144816
C   C115      1.0  0.97532  0.32909  0.32909  1.0000 0.1601954129
C   C116      1.0  0.32909  0.32909  0.97532  1.0000 0.1601954129
C   C117      1.0  0.32909  0.97532  0.32909  1.0000 0.1601954129
C   C118      1.0  0.67091  0.02468  0.67091  1.0000 0.1601954129
C   C119      1.0  0.67091  0.67091  0.02468  1.0000 0.1601954129
C   C120      1.0  0.02468  0.67091  0.67091  1.0000 0.1601954129
C   C121      1.0  0.06470  0.30540  0.30540  1.0000 0.0196239956
C   C122      1.0  0.30540  0.30540  0.06470  1.0000 0.0196239956
C   C123      1.0  0.30540  0.06470  0.30540  1.0000 0.0196239956
C   C124      1.0  0.69460  0.93530  0.69460  1.0000 0.0196239956
C   C125      1.0  0.69460  0.69460  0.93530  1.0000 0.0196239956
C   C126      1.0  0.93530  0.69460  0.69460  1.0000 0.0196239956
C   C127      1.0  0.05990  0.23580  0.23580  1.0000 -0.3777185478
C   C128      1.0  0.23580  0.23580  0.05990  1.0000 -0.3777185478
C   C129      1.0  0.23580  0.05990  0.23580  1.0000 -0.3777185478
C   C130      1.0  0.76420  0.94010  0.76420  1.0000 -0.3777185478
C   C131      1.0  0.76420  0.76420  0.94010  1.0000 -0.3777185478
C   C132      1.0  0.94010  0.76420  0.76420  1.0000 -0.3777185478
O   O1        1.0  0.05896  0.13608  0.54025  1.0000 -0.5357984303
O   O2        1.0  0.13608  0.54025  0.05896  1.0000 -0.5357984303
O   O3        1.0  0.54025  0.05896  0.13608  1.0000 -0.5357984303
O   O4        1.0  0.86392  0.94104  0.45975  1.0000 -0.5357984303
O   O5        1.0  0.45975  0.86392  0.94104  1.0000 -0.5357984303
O   O6        1.0  0.94104  0.45975  0.86392  1.0000 -0.5357984303
O   O7        1.0  0.94104  0.86392  0.45975  1.0000 -0.5357984303
O   O8        1.0  0.86392  0.45975  0.94104  1.0000 -0.5357984303
O   O9        1.0  0.45975  0.94104  0.86392  1.0000 -0.5357984303
O   O10       1.0  0.13608  0.05896  0.54025  1.0000 -0.5357984303
O   O11       1.0  0.54025  0.13608  0.05896  1.0000 -0.5357984303
O   O12       1.0  0.05896  0.54025  0.13608  1.0000 -0.5357984303
O   O13       1.0  0.92068  0.99815  0.38329  1.0000 -0.5055972783
O   O14       1.0  0.99815  0.38329  0.92068  1.0000 -0.5055972783
O   O15       1.0  0.38329  0.92068  0.99815  1.0000 -0.5055972783
O   O16       1.0  0.00185  0.07932  0.61671  1.0000 -0.5055972783
O   O17       1.0  0.61671  0.00185  0.07932  1.0000 -0.5055972783
O   O18       1.0  0.07932  0.61671  0.00185  1.0000 -0.5055972783
O   O19       1.0  0.07932  0.00185  0.61671  1.0000 -0.5055972783
O   O20       1.0  0.00185  0.61671  0.07932  1.0000 -0.5055972783
O   O21       1.0  0.61671  0.07932  0.00185  1.0000 -0.5055972783
O   O22       1.0  0.99815  0.92068  0.38329  1.0000 -0.5055972783
O   O23       1.0  0.38329  0.99815  0.92068  1.0000 -0.5055972783
O   O24       1.0  0.92068  0.38329  0.99815  1.0000 -0.5055972783
O   O25       1.0  0.96784  0.26428  0.26428  1.0000 -0.2021252139
O   O26       1.0  0.26428  0.26428  0.96784  1.0000 -0.2021252139
O   O27       1.0  0.26428  0.96784  0.26428  1.0000 -0.2021252139
O   O28       1.0  0.73572  0.03216  0.73572  1.0000 -0.2021252139
O   O29       1.0  0.73572  0.73572  0.03216  1.0000 -0.2021252139
O   O30       1.0  0.03216  0.73572  0.73572  1.0000 -0.2021252139
