# DDEC6 charges by PACMAN v1.1 (https://github.com/mtap-research/PACMAN-charge/)
data_2016[Zr][flu]3[ASR]1
_chemical_formula_sum              "Zr6 H56 C80 O28"
_cell_length_a       24.3272
_cell_length_b       19.6315
_cell_length_c       18.3892
_cell_angle_alpha    79.4861
_cell_angle_beta     52.5072
_cell_angle_gamma    48.0067

_symmetry_space_group_name_H-M    "P 1"
_symmetry_Int_Tables_number       1

loop_
  _symmetry_equiv_pos_as_xyz
  'x, y, z'

loop_
  _atom_site_type_symbol
  _atom_site_label
  _atom_site_symmetry_multiplicity
  _atom_site_fract_x
  _atom_site_fract_y
  _atom_site_fract_z
  _atom_site_occupancy
  _atom_site_charge
Zr  Zr1       1.0  0.43188  0.43188  0.56812  1.0000 2.2472011519
Zr  Zr2       1.0  0.56812  0.56812  0.43188  1.0000 2.2472011519
Zr  Zr3       1.0  0.44436  0.55564  0.66342  1.0000 2.3053171111
Zr  Zr4       1.0  0.55564  0.44436  0.33658  1.0000 2.3053171111
Zr  Zr5       1.0  0.66342  0.33658  0.44436  1.0000 2.3053171111
Zr  Zr6       1.0  0.33658  0.66342  0.55564  1.0000 2.3053171111
H   H1        1.0  0.29290  0.60890  0.70710  1.0000 0.4167967213
H   H2        1.0  0.60890  0.29290  0.39110  1.0000 0.4167967213
H   H3        1.0  0.70710  0.39110  0.29290  1.0000 0.4167967213
H   H4        1.0  0.39110  0.70710  0.60890  1.0000 0.4167967213
H   H5        1.0  0.50090  0.31330  0.23110  1.0000 0.1090656628
H   H6        1.0  0.31330  0.50090  0.95470  1.0000 0.1090656628
H   H7        1.0  0.23110  0.95470  0.50090  1.0000 0.1090656628
H   H8        1.0  0.95470  0.23110  0.31330  1.0000 0.1090656628
H   H9        1.0  0.49910  0.68670  0.76890  1.0000 0.1090656628
H   H10       1.0  0.68670  0.49910  0.04530  1.0000 0.1090656628
H   H11       1.0  0.76890  0.04530  0.49910  1.0000 0.1090656628
H   H12       1.0  0.04530  0.76890  0.68670  1.0000 0.1090656628
H   H13       1.0  0.37050  0.30710  0.50570  1.0000 0.1206218822
H   H14       1.0  0.30710  0.37050  0.81670  1.0000 0.1206218822
H   H15       1.0  0.50570  0.81670  0.37050  1.0000 0.1206218822
H   H16       1.0  0.81670  0.50570  0.30710  1.0000 0.1206218822
H   H17       1.0  0.62950  0.69290  0.49430  1.0000 0.1206218822
H   H18       1.0  0.69290  0.62950  0.18330  1.0000 0.1206218822
H   H19       1.0  0.49430  0.18330  0.62950  1.0000 0.1206218822
H   H20       1.0  0.18330  0.49430  0.69290  1.0000 0.1206218822
H   H21       1.0  0.45110  0.25990  0.20310  1.0000 0.1090656628
H   H22       1.0  0.25990  0.45110  0.08590  1.0000 0.1090656628
H   H23       1.0  0.20310  0.08590  0.45110  1.0000 0.1090656628
H   H24       1.0  0.08590  0.20310  0.25990  1.0000 0.1090656628
H   H25       1.0  0.54890  0.74010  0.79690  1.0000 0.1090656628
H   H26       1.0  0.74010  0.54890  0.91410  1.0000 0.1090656628
H   H27       1.0  0.79690  0.91410  0.54890  1.0000 0.1090656628
H   H28       1.0  0.91410  0.79690  0.74010  1.0000 0.1090656628
H   H29       1.0  0.32330  0.25250  0.47630  1.0000 0.1090656628
H   H30       1.0  0.25250  0.32330  0.94790  1.0000 0.1090656628
H   H31       1.0  0.47630  0.94790  0.32330  1.0000 0.1090656628
H   H32       1.0  0.94790  0.47630  0.25250  1.0000 0.1090656628
H   H33       1.0  0.67670  0.74750  0.52370  1.0000 0.1090656628
H   H34       1.0  0.74750  0.67670  0.05210  1.0000 0.1090656628
H   H35       1.0  0.52370  0.05210  0.67670  1.0000 0.1090656628
H   H36       1.0  0.05210  0.52370  0.74750  1.0000 0.1090656628
H   H37       1.0  0.30270  0.30710  0.25650  1.0000 0.1002625051
H   H38       1.0  0.30710  0.30270  0.13370  1.0000 0.1002625051
H   H39       1.0  0.25650  0.13370  0.30270  1.0000 0.1002625051
H   H40       1.0  0.13370  0.25650  0.30710  1.0000 0.1002625051
H   H41       1.0  0.69730  0.69290  0.74350  1.0000 0.1002625051
H   H42       1.0  0.69290  0.69730  0.86630  1.0000 0.1002625051
H   H43       1.0  0.74350  0.86630  0.69730  1.0000 0.1002625051
H   H44       1.0  0.86630  0.74350  0.69290  1.0000 0.1002625051
H   H45       1.0  0.38550  0.11450  0.38550  1.0000 0.1002625051
H   H46       1.0  0.11450  0.38550  0.11450  1.0000 0.1002625051
H   H47       1.0  0.61450  0.88550  0.61450  1.0000 0.1002625051
H   H48       1.0  0.88550  0.61450  0.88550  1.0000 0.1002625051
H   H49       1.0  0.26890  0.73110  0.77750  1.0000 0.3965826107
H   H50       1.0  0.73110  0.26890  0.22250  1.0000 0.3965826107
H   H51       1.0  0.77750  0.22250  0.26890  1.0000 0.3965826107
H   H52       1.0  0.22250  0.77750  0.73110  1.0000 0.3965826107
H   H53       1.0  0.52850  0.37230  0.62770  1.0000 0.3574245645
H   H54       1.0  0.37230  0.52850  0.47150  1.0000 0.3574245645
H   H55       1.0  0.62770  0.47150  0.52850  1.0000 0.3574245645
H   H56       1.0  0.47150  0.62770  0.37230  1.0000 0.3574245645
C   C1        1.0  0.47109  0.34927  0.39153  1.0000 0.6014517618
C   C2        1.0  0.34927  0.47109  0.78811  1.0000 0.6014517618
C   C3        1.0  0.39153  0.78811  0.47109  1.0000 0.6014517618
C   C4        1.0  0.78811  0.39153  0.34927  1.0000 0.6014517618
C   C5        1.0  0.52891  0.65073  0.60847  1.0000 0.6014517618
C   C6        1.0  0.65073  0.52891  0.21189  1.0000 0.6014517618
C   C7        1.0  0.60847  0.21189  0.52891  1.0000 0.6014517618
C   C8        1.0  0.21189  0.60847  0.65073  1.0000 0.6014517618
C   C9        1.0  0.44276  0.31324  0.36916  1.0000 -0.0434538512
C   C10       1.0  0.31324  0.44276  0.87484  1.0000 -0.0434538512
C   C11       1.0  0.36916  0.87484  0.44276  1.0000 -0.0434538512
C   C12       1.0  0.87484  0.36916  0.31324  1.0000 -0.0434538512
C   C13       1.0  0.55724  0.68676  0.63084  1.0000 -0.0434538512
C   C14       1.0  0.68676  0.55724  0.12516  1.0000 -0.0434538512
C   C15       1.0  0.63084  0.12516  0.55724  1.0000 -0.0434538512
C   C16       1.0  0.12516  0.63084  0.68676  1.0000 -0.0434538512
C   C17       1.0  0.46486  0.30066  0.28114  1.0000 -0.1011015691
C   C18       1.0  0.30066  0.46486  0.95334  1.0000 -0.1011015691
C   C19       1.0  0.28114  0.95334  0.46486  1.0000 -0.1011015691
C   C20       1.0  0.95334  0.28114  0.30066  1.0000 -0.1011015691
C   C21       1.0  0.53514  0.69934  0.71886  1.0000 -0.1011015691
C   C22       1.0  0.69934  0.53514  0.04666  1.0000 -0.1011015691
C   C23       1.0  0.71886  0.04666  0.53514  1.0000 -0.1011015691
C   C24       1.0  0.04666  0.71886  0.69934  1.0000 -0.1011015691
C   C25       1.0  0.38775  0.29681  0.44379  1.0000 -0.1011015691
C   C26       1.0  0.29681  0.38775  0.87165  1.0000 -0.1011015691
C   C27       1.0  0.44379  0.87165  0.38775  1.0000 -0.1011015691
C   C28       1.0  0.87165  0.44379  0.29681  1.0000 -0.1011015691
C   C29       1.0  0.61225  0.70319  0.55621  1.0000 -0.1011015691
C   C30       1.0  0.70319  0.61225  0.12835  1.0000 -0.1011015691
C   C31       1.0  0.55621  0.12835  0.61225  1.0000 -0.1011015691
C   C32       1.0  0.12835  0.55621  0.70319  1.0000 -0.1011015691
C   C33       1.0  0.43466  0.26958  0.26462  1.0000 -0.1641947008
C   C34       1.0  0.26958  0.43466  0.03114  1.0000 -0.1641947008
C   C35       1.0  0.26462  0.03114  0.43466  1.0000 -0.1641947008
C   C36       1.0  0.03114  0.26462  0.26958  1.0000 -0.1641947008
C   C37       1.0  0.56534  0.73042  0.73538  1.0000 -0.1641947008
C   C38       1.0  0.73042  0.56534  0.96886  1.0000 -0.1641947008
C   C39       1.0  0.73538  0.96886  0.56534  1.0000 -0.1641947008
C   C40       1.0  0.96886  0.73538  0.73042  1.0000 -0.1641947008
C   C41       1.0  0.35895  0.26543  0.42637  1.0000 -0.1641947008
C   C42       1.0  0.26543  0.35895  0.94925  1.0000 -0.1641947008
C   C43       1.0  0.42637  0.94925  0.35895  1.0000 -0.1641947008
C   C44       1.0  0.94925  0.42637  0.26543  1.0000 -0.1641947008
C   C45       1.0  0.64105  0.73457  0.57363  1.0000 -0.1641947008
C   C46       1.0  0.73457  0.64105  0.05075  1.0000 -0.1653187948
C   C47       1.0  0.57363  0.05075  0.64105  1.0000 -0.1641947008
C   C48       1.0  0.05075  0.57363  0.73457  1.0000 -0.1641947008
C   C49       1.0  0.38054  0.25240  0.33860  1.0000 0.0704591868
C   C50       1.0  0.25240  0.38054  0.02846  1.0000 0.0704591868
C   C51       1.0  0.33860  0.02846  0.38054  1.0000 0.0704591868
C   C52       1.0  0.02846  0.33860  0.25240  1.0000 0.0704591868
C   C53       1.0  0.61946  0.74760  0.66140  1.0000 0.0704591868
C   C54       1.0  0.74760  0.61946  0.97154  1.0000 0.0704591868
C   C55       1.0  0.66140  0.97154  0.61946  1.0000 0.0704591868
C   C56       1.0  0.97154  0.66140  0.74760  1.0000 0.0704591868
C   C57       1.0  0.34883  0.21663  0.32297  1.0000 0.0704591868
C   C58       1.0  0.21663  0.34883  0.11157  1.0000 0.0704591868
C   C59       1.0  0.32297  0.11157  0.34883  1.0000 0.0704591868
C   C60       1.0  0.11157  0.32297  0.21663  1.0000 0.0704591868
C   C61       1.0  0.65117  0.78337  0.67703  1.0000 0.0704591868
C   C62       1.0  0.78337  0.65117  0.88843  1.0000 0.0704591868
C   C63       1.0  0.67703  0.88843  0.65117  1.0000 0.0704591868
C   C64       1.0  0.88843  0.67703  0.78337  1.0000 0.0704591868
C   C65       1.0  0.30745  0.25771  0.28049  1.0000 -0.2142137086
C   C66       1.0  0.25771  0.30745  0.15435  1.0000 -0.2142137086
C   C67       1.0  0.28049  0.15435  0.30745  1.0000 -0.2142137086
C   C68       1.0  0.15435  0.28049  0.25771  1.0000 -0.2142137086
C   C69       1.0  0.69255  0.74229  0.71951  1.0000 -0.2142137086
C   C70       1.0  0.74229  0.69255  0.84565  1.0000 -0.2142137086
C   C71       1.0  0.71951  0.84565  0.69255  1.0000 -0.2142137086
C   C72       1.0  0.84565  0.71951  0.74229  1.0000 -0.2142137086
C   C73       1.0  0.35676  0.14324  0.35676  1.0000 -0.2165125983
C   C74       1.0  0.14324  0.35676  0.14324  1.0000 -0.2165125983
C   C75       1.0  0.64324  0.85676  0.64324  1.0000 -0.2165125983
C   C76       1.0  0.85676  0.64324  0.85676  1.0000 -0.2165125983
C   C77       1.0  0.27231  0.22769  0.27231  1.0000 0.0767808405
C   C78       1.0  0.22769  0.27231  0.22769  1.0000 0.0767808405
C   C79       1.0  0.72769  0.77231  0.72769  1.0000 0.0767808405
C   C80       1.0  0.77231  0.72769  0.77231  1.0000 0.0767808405
O   O1        1.0  0.44317  0.35895  0.47685  1.0000 -0.618804984
O   O2        1.0  0.35895  0.44317  0.72103  1.0000 -0.618804984
O   O3        1.0  0.47685  0.72103  0.44317  1.0000 -0.618804984
O   O4        1.0  0.72103  0.47685  0.35895  1.0000 -0.618804984
O   O5        1.0  0.55683  0.64105  0.52315  1.0000 -0.618804984
O   O6        1.0  0.64105  0.55683  0.27897  1.0000 -0.618804984
O   O7        1.0  0.52315  0.27897  0.55683  1.0000 -0.618804984
O   O8        1.0  0.27897  0.52315  0.64105  1.0000 -0.618804984
O   O9        1.0  0.35917  0.57537  0.64083  1.0000 -1.0787660407
O   O10       1.0  0.57537  0.35917  0.42463  1.0000 -1.0787660407
O   O11       1.0  0.64083  0.42463  0.35917  1.0000 -1.0787660407
O   O12       1.0  0.42463  0.64083  0.57537  1.0000 -1.0787660407
O   O13       1.0  0.52040  0.41334  0.58666  1.0000 -1.0729208516
O   O14       1.0  0.41334  0.52040  0.47960  1.0000 -1.0729208516
O   O15       1.0  0.58666  0.47960  0.52040  1.0000 -1.0729208516
O   O16       1.0  0.47960  0.58666  0.41334  1.0000 -1.0729208516
O   O17       1.0  0.51778  0.36804  0.32736  1.0000 -0.618804984
O   O18       1.0  0.36804  0.51778  0.78682  1.0000 -0.618804984
O   O19       1.0  0.32736  0.78682  0.51778  1.0000 -0.618804984
O   O20       1.0  0.78682  0.32736  0.36804  1.0000 -0.618804984
O   O21       1.0  0.48222  0.63196  0.67264  1.0000 -0.618804984
O   O22       1.0  0.63196  0.48222  0.21318  1.0000 -0.618804984
O   O23       1.0  0.67264  0.21318  0.48222  1.0000 -0.618804984
O   O24       1.0  0.21318  0.67264  0.63196  1.0000 -0.618804984
O   O25       1.0  0.30615  0.69385  0.78955  1.0000 -0.9374473023
O   O26       1.0  0.69385  0.30615  0.21045  1.0000 -0.9374473023
O   O27       1.0  0.78955  0.21045  0.30615  1.0000 -0.9374473023
O   O28       1.0  0.21045  0.78955  0.69385  1.0000 -0.9374473023
