# DDEC6 charges by PACMAN v1.1 (https://github.com/mtap-research/PACMAN-charge/)
data_2016[Cd][nan]3[ASR]21
_chemical_formula_sum              "Cd4 H20 C16 N36"
_cell_length_a       11.9137
_cell_length_b       11.9137
_cell_length_c       8.4146
_cell_angle_alpha    75.8601
_cell_angle_beta     104.14
_cell_angle_gamma    130.621

_symmetry_space_group_name_H-M    "P 1"
_symmetry_Int_Tables_number       1

loop_
  _symmetry_equiv_pos_as_xyz
  'x, y, z'

loop_
  _atom_site_type_symbol
  _atom_site_label
  _atom_site_symmetry_multiplicity
  _atom_site_fract_x
  _atom_site_fract_y
  _atom_site_fract_z
  _atom_site_occupancy
  _atom_site_charge
Cd  Cd1       1.0  0.50000  0.00000  0.00000  1.0000 0.6740035438
Cd  Cd2       1.0  0.00000  0.50000  0.50000  1.0000 0.6770259165
Cd  Cd3       1.0  0.09675  0.09675  0.25000  1.0000 0.6062429571
Cd  Cd4       1.0  0.90325  0.90325  0.75000  1.0000 0.6062429571
H   H1        1.0  0.26650  0.40750  0.16900  1.0000 0.2478127503
H   H2        1.0  0.40750  0.26650  0.33100  1.0000 0.2478127503
H   H3        1.0  0.73350  0.59250  0.83100  1.0000 0.2478127503
H   H4        1.0  0.59250  0.73350  0.66900  1.0000 0.2478127503
H   H5        1.0  0.98540  0.32540  0.13500  1.0000 0.1272808486
H   H6        1.0  0.32540  0.98540  0.36500  1.0000 0.1272808486
H   H7        1.0  0.01460  0.67460  0.86500  1.0000 0.1272808486
H   H8        1.0  0.67460  0.01460  0.63500  1.0000 0.1272808486
H   H9        1.0  0.13470  0.47130  0.20210  1.0000 0.1272808486
H   H10       1.0  0.47130  0.13470  0.29790  1.0000 0.1272808486
H   H11       1.0  0.86530  0.52870  0.79790  1.0000 0.1272808486
H   H12       1.0  0.52870  0.86530  0.70210  1.0000 0.1272808486
H   H13       1.0  0.20900  0.35820  0.90760  1.0000 0.1224520137
H   H14       1.0  0.35820  0.20900  0.59240  1.0000 0.1224520137
H   H15       1.0  0.79100  0.64180  0.09240  1.0000 0.1224520137
H   H16       1.0  0.64180  0.79100  0.40760  1.0000 0.1224520137
H   H17       1.0  0.04900  0.30500  0.90690  1.0000 0.1224520137
H   H18       1.0  0.30500  0.04900  0.59310  1.0000 0.1224520137
H   H19       1.0  0.95100  0.69500  0.09310  1.0000 0.1224520137
H   H20       1.0  0.69500  0.95100  0.40690  1.0000 0.1224520137
C   C1        1.0  0.05309  0.29051  0.37500  1.0000 0.2795512998
C   C2        1.0  0.29051  0.05309  0.12500  1.0000 0.2795512998
C   C3        1.0  0.94691  0.70949  0.62500  1.0000 0.2795512998
C   C4        1.0  0.70949  0.94691  0.87500  1.0000 0.2795512998
C   C5        1.0  0.07991  0.36549  0.20280  1.0000 -0.1856210618
C   C6        1.0  0.36549  0.07991  0.29720  1.0000 -0.1856210618
C   C7        1.0  0.92009  0.63451  0.79720  1.0000 -0.1856210618
C   C8        1.0  0.63451  0.92009  0.70280  1.0000 -0.1856210618
C   C9        1.0  0.20802  0.53138  0.89350  1.0000 0.2795512998
C   C10       1.0  0.53138  0.20802  0.60650  1.0000 0.2795512998
C   C11       1.0  0.79198  0.46862  0.10650  1.0000 0.2795512998
C   C12       1.0  0.46862  0.79198  0.39350  1.0000 0.2795512998
C   C13       1.0  0.15249  0.37411  0.95100  1.0000 -0.1743443585
C   C14       1.0  0.37411  0.15249  0.54900  1.0000 -0.1743443585
C   C15       1.0  0.84751  0.62589  0.04900  1.0000 -0.1743443585
C   C16       1.0  0.62589  0.84751  0.45100  1.0000 -0.1743443585
N   N1        1.0  0.04464  0.17116  0.42920  1.0000 -0.2521195425
N   N2        1.0  0.17116  0.04464  0.07080  1.0000 -0.2521195425
N   N3        1.0  0.95536  0.82884  0.57080  1.0000 -0.2521195425
N   N4        1.0  0.82884  0.95536  0.92920  1.0000 -0.2521195425
N   N5        1.0  0.00582  0.12878  0.58320  1.0000 -0.0494028977
N   N6        1.0  0.12878  0.00582  0.91680  1.0000 -0.0494028977
N   N7        1.0  0.99418  0.87122  0.41680  1.0000 -0.0494028977
N   N8        1.0  0.87122  0.99418  0.08320  1.0000 -0.0494028977
N   N9        1.0  0.99241  0.21959  0.61970  1.0000 -0.0800013276
N   N10       1.0  0.21959  0.99241  0.88030  1.0000 -0.0800013276
N   N11       1.0  0.00759  0.78041  0.38030  1.0000 -0.0800013276
N   N12       1.0  0.78041  0.00759  0.11970  1.0000 -0.0800013276
N   N13       1.0  0.02309  0.32391  0.49110  1.0000 -0.2205019048
N   N14       1.0  0.32391  0.02309  0.00890  1.0000 -0.2205019048
N   N15       1.0  0.97691  0.67609  0.50890  1.0000 -0.2205019048
N   N16       1.0  0.67609  0.97691  0.99110  1.0000 -0.2205019048
N   N17       1.0  0.32123  0.64577  0.97610  1.0000 -0.3098300076
N   N18       1.0  0.64577  0.32123  0.52390  1.0000 -0.3098300076
N   N19       1.0  0.67877  0.35423  0.02390  1.0000 -0.3098300076
N   N20       1.0  0.35423  0.67877  0.47610  1.0000 -0.3098300076
N   N21       1.0  0.33162  0.76338  0.89040  1.0000 -0.0494028977
N   N22       1.0  0.76338  0.33162  0.60960  1.0000 -0.0494028977
N   N23       1.0  0.66838  0.23662  0.10960  1.0000 -0.0494028977
N   N24       1.0  0.23662  0.66838  0.39040  1.0000 -0.0494028977
N   N25       1.0  0.23165  0.72255  0.76180  1.0000 -0.0915003303
N   N26       1.0  0.72255  0.23165  0.73820  1.0000 -0.0915003303
N   N27       1.0  0.76835  0.27745  0.23820  1.0000 -0.0915003303
N   N28       1.0  0.27745  0.76835  0.26180  1.0000 -0.0915003303
N   N29       1.0  0.15031  0.57409  0.76120  1.0000 -0.2672677948
N   N30       1.0  0.57409  0.15031  0.73880  1.0000 -0.2672677948
N   N31       1.0  0.84969  0.42591  0.23880  1.0000 -0.2672677948
N   N32       1.0  0.42591  0.84969  0.26120  1.0000 -0.2672677948
N   N33       1.0  0.16595  0.34225  0.13320  1.0000 -0.2672677948
N   N34       1.0  0.34225  0.16595  0.36680  1.0000 -0.2672677948
N   N35       1.0  0.83405  0.65775  0.86680  1.0000 -0.2672677948
N   N36       1.0  0.65775  0.83405  0.63320  1.0000 -0.2672677948
