# DDEC6 charges by PACMAN v1.1 (https://github.com/mtap-research/PACMAN-charge/)
data_2016[Cu][nbo]3[ASR]33
_chemical_formula_sum              "Cu6 H90 C132 O30"
_cell_length_a       21.7425
_cell_length_b       21.7425
_cell_length_c       21.7425
_cell_angle_alpha    105.475
_cell_angle_beta     105.475
_cell_angle_gamma    105.475

_symmetry_space_group_name_H-M    "P 1"
_symmetry_Int_Tables_number       1

loop_
  _symmetry_equiv_pos_as_xyz
  'x, y, z'

loop_
  _atom_site_type_symbol
  _atom_site_label
  _atom_site_symmetry_multiplicity
  _atom_site_fract_x
  _atom_site_fract_y
  _atom_site_fract_z
  _atom_site_occupancy
  _atom_site_charge
Cu  Cu1       1.0  0.46382  0.93486  0.46382  1.0000 0.849748883
Cu  Cu2       1.0  0.93486  0.46382  0.46382  1.0000 0.849748883
Cu  Cu3       1.0  0.46382  0.46382  0.93486  1.0000 0.849748883
Cu  Cu4       1.0  0.06514  0.53618  0.53618  1.0000 0.849748883
Cu  Cu5       1.0  0.53618  0.06514  0.53618  1.0000 0.849748883
Cu  Cu6       1.0  0.53618  0.53618  0.06514  1.0000 0.849748883
H   H1        1.0  0.44170  0.86540  0.62710  1.0000 0.1304629013
H   H2        1.0  0.86540  0.62710  0.44170  1.0000 0.1304629013
H   H3        1.0  0.62710  0.44170  0.86540  1.0000 0.1304629013
H   H4        1.0  0.13460  0.55830  0.37290  1.0000 0.1304629013
H   H5        1.0  0.37290  0.13460  0.55830  1.0000 0.1304629013
H   H6        1.0  0.55830  0.37290  0.13460  1.0000 0.1304629013
H   H7        1.0  0.55830  0.13460  0.37290  1.0000 0.1304629013
H   H8        1.0  0.13460  0.37290  0.55830  1.0000 0.1304629013
H   H9        1.0  0.37290  0.55830  0.13460  1.0000 0.1304629013
H   H10       1.0  0.86540  0.44170  0.62710  1.0000 0.1304629013
H   H11       1.0  0.62710  0.86540  0.44170  1.0000 0.1304629013
H   H12       1.0  0.44170  0.62710  0.86540  1.0000 0.1304629013
H   H13       1.0  0.44120  0.84550  0.72700  1.0000 0.1234676238
H   H14       1.0  0.84550  0.72700  0.44120  1.0000 0.1234676238
H   H15       1.0  0.72700  0.44120  0.84550  1.0000 0.1234676238
H   H16       1.0  0.15450  0.55880  0.27300  1.0000 0.1234676238
H   H17       1.0  0.27300  0.15450  0.55880  1.0000 0.1234676238
H   H18       1.0  0.55880  0.27300  0.15450  1.0000 0.1234676238
H   H19       1.0  0.55880  0.15450  0.27300  1.0000 0.1234676238
H   H20       1.0  0.15450  0.27300  0.55880  1.0000 0.1234676238
H   H21       1.0  0.27300  0.55880  0.15450  1.0000 0.1234676238
H   H22       1.0  0.84550  0.44120  0.72700  1.0000 0.1234676238
H   H23       1.0  0.72700  0.84550  0.44120  1.0000 0.1234676238
H   H24       1.0  0.44120  0.72700  0.84550  1.0000 0.1234676238
H   H25       1.0  0.57140  0.03960  0.83920  1.0000 0.1134955077
H   H26       1.0  0.03960  0.83920  0.57140  1.0000 0.1134955077
H   H27       1.0  0.83920  0.57140  0.03960  1.0000 0.1134955077
H   H28       1.0  0.96040  0.42860  0.16080  1.0000 0.1134955077
H   H29       1.0  0.16080  0.96040  0.42860  1.0000 0.1134955077
H   H30       1.0  0.42860  0.16080  0.96040  1.0000 0.1134955077
H   H31       1.0  0.42860  0.96040  0.16080  1.0000 0.1134955077
H   H32       1.0  0.96040  0.16080  0.42860  1.0000 0.1134955077
H   H33       1.0  0.16080  0.42860  0.96040  1.0000 0.1134955077
H   H34       1.0  0.03960  0.57140  0.83920  1.0000 0.1134955077
H   H35       1.0  0.83920  0.03960  0.57140  1.0000 0.1134955077
H   H36       1.0  0.57140  0.83920  0.03960  1.0000 0.1134955077
H   H37       1.0  0.56970  0.05980  0.73910  1.0000 0.1304629013
H   H38       1.0  0.05980  0.73910  0.56970  1.0000 0.1304629013
H   H39       1.0  0.73910  0.56970  0.05980  1.0000 0.1304629013
H   H40       1.0  0.94020  0.43030  0.26090  1.0000 0.1304629013
H   H41       1.0  0.26090  0.94020  0.43030  1.0000 0.1304629013
H   H42       1.0  0.43030  0.26090  0.94020  1.0000 0.1304629013
H   H43       1.0  0.43030  0.94020  0.26090  1.0000 0.1304629013
H   H44       1.0  0.94020  0.26090  0.43030  1.0000 0.1304629013
H   H45       1.0  0.26090  0.43030  0.94020  1.0000 0.1304629013
H   H46       1.0  0.05980  0.56970  0.73910  1.0000 0.1304629013
H   H47       1.0  0.73910  0.05980  0.56970  1.0000 0.1304629013
H   H48       1.0  0.56970  0.73910  0.05980  1.0000 0.1304629013
H   H49       1.0  0.50180  0.02040  0.90400  1.0000 0.1134955077
H   H50       1.0  0.02040  0.90400  0.50180  1.0000 0.1134955077
H   H51       1.0  0.90400  0.50180  0.02040  1.0000 0.1134955077
H   H52       1.0  0.97960  0.49820  0.09600  1.0000 0.1134955077
H   H53       1.0  0.09600  0.97960  0.49820  1.0000 0.1134955077
H   H54       1.0  0.49820  0.09600  0.97960  1.0000 0.1134955077
H   H55       1.0  0.49820  0.97960  0.09600  1.0000 0.1134955077
H   H56       1.0  0.97960  0.09600  0.49820  1.0000 0.1134955077
H   H57       1.0  0.09600  0.49820  0.97960  1.0000 0.1134955077
H   H58       1.0  0.02040  0.50180  0.90400  1.0000 0.1134955077
H   H59       1.0  0.90400  0.02040  0.50180  1.0000 0.1134955077
H   H60       1.0  0.50180  0.90400  0.02040  1.0000 0.1134955077
H   H61       1.0  0.60600  0.86710  0.82050  1.0000 0.0758171562
H   H62       1.0  0.86710  0.82050  0.60600  1.0000 0.0758171562
H   H63       1.0  0.82050  0.60600  0.86710  1.0000 0.0758171562
H   H64       1.0  0.13290  0.39400  0.17950  1.0000 0.0758171562
H   H65       1.0  0.17950  0.13290  0.39400  1.0000 0.0758171562
H   H66       1.0  0.39400  0.17950  0.13290  1.0000 0.0758171562
H   H67       1.0  0.39400  0.13290  0.17950  1.0000 0.0758171562
H   H68       1.0  0.13290  0.17950  0.39400  1.0000 0.0758171562
H   H69       1.0  0.17950  0.39400  0.13290  1.0000 0.0758171562
H   H70       1.0  0.86710  0.60600  0.82050  1.0000 0.0758171562
H   H71       1.0  0.82050  0.86710  0.60600  1.0000 0.0758171562
H   H72       1.0  0.60600  0.82050  0.86710  1.0000 0.0758171562
H   H73       1.0  0.61920  0.76520  0.76520  1.0000 0.1134955077
H   H74       1.0  0.76520  0.76520  0.61920  1.0000 0.1134955077
H   H75       1.0  0.76520  0.61920  0.76520  1.0000 0.1134955077
H   H76       1.0  0.23480  0.38080  0.23480  1.0000 0.1134955077
H   H77       1.0  0.23480  0.23480  0.38080  1.0000 0.1134955077
H   H78       1.0  0.38080  0.23480  0.23480  1.0000 0.1134955077
H   H79       1.0  0.54850  0.72150  0.76770  1.0000 0.1134955077
H   H80       1.0  0.72150  0.76770  0.54850  1.0000 0.1134955077
H   H81       1.0  0.76770  0.54850  0.72150  1.0000 0.1134955077
H   H82       1.0  0.27850  0.45150  0.23230  1.0000 0.1134955077
H   H83       1.0  0.23230  0.27850  0.45150  1.0000 0.1134955077
H   H84       1.0  0.45150  0.23230  0.27850  1.0000 0.1134955077
H   H85       1.0  0.45150  0.27850  0.23230  1.0000 0.1134955077
H   H86       1.0  0.27850  0.23230  0.45150  1.0000 0.1134955077
H   H87       1.0  0.23230  0.45150  0.27850  1.0000 0.1134955077
H   H88       1.0  0.72150  0.54850  0.76770  1.0000 0.1134955077
H   H89       1.0  0.76770  0.72150  0.54850  1.0000 0.1134955077
H   H90       1.0  0.54850  0.76770  0.72150  1.0000 0.1134955077
C   C1        1.0  0.50503  0.97749  0.60885  1.0000 0.5779873464
C   C2        1.0  0.97749  0.60885  0.50503  1.0000 0.5779873464
C   C3        1.0  0.60885  0.50503  0.97749  1.0000 0.5779873464
C   C4        1.0  0.02251  0.49497  0.39115  1.0000 0.5779873464
C   C5        1.0  0.39115  0.02251  0.49497  1.0000 0.5779873464
C   C6        1.0  0.49497  0.39115  0.02251  1.0000 0.5779873464
C   C7        1.0  0.49497  0.02251  0.39115  1.0000 0.5779873464
C   C8        1.0  0.02251  0.39115  0.49497  1.0000 0.5779873464
C   C9        1.0  0.39115  0.49497  0.02251  1.0000 0.5779873464
C   C10       1.0  0.97749  0.50503  0.60885  1.0000 0.5779873464
C   C11       1.0  0.60885  0.97749  0.50503  1.0000 0.5779873464
C   C12       1.0  0.50503  0.60885  0.97749  1.0000 0.5779873464
C   C13       1.0  0.50643  0.96493  0.67383  1.0000 -0.0286721101
C   C14       1.0  0.96493  0.67383  0.50643  1.0000 -0.0286721101
C   C15       1.0  0.67383  0.50643  0.96493  1.0000 -0.0286721101
C   C16       1.0  0.03507  0.49357  0.32617  1.0000 -0.0286721101
C   C17       1.0  0.32617  0.03507  0.49357  1.0000 -0.0286721101
C   C18       1.0  0.49357  0.32617  0.03507  1.0000 -0.0286721101
C   C19       1.0  0.49357  0.03507  0.32617  1.0000 -0.0286721101
C   C20       1.0  0.03507  0.32617  0.49357  1.0000 -0.0286721101
C   C21       1.0  0.32617  0.49357  0.03507  1.0000 -0.0286721101
C   C22       1.0  0.96493  0.50643  0.67383  1.0000 -0.0286721101
C   C23       1.0  0.67383  0.96493  0.50643  1.0000 -0.0286721101
C   C24       1.0  0.50643  0.67383  0.96493  1.0000 -0.0286721101
C   C25       1.0  0.46814  0.90110  0.67038  1.0000 -0.0893180604
C   C26       1.0  0.90110  0.67038  0.46814  1.0000 -0.0893180604
C   C27       1.0  0.67038  0.46814  0.90110  1.0000 -0.0893180604
C   C28       1.0  0.09890  0.53186  0.32962  1.0000 -0.0893180604
C   C29       1.0  0.32962  0.09890  0.53186  1.0000 -0.0893180604
C   C30       1.0  0.53186  0.32962  0.09890  1.0000 -0.0893180604
C   C31       1.0  0.53186  0.09890  0.32962  1.0000 -0.0893180604
C   C32       1.0  0.09890  0.32962  0.53186  1.0000 -0.0893180604
C   C33       1.0  0.32962  0.53186  0.09890  1.0000 -0.0893180604
C   C34       1.0  0.90110  0.46814  0.67038  1.0000 -0.0893180604
C   C35       1.0  0.67038  0.90110  0.46814  1.0000 -0.0893180604
C   C36       1.0  0.46814  0.67038  0.90110  1.0000 -0.0893180604
C   C37       1.0  0.46827  0.88925  0.73001  1.0000 -0.1545820575
C   C38       1.0  0.88925  0.73001  0.46827  1.0000 -0.1545820575
C   C39       1.0  0.73001  0.46827  0.88925  1.0000 -0.1545820575
C   C40       1.0  0.11075  0.53173  0.26999  1.0000 -0.1545820575
C   C41       1.0  0.26999  0.11075  0.53173  1.0000 -0.1545820575
C   C42       1.0  0.53173  0.26999  0.11075  1.0000 -0.1545820575
C   C43       1.0  0.53173  0.11075  0.26999  1.0000 -0.1545820575
C   C44       1.0  0.11075  0.26999  0.53173  1.0000 -0.1545820575
C   C45       1.0  0.26999  0.53173  0.11075  1.0000 -0.1545820575
C   C46       1.0  0.88925  0.46827  0.73001  1.0000 -0.1545820575
C   C47       1.0  0.73001  0.88925  0.46827  1.0000 -0.1545820575
C   C48       1.0  0.46827  0.73001  0.88925  1.0000 -0.1545820575
C   C49       1.0  0.50750  0.94054  0.79435  1.0000 0.0875300078
C   C50       1.0  0.94054  0.79435  0.50750  1.0000 0.0875300078
C   C51       1.0  0.79435  0.50750  0.94054  1.0000 0.0875300078
C   C52       1.0  0.05946  0.49250  0.20565  1.0000 0.0875300078
C   C53       1.0  0.20565  0.05946  0.49250  1.0000 0.0875300078
C   C54       1.0  0.49250  0.20565  0.05946  1.0000 0.0875300078
C   C55       1.0  0.49250  0.05946  0.20565  1.0000 0.0875300078
C   C56       1.0  0.05946  0.20565  0.49250  1.0000 0.0875300078
C   C57       1.0  0.20565  0.49250  0.05946  1.0000 0.0875300078
C   C58       1.0  0.94054  0.50750  0.79435  1.0000 0.0875300078
C   C59       1.0  0.79435  0.94054  0.50750  1.0000 0.0875300078
C   C60       1.0  0.50750  0.79435  0.94054  1.0000 0.0875300078
C   C61       1.0  0.54464  0.00364  0.79620  1.0000 -0.1598544249
C   C62       1.0  0.00364  0.79620  0.54464  1.0000 -0.1598544249
C   C63       1.0  0.79620  0.54464  0.00364  1.0000 -0.1598544249
C   C64       1.0  0.99636  0.45536  0.20380  1.0000 -0.1598544249
C   C65       1.0  0.20380  0.99636  0.45536  1.0000 -0.1598544249
C   C66       1.0  0.45536  0.20380  0.99636  1.0000 -0.1598544249
C   C67       1.0  0.45536  0.99636  0.20380  1.0000 -0.1598544249
C   C68       1.0  0.99636  0.20380  0.45536  1.0000 -0.1598544249
C   C69       1.0  0.20380  0.45536  0.99636  1.0000 -0.1598544249
C   C70       1.0  0.00364  0.54464  0.79620  1.0000 -0.1598544249
C   C71       1.0  0.79620  0.00364  0.54464  1.0000 -0.1598544249
C   C72       1.0  0.54464  0.79620  0.00364  1.0000 -0.1598544249
C   C73       1.0  0.54388  0.01576  0.73639  1.0000 -0.0893180604
C   C74       1.0  0.01576  0.73639  0.54388  1.0000 -0.0893180604
C   C75       1.0  0.73639  0.54388  0.01576  1.0000 -0.0893180604
C   C76       1.0  0.98424  0.45612  0.26361  1.0000 -0.0893180604
C   C77       1.0  0.26361  0.98424  0.45612  1.0000 -0.0893180604
C   C78       1.0  0.45612  0.26361  0.98424  1.0000 -0.0893180604
C   C79       1.0  0.45612  0.98424  0.26361  1.0000 -0.0893180604
C   C80       1.0  0.98424  0.26361  0.45612  1.0000 -0.0893180604
C   C81       1.0  0.26361  0.45612  0.98424  1.0000 -0.0893180604
C   C82       1.0  0.01576  0.54388  0.73639  1.0000 -0.0893180604
C   C83       1.0  0.73639  0.01576  0.54388  1.0000 -0.0893180604
C   C84       1.0  0.54388  0.73639  0.01576  1.0000 -0.0893180604
C   C85       1.0  0.50660  0.92931  0.85886  1.0000 -0.0137721537
C   C86       1.0  0.92931  0.85886  0.50660  1.0000 -0.0137721537
C   C87       1.0  0.85886  0.50660  0.92931  1.0000 -0.0137721537
C   C88       1.0  0.07069  0.49340  0.14114  1.0000 -0.0137721537
C   C89       1.0  0.14114  0.07069  0.49340  1.0000 -0.0137721537
C   C90       1.0  0.49340  0.14114  0.07069  1.0000 -0.0137721537
C   C91       1.0  0.49340  0.07069  0.14114  1.0000 -0.0137721537
C   C92       1.0  0.07069  0.14114  0.49340  1.0000 -0.0137721537
C   C93       1.0  0.14114  0.49340  0.07069  1.0000 -0.0137721537
C   C94       1.0  0.92931  0.50660  0.85886  1.0000 -0.0137721537
C   C95       1.0  0.85886  0.92931  0.50660  1.0000 -0.0137721537
C   C96       1.0  0.50660  0.85886  0.92931  1.0000 -0.0137721537
C   C97       1.0  0.50310  0.97917  0.91036  1.0000 -0.1928278472
C   C98       1.0  0.97917  0.91036  0.50310  1.0000 -0.1928278472
C   C99       1.0  0.91036  0.50310  0.97917  1.0000 -0.1928278472
C   C100      1.0  0.02083  0.49690  0.08964  1.0000 -0.1928278472
C   C101      1.0  0.08964  0.02083  0.49690  1.0000 -0.1928278472
C   C102      1.0  0.49690  0.08964  0.02083  1.0000 -0.1928278472
C   C103      1.0  0.49690  0.02083  0.08964  1.0000 -0.1928278472
C   C104      1.0  0.02083  0.08964  0.49690  1.0000 -0.1928278472
C   C105      1.0  0.08964  0.49690  0.02083  1.0000 -0.1928278472
C   C106      1.0  0.97917  0.50310  0.91036  1.0000 -0.1928278472
C   C107      1.0  0.91036  0.97917  0.50310  1.0000 -0.1928278472
C   C108      1.0  0.50310  0.91036  0.97917  1.0000 -0.1928278472
C   C109      1.0  0.50130  0.97193  0.97193  1.0000 0.0721126431
C   C110      1.0  0.97193  0.97193  0.50130  1.0000 0.0721126431
C   C111      1.0  0.97193  0.50130  0.97193  1.0000 0.0721126431
C   C112      1.0  0.02807  0.49870  0.02807  1.0000 0.0721126431
C   C113      1.0  0.02807  0.02807  0.49870  1.0000 0.0721126431
C   C114      1.0  0.49870  0.02807  0.02807  1.0000 0.0721126431
C   C115      1.0  0.50968  0.86880  0.86880  1.0000 0.1618974863
C   C116      1.0  0.86880  0.86880  0.50968  1.0000 0.1618974863
C   C117      1.0  0.86880  0.50968  0.86880  1.0000 0.1618974863
C   C118      1.0  0.13120  0.49032  0.13120  1.0000 0.1618974863
C   C119      1.0  0.13120  0.13120  0.49032  1.0000 0.1618974863
C   C120      1.0  0.49032  0.13120  0.13120  1.0000 0.1618974863
C   C121      1.0  0.58106  0.82312  0.82312  1.0000 0.0001682484
C   C122      1.0  0.82312  0.82312  0.58106  1.0000 0.0001682484
C   C123      1.0  0.82312  0.58106  0.82312  1.0000 0.0001682484
C   C124      1.0  0.17688  0.41894  0.17688  1.0000 -0.0009162007
C   C125      1.0  0.17688  0.17688  0.41894  1.0000 -0.0009162007
C   C126      1.0  0.41894  0.17688  0.17688  1.0000 -0.0009162007
C   C127      1.0  0.57366  0.76442  0.76442  1.0000 -0.3742067681
C   C128      1.0  0.76442  0.76442  0.57366  1.0000 -0.3742067681
C   C129      1.0  0.76442  0.57366  0.76442  1.0000 -0.3742067681
C   C130      1.0  0.23558  0.42634  0.23558  1.0000 -0.3742067681
C   C131      1.0  0.23558  0.23558  0.42634  1.0000 -0.3742067681
C   C132      1.0  0.42634  0.23558  0.23558  1.0000 -0.3742067681
O   O1        1.0  0.53659  0.03873  0.61640  1.0000 -0.5197103288
O   O2        1.0  0.03873  0.61640  0.53659  1.0000 -0.5197103288
O   O3        1.0  0.61640  0.53659  0.03873  1.0000 -0.5197103288
O   O4        1.0  0.96127  0.46341  0.38360  1.0000 -0.5197103288
O   O5        1.0  0.38360  0.96127  0.46341  1.0000 -0.5197103288
O   O6        1.0  0.46341  0.38360  0.96127  1.0000 -0.5197103288
O   O7        1.0  0.46341  0.96127  0.38360  1.0000 -0.5197103288
O   O8        1.0  0.96127  0.38360  0.46341  1.0000 -0.5197103288
O   O9        1.0  0.38360  0.46341  0.96127  1.0000 -0.5197103288
O   O10       1.0  0.03873  0.53659  0.61640  1.0000 -0.5197103288
O   O11       1.0  0.61640  0.03873  0.53659  1.0000 -0.5197103288
O   O12       1.0  0.53659  0.61640  0.03873  1.0000 -0.5197103288
O   O13       1.0  0.47329  0.92771  0.55396  1.0000 -0.5048882829
O   O14       1.0  0.92771  0.55396  0.47329  1.0000 -0.5048882829
O   O15       1.0  0.55396  0.47329  0.92771  1.0000 -0.5048882829
O   O16       1.0  0.07229  0.52671  0.44604  1.0000 -0.5048882829
O   O17       1.0  0.44604  0.07229  0.52671  1.0000 -0.5048882829
O   O18       1.0  0.52671  0.44604  0.07229  1.0000 -0.5048882829
O   O19       1.0  0.52671  0.07229  0.44604  1.0000 -0.5048882829
O   O20       1.0  0.07229  0.44604  0.52671  1.0000 -0.5048882829
O   O21       1.0  0.44604  0.52671  0.07229  1.0000 -0.5048882829
O   O22       1.0  0.92771  0.47329  0.55396  1.0000 -0.5048882829
O   O23       1.0  0.55396  0.92771  0.47329  1.0000 -0.5048882829
O   O24       1.0  0.47329  0.55396  0.92771  1.0000 -0.5048882829
O   O25       1.0  0.51265  0.81696  0.81696  1.0000 -0.2492160441
O   O26       1.0  0.81696  0.81696  0.51265  1.0000 -0.2492160441
O   O27       1.0  0.81696  0.51265  0.81696  1.0000 -0.2492160441
O   O28       1.0  0.18304  0.48735  0.18304  1.0000 -0.2492160441
O   O29       1.0  0.18304  0.18304  0.48735  1.0000 -0.2492160441
O   O30       1.0  0.48735  0.18304  0.18304  1.0000 -0.2492160441
