# DDEC6 charges by PACMAN v1.1 (https://github.com/mtap-research/PACMAN-charge/)
data_2016[Cu][nbo]3[ASR]18
_chemical_formula_sum              "Cu6 H90 C132 O30"
_cell_length_a       21.5629
_cell_length_b       21.5629
_cell_length_c       21.5629
_cell_angle_alpha    108.801
_cell_angle_beta     108.801
_cell_angle_gamma    108.801

_symmetry_space_group_name_H-M    "P 1"
_symmetry_Int_Tables_number       1

loop_
  _symmetry_equiv_pos_as_xyz
  'x, y, z'

loop_
  _atom_site_type_symbol
  _atom_site_label
  _atom_site_symmetry_multiplicity
  _atom_site_fract_x
  _atom_site_fract_y
  _atom_site_fract_z
  _atom_site_occupancy
  _atom_site_charge
Cu  Cu1       1.0  0.56955  0.04543  0.04543  1.0000 0.8224707129
Cu  Cu2       1.0  0.04543  0.04543  0.56955  1.0000 0.8224707129
Cu  Cu3       1.0  0.04543  0.56955  0.04543  1.0000 0.8224707129
Cu  Cu4       1.0  0.95457  0.43045  0.95457  1.0000 0.8224707129
Cu  Cu5       1.0  0.95457  0.95457  0.43045  1.0000 0.8224707129
Cu  Cu6       1.0  0.43045  0.95457  0.95457  1.0000 0.8224707129
H   H1        1.0  0.64950  0.06770  0.88960  1.0000 0.129007144
H   H2        1.0  0.06770  0.88960  0.64950  1.0000 0.129007144
H   H3        1.0  0.88960  0.64950  0.06770  1.0000 0.129007144
H   H4        1.0  0.93230  0.35050  0.11040  1.0000 0.129007144
H   H5        1.0  0.11040  0.93230  0.35050  1.0000 0.129007144
H   H6        1.0  0.35050  0.11040  0.93230  1.0000 0.129007144
H   H7        1.0  0.35050  0.93230  0.11040  1.0000 0.129007144
H   H8        1.0  0.93230  0.11040  0.35050  1.0000 0.129007144
H   H9        1.0  0.11040  0.35050  0.93230  1.0000 0.129007144
H   H10       1.0  0.06770  0.64950  0.88960  1.0000 0.129007144
H   H11       1.0  0.88960  0.06770  0.64950  1.0000 0.129007144
H   H12       1.0  0.64950  0.88960  0.06770  1.0000 0.129007144
H   H13       1.0  0.66940  0.06770  0.78990  1.0000 0.1225191685
H   H14       1.0  0.06770  0.78990  0.66940  1.0000 0.1225191685
H   H15       1.0  0.78990  0.66940  0.06770  1.0000 0.1225191685
H   H16       1.0  0.93230  0.33060  0.21010  1.0000 0.1225191685
H   H17       1.0  0.21010  0.93230  0.33060  1.0000 0.1225191685
H   H18       1.0  0.33060  0.21010  0.93230  1.0000 0.1225191685
H   H19       1.0  0.33060  0.93230  0.21010  1.0000 0.1225191685
H   H20       1.0  0.93230  0.21010  0.33060  1.0000 0.1225191685
H   H21       1.0  0.21010  0.33060  0.93230  1.0000 0.1225191685
H   H22       1.0  0.06770  0.66940  0.78990  1.0000 0.1225191685
H   H23       1.0  0.78990  0.06770  0.66940  1.0000 0.1225191685
H   H24       1.0  0.66940  0.78990  0.06770  1.0000 0.1225191685
H   H25       1.0  0.45570  0.91650  0.64900  1.0000 0.109458524
H   H26       1.0  0.91650  0.64900  0.45570  1.0000 0.109458524
H   H27       1.0  0.64900  0.45570  0.91650  1.0000 0.109458524
H   H28       1.0  0.08350  0.54430  0.35100  1.0000 0.109458524
H   H29       1.0  0.35100  0.08350  0.54430  1.0000 0.109458524
H   H30       1.0  0.54430  0.35100  0.08350  1.0000 0.109458524
H   H31       1.0  0.54430  0.08350  0.35100  1.0000 0.109458524
H   H32       1.0  0.08350  0.35100  0.54430  1.0000 0.109458524
H   H33       1.0  0.35100  0.54430  0.08350  1.0000 0.109458524
H   H34       1.0  0.91650  0.45570  0.64900  1.0000 0.109458524
H   H35       1.0  0.64900  0.91650  0.45570  1.0000 0.109458524
H   H36       1.0  0.45570  0.64900  0.91650  1.0000 0.109458524
H   H37       1.0  0.43500  0.92010  0.75010  1.0000 0.129007144
H   H38       1.0  0.92010  0.75010  0.43500  1.0000 0.129007144
H   H39       1.0  0.75010  0.43500  0.92010  1.0000 0.129007144
H   H40       1.0  0.07990  0.56500  0.24990  1.0000 0.129007144
H   H41       1.0  0.24990  0.07990  0.56500  1.0000 0.129007144
H   H42       1.0  0.56500  0.24990  0.07990  1.0000 0.129007144
H   H43       1.0  0.56500  0.07990  0.24990  1.0000 0.129007144
H   H44       1.0  0.07990  0.24990  0.56500  1.0000 0.129007144
H   H45       1.0  0.24990  0.56500  0.07990  1.0000 0.129007144
H   H46       1.0  0.92010  0.43500  0.75010  1.0000 0.129007144
H   H47       1.0  0.75010  0.92010  0.43500  1.0000 0.129007144
H   H48       1.0  0.43500  0.75010  0.92010  1.0000 0.129007144
H   H49       1.0  0.47920  0.99370  0.59330  1.0000 0.109458524
H   H50       1.0  0.99370  0.59330  0.47920  1.0000 0.109458524
H   H51       1.0  0.59330  0.47920  0.99370  1.0000 0.109458524
H   H52       1.0  0.00630  0.52080  0.40670  1.0000 0.109458524
H   H53       1.0  0.40670  0.00630  0.52080  1.0000 0.109458524
H   H54       1.0  0.52080  0.40670  0.00630  1.0000 0.109458524
H   H55       1.0  0.52080  0.00630  0.40670  1.0000 0.109458524
H   H56       1.0  0.00630  0.40670  0.52080  1.0000 0.109458524
H   H57       1.0  0.40670  0.52080  0.00630  1.0000 0.109458524
H   H58       1.0  0.99370  0.47920  0.59330  1.0000 0.109458524
H   H59       1.0  0.59330  0.99370  0.47920  1.0000 0.109458524
H   H60       1.0  0.47920  0.59330  0.99370  1.0000 0.109458524
H   H61       1.0  0.67090  0.88230  0.62520  1.0000 0.0771569567
H   H62       1.0  0.88230  0.62520  0.67090  1.0000 0.0771569567
H   H63       1.0  0.62520  0.67090  0.88230  1.0000 0.0771569567
H   H64       1.0  0.11770  0.32910  0.37480  1.0000 0.0771569567
H   H65       1.0  0.37480  0.11770  0.32910  1.0000 0.0771569567
H   H66       1.0  0.32910  0.37480  0.11770  1.0000 0.0771569567
H   H67       1.0  0.32910  0.11770  0.37480  1.0000 0.0771569567
H   H68       1.0  0.11770  0.37480  0.32910  1.0000 0.0771569567
H   H69       1.0  0.37480  0.32910  0.11770  1.0000 0.0771569567
H   H70       1.0  0.88230  0.67090  0.62520  1.0000 0.0771569567
H   H71       1.0  0.62520  0.88230  0.67090  1.0000 0.0771569567
H   H72       1.0  0.67090  0.62520  0.88230  1.0000 0.0771569567
H   H73       1.0  0.71880  0.85960  0.71880  1.0000 0.109458524
H   H74       1.0  0.85960  0.71880  0.71880  1.0000 0.109458524
H   H75       1.0  0.71880  0.71880  0.85960  1.0000 0.109458524
H   H76       1.0  0.14040  0.28120  0.28120  1.0000 0.109458524
H   H77       1.0  0.28120  0.14040  0.28120  1.0000 0.109458524
H   H78       1.0  0.28120  0.28120  0.14040  1.0000 0.109458524
H   H79       1.0  0.73160  0.93680  0.77730  1.0000 0.109458524
H   H80       1.0  0.93680  0.77730  0.73160  1.0000 0.109458524
H   H81       1.0  0.77730  0.73160  0.93680  1.0000 0.109458524
H   H82       1.0  0.06320  0.26840  0.22270  1.0000 0.109458524
H   H83       1.0  0.22270  0.06320  0.26840  1.0000 0.109458524
H   H84       1.0  0.26840  0.22270  0.06320  1.0000 0.109458524
H   H85       1.0  0.26840  0.06320  0.22270  1.0000 0.109458524
H   H86       1.0  0.06320  0.22270  0.26840  1.0000 0.109458524
H   H87       1.0  0.22270  0.26840  0.06320  1.0000 0.109458524
H   H88       1.0  0.93680  0.73160  0.77730  1.0000 0.109458524
H   H89       1.0  0.77730  0.93680  0.73160  1.0000 0.109458524
H   H90       1.0  0.73160  0.77730  0.93680  1.0000 0.109458524
C   C1        1.0  0.52607  0.99554  0.89439  1.0000 0.56546371
C   C2        1.0  0.99554  0.89439  0.52607  1.0000 0.56546371
C   C3        1.0  0.89439  0.52607  0.99554  1.0000 0.56546371
C   C4        1.0  0.00446  0.47393  0.10561  1.0000 0.56546371
C   C5        1.0  0.10561  0.00446  0.47393  1.0000 0.56546371
C   C6        1.0  0.47393  0.10561  0.00446  1.0000 0.5649132015
C   C7        1.0  0.47393  0.00446  0.10561  1.0000 0.5649132015
C   C8        1.0  0.00446  0.10561  0.47393  1.0000 0.56546371
C   C9        1.0  0.10561  0.47393  0.00446  1.0000 0.56546371
C   C10       1.0  0.99554  0.52607  0.89439  1.0000 0.56546371
C   C11       1.0  0.89439  0.99554  0.52607  1.0000 0.56546371
C   C12       1.0  0.52607  0.89439  0.99554  1.0000 0.56546371
C   C13       1.0  0.53995  0.99277  0.82856  1.0000 -0.0212695744
C   C14       1.0  0.99277  0.82856  0.53995  1.0000 -0.0212695744
C   C15       1.0  0.82856  0.53995  0.99277  1.0000 -0.0212695744
C   C16       1.0  0.00723  0.46005  0.17144  1.0000 -0.0212695744
C   C17       1.0  0.17144  0.00723  0.46005  1.0000 -0.0212695744
C   C18       1.0  0.46005  0.17144  0.00723  1.0000 -0.0212695744
C   C19       1.0  0.46005  0.00723  0.17144  1.0000 -0.0212695744
C   C20       1.0  0.00723  0.17144  0.46005  1.0000 -0.0212695744
C   C21       1.0  0.17144  0.46005  0.00723  1.0000 -0.0212695744
C   C22       1.0  0.99277  0.53995  0.82856  1.0000 -0.0212695744
C   C23       1.0  0.82856  0.99277  0.53995  1.0000 -0.0212695744
C   C24       1.0  0.53995  0.82856  0.99277  1.0000 -0.0212695744
C   C25       1.0  0.60936  0.03674  0.84025  1.0000 -0.0962365294
C   C26       1.0  0.03674  0.84025  0.60936  1.0000 -0.0962365294
C   C27       1.0  0.84025  0.60936  0.03674  1.0000 -0.0962365294
C   C28       1.0  0.96326  0.39064  0.15975  1.0000 -0.0962365294
C   C29       1.0  0.15975  0.96326  0.39064  1.0000 -0.0962365294
C   C30       1.0  0.39064  0.15975  0.96326  1.0000 -0.0962365294
C   C31       1.0  0.39064  0.96326  0.15975  1.0000 -0.0962365294
C   C32       1.0  0.96326  0.15975  0.39064  1.0000 -0.0962365294
C   C33       1.0  0.15975  0.39064  0.96326  1.0000 -0.0962365294
C   C34       1.0  0.03674  0.60936  0.84025  1.0000 -0.0962365294
C   C35       1.0  0.84025  0.03674  0.60936  1.0000 -0.0962365294
C   C36       1.0  0.60936  0.84025  0.03674  1.0000 -0.0962365294
C   C37       1.0  0.62124  0.03636  0.78060  1.0000 -0.1445395157
C   C38       1.0  0.03636  0.78060  0.62124  1.0000 -0.1445395157
C   C39       1.0  0.78060  0.62124  0.03636  1.0000 -0.1445395157
C   C40       1.0  0.96364  0.37876  0.21940  1.0000 -0.1445395157
C   C41       1.0  0.21940  0.96364  0.37876  1.0000 -0.1445395157
C   C42       1.0  0.37876  0.21940  0.96364  1.0000 -0.1445395157
C   C43       1.0  0.37876  0.96364  0.21940  1.0000 -0.1445395157
C   C44       1.0  0.96364  0.21940  0.37876  1.0000 -0.1445395157
C   C45       1.0  0.21940  0.37876  0.96364  1.0000 -0.1445395157
C   C46       1.0  0.03636  0.62124  0.78060  1.0000 -0.1445395157
C   C47       1.0  0.78060  0.03636  0.62124  1.0000 -0.1445395157
C   C48       1.0  0.62124  0.78060  0.03636  1.0000 -0.1445395157
C   C49       1.0  0.56617  0.99263  0.71020  1.0000 0.0771569567
C   C50       1.0  0.99263  0.71020  0.56617  1.0000 0.0771569567
C   C51       1.0  0.71020  0.56617  0.99263  1.0000 0.0771569567
C   C52       1.0  0.00737  0.43383  0.28980  1.0000 0.0771569567
C   C53       1.0  0.28980  0.00737  0.43383  1.0000 0.0771569567
C   C54       1.0  0.43383  0.28980  0.00737  1.0000 0.0771569567
C   C55       1.0  0.43383  0.00737  0.28980  1.0000 0.0771569567
C   C56       1.0  0.00737  0.28980  0.43383  1.0000 0.0771569567
C   C57       1.0  0.28980  0.43383  0.00737  1.0000 0.0771569567
C   C58       1.0  0.99263  0.56617  0.71020  1.0000 0.0771569567
C   C59       1.0  0.71020  0.99263  0.56617  1.0000 0.0771569567
C   C60       1.0  0.56617  0.71020  0.99263  1.0000 0.0771569567
C   C61       1.0  0.49569  0.94810  0.69831  1.0000 -0.1661884753
C   C62       1.0  0.94810  0.69831  0.49569  1.0000 -0.1661884753
C   C63       1.0  0.69831  0.49569  0.94810  1.0000 -0.1661884753
C   C64       1.0  0.05190  0.50431  0.30169  1.0000 -0.1661884753
C   C65       1.0  0.30169  0.05190  0.50431  1.0000 -0.1661884753
C   C66       1.0  0.50431  0.30169  0.05190  1.0000 -0.1661884753
C   C67       1.0  0.50431  0.05190  0.30169  1.0000 -0.1661884753
C   C68       1.0  0.05190  0.30169  0.50431  1.0000 -0.1661884753
C   C69       1.0  0.30169  0.50431  0.05190  1.0000 -0.1661884753
C   C70       1.0  0.94810  0.49569  0.69831  1.0000 -0.1661884753
C   C71       1.0  0.69831  0.94810  0.49569  1.0000 -0.1661884753
C   C72       1.0  0.49569  0.69831  0.94810  1.0000 -0.1661884753
C   C73       1.0  0.48347  0.94970  0.75873  1.0000 -0.0962365294
C   C74       1.0  0.94970  0.75873  0.48347  1.0000 -0.0962365294
C   C75       1.0  0.75873  0.48347  0.94970  1.0000 -0.0962365294
C   C76       1.0  0.05030  0.51653  0.24127  1.0000 -0.0962365294
C   C77       1.0  0.24127  0.05030  0.51653  1.0000 -0.0962365294
C   C78       1.0  0.51653  0.24127  0.05030  1.0000 -0.0962365294
C   C79       1.0  0.51653  0.05030  0.24127  1.0000 -0.0962365294
C   C80       1.0  0.05030  0.24127  0.51653  1.0000 -0.0962365294
C   C81       1.0  0.24127  0.51653  0.05030  1.0000 -0.0962365294
C   C82       1.0  0.94970  0.48347  0.75873  1.0000 -0.0962365294
C   C83       1.0  0.75873  0.94970  0.48347  1.0000 -0.0962365294
C   C84       1.0  0.48347  0.75873  0.94970  1.0000 -0.0962365294
C   C85       1.0  0.57440  0.99189  0.64361  1.0000 -0.0212695744
C   C86       1.0  0.99189  0.64361  0.57440  1.0000 -0.0212695744
C   C87       1.0  0.64361  0.57440  0.99189  1.0000 -0.0212695744
C   C88       1.0  0.00811  0.42560  0.35639  1.0000 -0.0212695744
C   C89       1.0  0.35639  0.00811  0.42560  1.0000 -0.0212695744
C   C90       1.0  0.42560  0.35639  0.00811  1.0000 -0.0212695744
C   C91       1.0  0.42560  0.00811  0.35639  1.0000 -0.0212695744
C   C92       1.0  0.00811  0.35639  0.42560  1.0000 -0.0212695744
C   C93       1.0  0.35639  0.42560  0.00811  1.0000 -0.0212695744
C   C94       1.0  0.99189  0.57440  0.64361  1.0000 -0.0212695744
C   C95       1.0  0.64361  0.99189  0.57440  1.0000 -0.0212695744
C   C96       1.0  0.57440  0.64361  0.99189  1.0000 -0.0212695744
C   C97       1.0  0.52221  0.99498  0.58951  1.0000 -0.1908308087
C   C98       1.0  0.99498  0.58951  0.52221  1.0000 -0.1908308087
C   C99       1.0  0.58951  0.52221  0.99498  1.0000 -0.1908308087
C   C100      1.0  0.00502  0.47779  0.41049  1.0000 -0.1908308087
C   C101      1.0  0.41049  0.00502  0.47779  1.0000 -0.1908308087
C   C102      1.0  0.47779  0.41049  0.00502  1.0000 -0.1908308087
C   C103      1.0  0.47779  0.00502  0.41049  1.0000 -0.1908308087
C   C104      1.0  0.00502  0.41049  0.47779  1.0000 -0.1908308087
C   C105      1.0  0.41049  0.47779  0.00502  1.0000 -0.1908308087
C   C106      1.0  0.99498  0.52221  0.58951  1.0000 -0.1908308087
C   C107      1.0  0.58951  0.99498  0.52221  1.0000 -0.1908308087
C   C108      1.0  0.52221  0.58951  0.99498  1.0000 -0.1908308087
C   C109      1.0  0.52987  0.99985  0.52987  1.0000 0.0694130542
C   C110      1.0  0.99985  0.52987  0.52987  1.0000 0.0694130542
C   C111      1.0  0.52987  0.52987  0.99985  1.0000 0.0694130542
C   C112      1.0  0.00015  0.47012  0.47012  1.0000 0.0694130542
C   C113      1.0  0.47013  0.00015  0.47012  1.0000 0.0694130542
C   C114      1.0  0.47013  0.47012  0.00015  1.0000 0.0694130542
C   C115      1.0  0.63679  0.99062  0.63679  1.0000 0.1769064175
C   C116      1.0  0.99062  0.63679  0.63679  1.0000 0.1769064175
C   C117      1.0  0.63679  0.63679  0.99062  1.0000 0.1769064175
C   C118      1.0  0.00938  0.36321  0.36321  1.0000 0.1769064175
C   C119      1.0  0.36321  0.00938  0.36321  1.0000 0.1769064175
C   C120      1.0  0.36321  0.36321  0.00938  1.0000 0.1769064175
C   C121      1.0  0.67365  0.90910  0.67365  1.0000 -0.0212695744
C   C122      1.0  0.90910  0.67365  0.67365  1.0000 -0.0212695744
C   C123      1.0  0.67365  0.67365  0.90910  1.0000 -0.0212695744
C   C124      1.0  0.09090  0.32635  0.32635  1.0000 -0.0212695744
C   C125      1.0  0.32635  0.09090  0.32635  1.0000 -0.0212695744
C   C126      1.0  0.32635  0.32635  0.09090  1.0000 -0.0212695744
C   C127      1.0  0.72940  0.91070  0.72940  1.0000 -0.36724053
C   C128      1.0  0.91070  0.72940  0.72940  1.0000 -0.36724053
C   C129      1.0  0.72940  0.72940  0.91070  1.0000 -0.36724053
C   C130      1.0  0.08930  0.27060  0.27060  1.0000 -0.36724053
C   C131      1.0  0.27060  0.08930  0.27060  1.0000 -0.36724053
C   C132      1.0  0.27060  0.27060  0.08930  1.0000 -0.36724053
O   O1        1.0  0.46101  0.95795  0.87917  1.0000 -0.4999850062
O   O2        1.0  0.95795  0.87917  0.46101  1.0000 -0.4999850062
O   O3        1.0  0.87917  0.46101  0.95795  1.0000 -0.4999850062
O   O4        1.0  0.04205  0.53899  0.12083  1.0000 -0.4999850062
O   O5        1.0  0.12083  0.04205  0.53899  1.0000 -0.4999850062
O   O6        1.0  0.53899  0.12083  0.04205  1.0000 -0.4999850062
O   O7        1.0  0.53899  0.04205  0.12083  1.0000 -0.4999850062
O   O8        1.0  0.04205  0.12083  0.53899  1.0000 -0.4999850062
O   O9        1.0  0.12083  0.53899  0.04205  1.0000 -0.4999850062
O   O10       1.0  0.95795  0.46101  0.87917  1.0000 -0.4999850062
O   O11       1.0  0.87917  0.95795  0.46101  1.0000 -0.4999850062
O   O12       1.0  0.46101  0.87917  0.95795  1.0000 -0.4999850062
O   O13       1.0  0.57900  0.03363  0.95568  1.0000 -0.4738170224
O   O14       1.0  0.03363  0.95568  0.57900  1.0000 -0.4738170224
O   O15       1.0  0.95568  0.57900  0.03363  1.0000 -0.4738170224
O   O16       1.0  0.96637  0.42100  0.04432  1.0000 -0.4738170224
O   O17       1.0  0.04432  0.96637  0.42100  1.0000 -0.4738170224
O   O18       1.0  0.42100  0.04432  0.96637  1.0000 -0.4738170224
O   O19       1.0  0.42100  0.96637  0.04432  1.0000 -0.4738170224
O   O20       1.0  0.96637  0.04432  0.42100  1.0000 -0.4738170224
O   O21       1.0  0.04432  0.42100  0.96637  1.0000 -0.4738170224
O   O22       1.0  0.03363  0.57900  0.95568  1.0000 -0.4738170224
O   O23       1.0  0.95568  0.03363  0.57900  1.0000 -0.4738170224
O   O24       1.0  0.57900  0.95568  0.03363  1.0000 -0.4738170224
O   O25       1.0  0.68936  0.98687  0.68936  1.0000 -0.22450864
O   O26       1.0  0.98687  0.68936  0.68936  1.0000 -0.2265170721
O   O27       1.0  0.68937  0.68937  0.98687  1.0000 -0.2265170721
O   O28       1.0  0.01313  0.31063  0.31063  1.0000 -0.2265170721
O   O29       1.0  0.31063  0.01313  0.31063  1.0000 -0.2265170721
O   O30       1.0  0.31063  0.31063  0.01313  1.0000 -0.2265170721
