# DDEC6 charges by PACMAN v1.1 (https://github.com/mtap-research/PACMAN-charge/)
data_2016[Cu][nbo]3[ASR]20
_chemical_formula_sum              "Cu6 H90 C132 O30"
_cell_length_a       21.6625
_cell_length_b       21.6625
_cell_length_c       21.6625
_cell_angle_alpha    107.293
_cell_angle_beta     107.293
_cell_angle_gamma    107.293

_symmetry_space_group_name_H-M    "P 1"
_symmetry_Int_Tables_number       1

loop_
  _symmetry_equiv_pos_as_xyz
  'x, y, z'

loop_
  _atom_site_type_symbol
  _atom_site_label
  _atom_site_symmetry_multiplicity
  _atom_site_fract_x
  _atom_site_fract_y
  _atom_site_fract_z
  _atom_site_occupancy
  _atom_site_charge
Cu  Cu1       1.0  0.45793  0.45793  0.93196  1.0000 0.8639857468
Cu  Cu2       1.0  0.45793  0.93196  0.45793  1.0000 0.8639857468
Cu  Cu3       1.0  0.93196  0.45793  0.45793  1.0000 0.8639857468
Cu  Cu4       1.0  0.54207  0.54207  0.06804  1.0000 0.8639857468
Cu  Cu5       1.0  0.06804  0.54207  0.54207  1.0000 0.8639857468
Cu  Cu6       1.0  0.54207  0.06804  0.54207  1.0000 0.8639857468
H   H1        1.0  0.43520  0.61890  0.85740  1.0000 0.128869098
H   H2        1.0  0.61890  0.85740  0.43520  1.0000 0.128869098
H   H3        1.0  0.85740  0.43520  0.61890  1.0000 0.128869098
H   H4        1.0  0.38110  0.56480  0.14260  1.0000 0.128869098
H   H5        1.0  0.14260  0.38110  0.56480  1.0000 0.128869098
H   H6        1.0  0.56480  0.14260  0.38110  1.0000 0.128869098
H   H7        1.0  0.56480  0.38110  0.14260  1.0000 0.128869098
H   H8        1.0  0.38110  0.14260  0.56480  1.0000 0.128869098
H   H9        1.0  0.14260  0.56480  0.38110  1.0000 0.128869098
H   H10       1.0  0.61890  0.43520  0.85740  1.0000 0.128869098
H   H11       1.0  0.85740  0.61890  0.43520  1.0000 0.128869098
H   H12       1.0  0.43520  0.85740  0.61890  1.0000 0.128869098
H   H13       1.0  0.43960  0.71610  0.83590  1.0000 0.1195520521
H   H14       1.0  0.71610  0.83590  0.43960  1.0000 0.1195520521
H   H15       1.0  0.83590  0.43960  0.71610  1.0000 0.1195520521
H   H16       1.0  0.28390  0.56040  0.16410  1.0000 0.1195520521
H   H17       1.0  0.16410  0.28390  0.56040  1.0000 0.1195520521
H   H18       1.0  0.56040  0.16410  0.28390  1.0000 0.1195520521
H   H19       1.0  0.56040  0.28390  0.16410  1.0000 0.1195520521
H   H20       1.0  0.28390  0.16410  0.56040  1.0000 0.1195520521
H   H21       1.0  0.16410  0.56040  0.28390  1.0000 0.1195520521
H   H22       1.0  0.71610  0.43960  0.83590  1.0000 0.1195520521
H   H23       1.0  0.83590  0.71610  0.43960  1.0000 0.1195520521
H   H24       1.0  0.43960  0.83590  0.71610  1.0000 0.1195520521
H   H25       1.0  0.57670  0.84370  0.04040  1.0000 0.1195520521
H   H26       1.0  0.84370  0.04040  0.57670  1.0000 0.1195520521
H   H27       1.0  0.04040  0.57670  0.84370  1.0000 0.1195520521
H   H28       1.0  0.15630  0.42330  0.95960  1.0000 0.1195520521
H   H29       1.0  0.95960  0.15630  0.42330  1.0000 0.1195520521
H   H30       1.0  0.42330  0.95960  0.15630  1.0000 0.1195520521
H   H31       1.0  0.42330  0.15630  0.95960  1.0000 0.1195520521
H   H32       1.0  0.15630  0.95960  0.42330  1.0000 0.1195520521
H   H33       1.0  0.95960  0.42330  0.15630  1.0000 0.1195520521
H   H34       1.0  0.84370  0.57670  0.04040  1.0000 0.1195520521
H   H35       1.0  0.04040  0.84370  0.57670  1.0000 0.1195520521
H   H36       1.0  0.57670  0.04040  0.84370  1.0000 0.1195520521
H   H37       1.0  0.57520  0.74600  0.06220  1.0000 0.128869098
H   H38       1.0  0.74600  0.06220  0.57520  1.0000 0.128869098
H   H39       1.0  0.06220  0.57520  0.74600  1.0000 0.128869098
H   H40       1.0  0.25400  0.42480  0.93780  1.0000 0.128869098
H   H41       1.0  0.93780  0.25400  0.42480  1.0000 0.128869098
H   H42       1.0  0.42480  0.93780  0.25400  1.0000 0.128869098
H   H43       1.0  0.42480  0.25400  0.93780  1.0000 0.128869098
H   H44       1.0  0.25400  0.93780  0.42480  1.0000 0.128869098
H   H45       1.0  0.93780  0.42480  0.25400  1.0000 0.128869098
H   H46       1.0  0.74600  0.57520  0.06220  1.0000 0.128869098
H   H47       1.0  0.06220  0.74600  0.57520  1.0000 0.128869098
H   H48       1.0  0.57520  0.06220  0.74600  1.0000 0.128869098
H   H49       1.0  0.50080  0.90460  0.01850  1.0000 0.1120596986
H   H50       1.0  0.90460  0.01850  0.50080  1.0000 0.1120596986
H   H51       1.0  0.01850  0.50080  0.90460  1.0000 0.1120596986
H   H52       1.0  0.09540  0.49920  0.98150  1.0000 0.1120596986
H   H53       1.0  0.98150  0.09540  0.49920  1.0000 0.1120596986
H   H54       1.0  0.49920  0.98150  0.09540  1.0000 0.1120596986
H   H55       1.0  0.49920  0.09540  0.98150  1.0000 0.1120596986
H   H56       1.0  0.09540  0.98150  0.49920  1.0000 0.1120596986
H   H57       1.0  0.98150  0.49920  0.09540  1.0000 0.1120596986
H   H58       1.0  0.90460  0.50080  0.01850  1.0000 0.1120596986
H   H59       1.0  0.01850  0.90460  0.50080  1.0000 0.1120596986
H   H60       1.0  0.50080  0.01850  0.90460  1.0000 0.1120596986
H   H61       1.0  0.61970  0.83130  0.87690  1.0000 0.0799860014
H   H62       1.0  0.83130  0.87690  0.61970  1.0000 0.0799860014
H   H63       1.0  0.87690  0.61970  0.83130  1.0000 0.0799860014
H   H64       1.0  0.16870  0.38030  0.12310  1.0000 0.0799860014
H   H65       1.0  0.12310  0.16870  0.38030  1.0000 0.0799860014
H   H66       1.0  0.38030  0.12310  0.16870  1.0000 0.0799860014
H   H67       1.0  0.38030  0.16870  0.12310  1.0000 0.0799860014
H   H68       1.0  0.16870  0.12310  0.38030  1.0000 0.0799860014
H   H69       1.0  0.12310  0.38030  0.16870  1.0000 0.0799860014
H   H70       1.0  0.83130  0.61970  0.87690  1.0000 0.0799860014
H   H71       1.0  0.87690  0.83130  0.61970  1.0000 0.0799860014
H   H72       1.0  0.61970  0.87690  0.83130  1.0000 0.0799860014
H   H73       1.0  0.62430  0.76900  0.76900  1.0000 0.1195520521
H   H74       1.0  0.76900  0.76900  0.62430  1.0000 0.1120596986
H   H75       1.0  0.76900  0.62430  0.76900  1.0000 0.1195520521
H   H76       1.0  0.23100  0.37570  0.23100  1.0000 0.1120596986
H   H77       1.0  0.23100  0.23100  0.37570  1.0000 0.1120596986
H   H78       1.0  0.37570  0.23100  0.23100  1.0000 0.1120596986
H   H79       1.0  0.55320  0.77120  0.72630  1.0000 0.1120596986
H   H80       1.0  0.77120  0.72630  0.55320  1.0000 0.1120596986
H   H81       1.0  0.72630  0.55320  0.77120  1.0000 0.1120596986
H   H82       1.0  0.22880  0.44680  0.27370  1.0000 0.1120596986
H   H83       1.0  0.27370  0.22880  0.44680  1.0000 0.1120596986
H   H84       1.0  0.44680  0.27370  0.22880  1.0000 0.1120596986
H   H85       1.0  0.44680  0.22880  0.27370  1.0000 0.1120596986
H   H86       1.0  0.22880  0.27370  0.44680  1.0000 0.1120596986
H   H87       1.0  0.27370  0.44680  0.22880  1.0000 0.1120596986
H   H88       1.0  0.77120  0.55320  0.72630  1.0000 0.1120596986
H   H89       1.0  0.72630  0.77120  0.55320  1.0000 0.1120596986
H   H90       1.0  0.55320  0.72630  0.77120  1.0000 0.1120596986
C   C1        1.0  0.50445  0.60681  0.97454  1.0000 0.5778718837
C   C2        1.0  0.60681  0.97454  0.50445  1.0000 0.5778718837
C   C3        1.0  0.97454  0.50445  0.60681  1.0000 0.5778718837
C   C4        1.0  0.39319  0.49555  0.02546  1.0000 0.5778718837
C   C5        1.0  0.02546  0.39319  0.49555  1.0000 0.5778718837
C   C6        1.0  0.49555  0.02546  0.39319  1.0000 0.5778718837
C   C7        1.0  0.49555  0.39319  0.02546  1.0000 0.5778718837
C   C8        1.0  0.39319  0.02546  0.49555  1.0000 0.5778718837
C   C9        1.0  0.02546  0.49555  0.39319  1.0000 0.5778718837
C   C10       1.0  0.60681  0.50445  0.97454  1.0000 0.5778718837
C   C11       1.0  0.97454  0.60681  0.50445  1.0000 0.5778718837
C   C12       1.0  0.50445  0.97454  0.60681  1.0000 0.5778718837
C   C13       1.0  0.50630  0.67160  0.96160  1.0000 -0.0202508612
C   C14       1.0  0.67160  0.96160  0.50630  1.0000 -0.0202508612
C   C15       1.0  0.96160  0.50630  0.67160  1.0000 -0.0202508612
C   C16       1.0  0.32840  0.49370  0.03840  1.0000 -0.0202508612
C   C17       1.0  0.03840  0.32840  0.49370  1.0000 -0.0202508612
C   C18       1.0  0.49370  0.03840  0.32840  1.0000 -0.0202508612
C   C19       1.0  0.49370  0.32840  0.03840  1.0000 -0.0202508612
C   C20       1.0  0.32840  0.03840  0.49370  1.0000 -0.0202508612
C   C21       1.0  0.03840  0.49370  0.32840  1.0000 -0.0202508612
C   C22       1.0  0.67160  0.50630  0.96160  1.0000 -0.0202508612
C   C23       1.0  0.96160  0.67160  0.50630  1.0000 -0.0202508612
C   C24       1.0  0.50630  0.96160  0.67160  1.0000 -0.0202508612
C   C25       1.0  0.46441  0.66430  0.89409  1.0000 -0.0900059078
C   C26       1.0  0.66430  0.89409  0.46441  1.0000 -0.0900059078
C   C27       1.0  0.89409  0.46441  0.66430  1.0000 -0.0900059078
C   C28       1.0  0.33570  0.53559  0.10591  1.0000 -0.0900059078
C   C29       1.0  0.10591  0.33570  0.53559  1.0000 -0.0900059078
C   C30       1.0  0.53559  0.10591  0.33570  1.0000 -0.0900059078
C   C31       1.0  0.53559  0.33570  0.10591  1.0000 -0.0900059078
C   C32       1.0  0.33570  0.10591  0.53559  1.0000 -0.0900059078
C   C33       1.0  0.10591  0.53559  0.33570  1.0000 -0.0900059078
C   C34       1.0  0.66430  0.46441  0.89409  1.0000 -0.0900059078
C   C35       1.0  0.89409  0.66430  0.46441  1.0000 -0.0900059078
C   C36       1.0  0.46441  0.89409  0.66430  1.0000 -0.0900059078
C   C37       1.0  0.46588  0.72212  0.88160  1.0000 -0.1456122699
C   C38       1.0  0.72212  0.88160  0.46588  1.0000 -0.1456122699
C   C39       1.0  0.88160  0.46588  0.72212  1.0000 -0.1456122699
C   C40       1.0  0.27788  0.53412  0.11840  1.0000 -0.1456122699
C   C41       1.0  0.11840  0.27788  0.53412  1.0000 -0.1442621055
C   C42       1.0  0.53412  0.11840  0.27788  1.0000 -0.1442621055
C   C43       1.0  0.53412  0.27788  0.11840  1.0000 -0.1442621055
C   C44       1.0  0.27788  0.11840  0.53412  1.0000 -0.1442621055
C   C45       1.0  0.11840  0.53412  0.27788  1.0000 -0.1456122699
C   C46       1.0  0.72212  0.46588  0.88160  1.0000 -0.1456122699
C   C47       1.0  0.88160  0.72212  0.46588  1.0000 -0.1456122699
C   C48       1.0  0.46588  0.88160  0.72212  1.0000 -0.1456122699
C   C49       1.0  0.50702  0.79206  0.93762  1.0000 0.0856123235
C   C50       1.0  0.79206  0.93762  0.50702  1.0000 0.0856123235
C   C51       1.0  0.93762  0.50702  0.79206  1.0000 0.0856123235
C   C52       1.0  0.20794  0.49298  0.06238  1.0000 0.0856123235
C   C53       1.0  0.06238  0.20794  0.49298  1.0000 0.0856123235
C   C54       1.0  0.49298  0.06238  0.20794  1.0000 0.0856123235
C   C55       1.0  0.49298  0.20794  0.06238  1.0000 0.0856123235
C   C56       1.0  0.20794  0.06238  0.49298  1.0000 0.0856123235
C   C57       1.0  0.06238  0.49298  0.20794  1.0000 0.0856123235
C   C58       1.0  0.79206  0.50702  0.93762  1.0000 0.0856123235
C   C59       1.0  0.93762  0.79206  0.50702  1.0000 0.0856123235
C   C60       1.0  0.50702  0.93762  0.79206  1.0000 0.0856123235
C   C61       1.0  0.54796  0.79832  0.00352  1.0000 -0.1557838584
C   C62       1.0  0.79832  0.00352  0.54796  1.0000 -0.1557838584
C   C63       1.0  0.00352  0.54796  0.79832  1.0000 -0.1557838584
C   C64       1.0  0.20168  0.45204  0.99648  1.0000 -0.1557838584
C   C65       1.0  0.99648  0.20168  0.45204  1.0000 -0.1557838584
C   C66       1.0  0.45204  0.99648  0.20168  1.0000 -0.1557838584
C   C67       1.0  0.45204  0.20168  0.99648  1.0000 -0.1557838584
C   C68       1.0  0.20168  0.99648  0.45204  1.0000 -0.1557838584
C   C69       1.0  0.99648  0.45204  0.20168  1.0000 -0.1557838584
C   C70       1.0  0.79832  0.54796  0.00352  1.0000 -0.1557838584
C   C71       1.0  0.00352  0.79832  0.54796  1.0000 -0.1557838584
C   C72       1.0  0.54796  0.00352  0.79832  1.0000 -0.1557838584
C   C73       1.0  0.54784  0.73989  0.01677  1.0000 -0.0900059078
C   C74       1.0  0.73989  0.01677  0.54784  1.0000 -0.0900059078
C   C75       1.0  0.01677  0.54784  0.73989  1.0000 -0.0900059078
C   C76       1.0  0.26011  0.45216  0.98323  1.0000 -0.0900059078
C   C77       1.0  0.98323  0.26011  0.45216  1.0000 -0.0900059078
C   C78       1.0  0.45216  0.98323  0.26011  1.0000 -0.0900059078
C   C79       1.0  0.45216  0.26011  0.98323  1.0000 -0.0900059078
C   C80       1.0  0.26011  0.98323  0.45216  1.0000 -0.0900059078
C   C81       1.0  0.98323  0.45216  0.26011  1.0000 -0.0900059078
C   C82       1.0  0.73989  0.54784  0.01677  1.0000 -0.0900059078
C   C83       1.0  0.01677  0.73989  0.54784  1.0000 -0.0900059078
C   C84       1.0  0.54784  0.01677  0.73989  1.0000 -0.0900059078
C   C85       1.0  0.50807  0.85732  0.92771  1.0000 -0.0202508612
C   C86       1.0  0.85732  0.92771  0.50807  1.0000 -0.0202508612
C   C87       1.0  0.92771  0.50807  0.85732  1.0000 -0.0202508612
C   C88       1.0  0.14268  0.49193  0.07229  1.0000 -0.0142511886
C   C89       1.0  0.07229  0.14268  0.49193  1.0000 -0.0142511886
C   C90       1.0  0.49193  0.07229  0.14268  1.0000 -0.0142511886
C   C91       1.0  0.49193  0.14268  0.07229  1.0000 -0.0142511886
C   C92       1.0  0.14268  0.07229  0.49193  1.0000 -0.0142511886
C   C93       1.0  0.07229  0.49193  0.14268  1.0000 -0.0142511886
C   C94       1.0  0.85732  0.50807  0.92771  1.0000 -0.0202508612
C   C95       1.0  0.92771  0.85732  0.50807  1.0000 -0.0202508612
C   C96       1.0  0.50807  0.92771  0.85732  1.0000 -0.0202508612
C   C97       1.0  0.50328  0.91048  0.97834  1.0000 -0.1980852226
C   C98       1.0  0.91048  0.97834  0.50328  1.0000 -0.1980852226
C   C99       1.0  0.97834  0.50328  0.91048  1.0000 -0.1980852226
C   C100      1.0  0.08952  0.49672  0.02166  1.0000 -0.1980852226
C   C101      1.0  0.02166  0.08952  0.49672  1.0000 -0.1980852226
C   C102      1.0  0.49672  0.02166  0.08952  1.0000 -0.1980852226
C   C103      1.0  0.49672  0.08952  0.02166  1.0000 -0.1980852226
C   C104      1.0  0.08952  0.02166  0.49672  1.0000 -0.1980852226
C   C105      1.0  0.02166  0.49672  0.08952  1.0000 -0.1980852226
C   C106      1.0  0.91048  0.50328  0.97834  1.0000 -0.1980852226
C   C107      1.0  0.97834  0.91048  0.50328  1.0000 -0.1980852226
C   C108      1.0  0.50328  0.97834  0.91048  1.0000 -0.1980852226
C   C109      1.0  0.50198  0.97206  0.97206  1.0000 0.0705388211
C   C110      1.0  0.97206  0.97206  0.50198  1.0000 0.0705388211
C   C111      1.0  0.97206  0.50198  0.97206  1.0000 0.0705388211
C   C112      1.0  0.02794  0.49802  0.02794  1.0000 0.0705388211
C   C113      1.0  0.02794  0.02794  0.49802  1.0000 0.0705388211
C   C114      1.0  0.49802  0.02794  0.02794  1.0000 0.0705388211
C   C115      1.0  0.50890  0.86660  0.86660  1.0000 0.1510336148
C   C116      1.0  0.86660  0.86660  0.50890  1.0000 0.1510336148
C   C117      1.0  0.86660  0.50890  0.86660  1.0000 0.1510336148
C   C118      1.0  0.13340  0.49110  0.13340  1.0000 0.1510336148
C   C119      1.0  0.13340  0.13340  0.49110  1.0000 0.1510336148
C   C120      1.0  0.49110  0.13340  0.13340  1.0000 0.1510336148
C   C121      1.0  0.59478  0.83191  0.83191  1.0000 -0.0516546291
C   C122      1.0  0.83191  0.83191  0.59478  1.0000 -0.0516546291
C   C123      1.0  0.83191  0.59478  0.83191  1.0000 -0.0516546291
C   C124      1.0  0.16809  0.40522  0.16809  1.0000 -0.0516546291
C   C125      1.0  0.16809  0.16809  0.40522  1.0000 -0.0516546291
C   C126      1.0  0.40522  0.16809  0.16809  1.0000 -0.0516546291
C   C127      1.0  0.58000  0.76910  0.76910  1.0000 -0.3458935919
C   C128      1.0  0.76910  0.76910  0.58000  1.0000 -0.3432181778
C   C129      1.0  0.76910  0.58000  0.76910  1.0000 -0.3458935919
C   C130      1.0  0.23090  0.42000  0.23090  1.0000 -0.3432181778
C   C131      1.0  0.23090  0.23090  0.42000  1.0000 -0.3432181778
C   C132      1.0  0.42000  0.23090  0.23090  1.0000 -0.3432181778
O   O1        1.0  0.53982  0.61907  0.03896  1.0000 -0.5293599419
O   O2        1.0  0.61907  0.03896  0.53982  1.0000 -0.5293599419
O   O3        1.0  0.03896  0.53982  0.61907  1.0000 -0.5293599419
O   O4        1.0  0.38093  0.46018  0.96104  1.0000 -0.5293599419
O   O5        1.0  0.96104  0.38093  0.46018  1.0000 -0.5293599419
O   O6        1.0  0.46018  0.96104  0.38093  1.0000 -0.5293599419
O   O7        1.0  0.46018  0.38093  0.96104  1.0000 -0.5293599419
O   O8        1.0  0.38093  0.96104  0.46018  1.0000 -0.5293599419
O   O9        1.0  0.96104  0.46018  0.38093  1.0000 -0.5293599419
O   O10       1.0  0.61907  0.53982  0.03896  1.0000 -0.5293599419
O   O11       1.0  0.03896  0.61907  0.53982  1.0000 -0.5293599419
O   O12       1.0  0.53982  0.03896  0.61907  1.0000 -0.5293599419
O   O13       1.0  0.46801  0.54752  0.92285  1.0000 -0.5052197057
O   O14       1.0  0.54752  0.92285  0.46801  1.0000 -0.5052197057
O   O15       1.0  0.92285  0.46801  0.54752  1.0000 -0.5044217112
O   O16       1.0  0.45248  0.53199  0.07715  1.0000 -0.5044217112
O   O17       1.0  0.07715  0.45248  0.53199  1.0000 -0.5052197057
O   O18       1.0  0.53199  0.07715  0.45248  1.0000 -0.5052197057
O   O19       1.0  0.53199  0.45248  0.07715  1.0000 -0.5044217112
O   O20       1.0  0.45248  0.07715  0.53199  1.0000 -0.5052197057
O   O21       1.0  0.07715  0.53199  0.45248  1.0000 -0.5052197057
O   O22       1.0  0.54752  0.46801  0.92285  1.0000 -0.5052197057
O   O23       1.0  0.92285  0.54752  0.46801  1.0000 -0.5044217112
O   O24       1.0  0.46801  0.92285  0.54752  1.0000 -0.5052197057
O   O25       1.0  0.51226  0.81182  0.81182  1.0000 -0.2314972384
O   O26       1.0  0.81182  0.81182  0.51226  1.0000 -0.2314972384
O   O27       1.0  0.81182  0.51226  0.81182  1.0000 -0.2314972384
O   O28       1.0  0.18818  0.48774  0.18818  1.0000 -0.2314972384
O   O29       1.0  0.18818  0.18818  0.48774  1.0000 -0.2314972384
O   O30       1.0  0.48774  0.18818  0.18818  1.0000 -0.2314972384
