# DDEC6 charges by PACMAN v1.1 (https://github.com/mtap-research/PACMAN-charge/)
data_2016[Zn][nan]2[ASR]4
_chemical_formula_sum              "Zn4 H24 C36 N4 O12"
_cell_length_a       12.814
_cell_length_b       6.6459
_cell_length_c       14.167
_cell_angle_alpha    90
_cell_angle_beta     115.913
_cell_angle_gamma    90

_symmetry_space_group_name_H-M    "P 1"
_symmetry_Int_Tables_number       1

loop_
  _symmetry_equiv_pos_as_xyz
  'x, y, z'

loop_
  _atom_site_type_symbol
  _atom_site_label
  _atom_site_symmetry_multiplicity
  _atom_site_fract_x
  _atom_site_fract_y
  _atom_site_fract_z
  _atom_site_occupancy
  _atom_site_charge
Zn  Zn1       1.0  0.18540  0.25000  0.98924  1.0000 0.8272294866
Zn  Zn2       1.0  0.81460  0.75000  0.01076  1.0000 0.8272294866
Zn  Zn3       1.0  0.87351  0.25000  0.97392  1.0000 0.9945936071
Zn  Zn4       1.0  0.12649  0.75000  0.02608  1.0000 0.9945936071
H   H1        1.0  0.79500  0.90900  0.87500  1.0000 0.3631559478
H   H2        1.0  0.20500  0.40900  0.12500  1.0000 0.3631559478
H   H3        1.0  0.20500  0.09100  0.12500  1.0000 0.3631559478
H   H4        1.0  0.79500  0.59100  0.87500  1.0000 0.3631559478
H   H5        1.0  0.46020  0.25000  0.12870  1.0000 0.1108369621
H   H6        1.0  0.53980  0.75000  0.87130  1.0000 0.1108369621
H   H7        1.0  0.62710  0.25000  0.10650  1.0000 0.1361818678
H   H8        1.0  0.37290  0.75000  0.89350  1.0000 0.1361818678
H   H9        1.0  0.61340  0.25000  0.93710  1.0000 0.1361818678
H   H10       1.0  0.38660  0.75000  0.06290  1.0000 0.1361818678
H   H11       1.0  0.43280  0.25000  0.79680  1.0000 0.128936352
H   H12       1.0  0.56720  0.75000  0.20320  1.0000 0.128936352
H   H13       1.0  0.25110  0.25000  0.66860  1.0000 0.128936352
H   H14       1.0  0.74890  0.75000  0.33140  1.0000 0.128936352
H   H15       1.0  0.91500  0.25000  0.60750  1.0000 0.1361818678
H   H16       1.0  0.08500  0.75000  0.39250  1.0000 0.1361818678
H   H17       1.0  0.86940  0.25000  0.45260  1.0000 0.1108369621
H   H18       1.0  0.13060  0.75000  0.54740  1.0000 0.1108369621
H   H19       1.0  0.81420  0.25000  0.27570  1.0000 0.1108369621
H   H20       1.0  0.18580  0.75000  0.72430  1.0000 0.1108369621
H   H21       1.0  0.14880  0.25000  0.33030  1.0000 0.128936352
H   H22       1.0  0.85120  0.75000  0.66970  1.0000 0.128936352
H   H23       1.0  0.20280  0.25000  0.50810  1.0000 0.1108369621
H   H24       1.0  0.79720  0.75000  0.49190  1.0000 0.1108369621
C   C1        1.0  0.45430  0.25000  0.06090  1.0000 0.0718946772
C   C2        1.0  0.54570  0.75000  0.93910  1.0000 0.0718946772
C   C3        1.0  0.55500  0.25000  0.04840  1.0000 -0.1461912451
C   C4        1.0  0.44500  0.75000  0.95160  1.0000 -0.1461912451
C   C5        1.0  0.54690  0.25000  0.94790  1.0000 -0.0177993692
C   C6        1.0  0.45310  0.75000  0.05210  1.0000 -0.0177993692
C   C7        1.0  0.43970  0.25000  0.86490  1.0000 -0.1898583119
C   C8        1.0  0.56030  0.75000  0.13510  1.0000 -0.1898583119
C   C9        1.0  0.34070  0.25000  0.88170  1.0000 0.1692484783
C   C10       1.0  0.65930  0.75000  0.11830  1.0000 0.1692484783
C   C11       1.0  0.22080  0.25000  0.79580  1.0000 0.1767979133
C   C12       1.0  0.77920  0.75000  0.20420  1.0000 0.1767979133
C   C13       1.0  0.19260  0.25000  0.69070  1.0000 -0.2280480621
C   C14       1.0  0.80740  0.75000  0.30930  1.0000 -0.2280480621
C   C15       1.0  0.07640  0.25000  0.61650  1.0000 0.1233604716
C   C16       1.0  0.92360  0.75000  0.38350  1.0000 0.1233604716
C   C17       1.0  0.99340  0.25000  0.65400  1.0000 -0.1898583119
C   C18       1.0  0.00660  0.75000  0.34600  1.0000 -0.1898583119
C   C19       1.0  0.02720  0.25000  0.76070  1.0000 0.128936352
C   C20       1.0  0.97280  0.75000  0.23930  1.0000 0.128936352
C   C21       1.0  0.94180  0.25000  0.80740  1.0000 0.5357837545
C   C22       1.0  0.05820  0.75000  0.19260  1.0000 0.5357837545
C   C23       1.0  0.04230  0.25000  0.50010  1.0000 0.0634870397
C   C24       1.0  0.95770  0.75000  0.49990  1.0000 0.0634870397
C   C25       1.0  0.92590  0.25000  0.42820  1.0000 -0.1603643207
C   C26       1.0  0.07410  0.75000  0.57180  1.0000 -0.1603643207
C   C27       1.0  0.89270  0.25000  0.32220  1.0000 -0.1122426374
C   C28       1.0  0.10730  0.75000  0.67780  1.0000 -0.1122426374
C   C29       1.0  0.97670  0.25000  0.28310  1.0000 -0.0383597968
C   C30       1.0  0.02330  0.75000  0.71690  1.0000 -0.0383597968
C   C31       1.0  0.09190  0.25000  0.35440  1.0000 -0.0906963629
C   C32       1.0  0.90810  0.75000  0.64560  1.0000 -0.0906963629
C   C33       1.0  0.12440  0.25000  0.46150  1.0000 -0.1603643207
C   C34       1.0  0.87560  0.75000  0.53850  1.0000 -0.1603643207
C   C35       1.0  0.93840  0.25000  0.16810  1.0000 0.5252560245
C   C36       1.0  0.06160  0.75000  0.83190  1.0000 0.5252560245
N   N1        1.0  0.34830  0.25000  0.98020  1.0000 -0.2680680138
N   N2        1.0  0.65170  0.75000  0.01980  1.0000 -0.2680680138
N   N3        1.0  0.13760  0.25000  0.83070  1.0000 -0.2867794615
N   N4        1.0  0.86240  0.75000  0.16930  1.0000 -0.2867794615
O   O1        1.0  0.98750  0.25000  0.90820  1.0000 -0.5407525731
O   O2        1.0  0.01250  0.75000  0.09180  1.0000 -0.5407525731
O   O3        1.0  0.83770  0.25000  0.75000  1.0000 -0.4827048911
O   O4        1.0  0.16230  0.75000  0.25000  1.0000 -0.4827048911
O   O5        1.0  0.01230  0.25000  0.13190  1.0000 -0.5132439865
O   O6        1.0  0.98770  0.75000  0.86810  1.0000 -0.5132439865
O   O7        1.0  0.83210  0.25000  0.10720  1.0000 -0.5499476922
O   O8        1.0  0.16790  0.75000  0.89280  1.0000 -0.5499476922
O   O9        1.0  0.80630  0.98380  0.92360  1.0000 -0.8031614257
O   O10       1.0  0.19370  0.48380  0.07640  1.0000 -0.8031614257
O   O11       1.0  0.19370  0.01620  0.07640  1.0000 -0.8031614257
O   O12       1.0  0.80630  0.51620  0.92360  1.0000 -0.8031614257
