# DDEC6 charges by PACMAN v1.1 (https://github.com/mtap-research/PACMAN-charge/)
data_2016[Co][nan]3[ASR]30
_chemical_formula_sum              "Co12 H60 C108 N12 O44"
_cell_length_a       11.545
_cell_length_b       20.225
_cell_length_c       18.3657
_cell_angle_alpha    90
_cell_angle_beta     128.418
_cell_angle_gamma    90

_symmetry_space_group_name_H-M    "P 1"
_symmetry_Int_Tables_number       1

loop_
  _symmetry_equiv_pos_as_xyz
  'x, y, z'

loop_
  _atom_site_type_symbol
  _atom_site_label
  _atom_site_symmetry_multiplicity
  _atom_site_fract_x
  _atom_site_fract_y
  _atom_site_fract_z
  _atom_site_occupancy
  _atom_site_charge
Co  Co1       1.0  0.01486  0.12178  0.76873  1.0000 0.9727464369
Co  Co2       1.0  0.98514  0.62178  0.73127  1.0000 0.9727464369
Co  Co3       1.0  0.98514  0.87822  0.23127  1.0000 0.9727464369
Co  Co4       1.0  0.01486  0.37822  0.26873  1.0000 0.9727464369
Co  Co5       1.0  0.31135  0.13856  0.99943  1.0000 0.9469428113
Co  Co6       1.0  0.68865  0.63856  0.50057  1.0000 0.9469428113
Co  Co7       1.0  0.68865  0.86144  0.00057  1.0000 0.9469428113
Co  Co8       1.0  0.31135  0.36144  0.49943  1.0000 0.9469428113
Co  Co9       1.0  0.05138  0.25533  0.90358  1.0000 0.989385595
Co  Co10      1.0  0.94862  0.75533  0.59642  1.0000 0.989385595
Co  Co11      1.0  0.94862  0.74467  0.09642  1.0000 0.989385595
Co  Co12      1.0  0.05138  0.24467  0.40358  1.0000 0.989385595
H   H1        1.0  0.05300  0.13700  0.91200  1.0000 0.3909978172
H   H2        1.0  0.94700  0.63700  0.58800  1.0000 0.3909978172
H   H3        1.0  0.94700  0.86300  0.08800  1.0000 0.3909978172
H   H4        1.0  0.05300  0.36300  0.41200  1.0000 0.3909978172
H   H5        1.0  0.80700  0.96220  0.37750  1.0000 0.2982726594
H   H6        1.0  0.19300  0.46220  0.12250  1.0000 0.2982726594
H   H7        1.0  0.19300  0.03780  0.62250  1.0000 0.2982726594
H   H8        1.0  0.80700  0.53780  0.87750  1.0000 0.2982726594
H   H9        1.0  0.23820  0.18030  0.68590  1.0000 0.1193835964
H   H10       1.0  0.76180  0.68030  0.81410  1.0000 0.1193835964
H   H11       1.0  0.76180  0.81970  0.31410  1.0000 0.1193835964
H   H12       1.0  0.23820  0.31970  0.18590  1.0000 0.1193835964
H   H13       1.0  0.59740  0.23320  0.71350  1.0000 0.13073199
H   H14       1.0  0.40260  0.73320  0.78650  1.0000 0.13073199
H   H15       1.0  0.40260  0.76680  0.28650  1.0000 0.13073199
H   H16       1.0  0.59740  0.26680  0.21350  1.0000 0.13073199
H   H17       1.0  0.75460  0.24660  0.03500  1.0000 0.1193835964
H   H18       1.0  0.24540  0.74660  0.46500  1.0000 0.1193835964
H   H19       1.0  0.24540  0.75340  0.96500  1.0000 0.1193835964
H   H20       1.0  0.75460  0.25340  0.53500  1.0000 0.1193835964
H   H21       1.0  0.95930  0.09600  0.21670  1.0000 0.1193835964
H   H22       1.0  0.04070  0.59600  0.28330  1.0000 0.1193835964
H   H23       1.0  0.04070  0.90400  0.78330  1.0000 0.1193835964
H   H24       1.0  0.95930  0.40400  0.71670  1.0000 0.1193835964
H   H25       1.0  0.64610  0.05930  0.94530  1.0000 0.1193835964
H   H26       1.0  0.35390  0.55930  0.55470  1.0000 0.1193835964
H   H27       1.0  0.35390  0.94070  0.05470  1.0000 0.1193835964
H   H28       1.0  0.64610  0.44070  0.44530  1.0000 0.1193835964
H   H29       1.0  0.96130  0.15960  0.58980  1.0000 0.1193835964
H   H30       1.0  0.03870  0.65960  0.91020  1.0000 0.1193835964
H   H31       1.0  0.03870  0.84040  0.41020  1.0000 0.1193835964
H   H32       1.0  0.96130  0.34040  0.08980  1.0000 0.1193835964
H   H33       1.0  0.88070  0.12000  0.44900  1.0000 0.1503776735
H   H34       1.0  0.11930  0.62000  0.05100  1.0000 0.1503776735
H   H35       1.0  0.11930  0.88000  0.55100  1.0000 0.1503776735
H   H36       1.0  0.88070  0.38000  0.94900  1.0000 0.1503776735
H   H37       1.0  0.82680  0.94200  0.52190  1.0000 0.1584175242
H   H38       1.0  0.17320  0.44200  0.97810  1.0000 0.1584175242
H   H39       1.0  0.17320  0.05800  0.47810  1.0000 0.1584175242
H   H40       1.0  0.82680  0.55800  0.02190  1.0000 0.1584175242
H   H41       1.0  0.91020  0.98760  0.66150  1.0000 0.1120627871
H   H42       1.0  0.08980  0.48760  0.83850  1.0000 0.1120627871
H   H43       1.0  0.08980  0.01240  0.33850  1.0000 0.1120627871
H   H44       1.0  0.91020  0.51240  0.16150  1.0000 0.1120627871
H   H45       1.0  0.72450  0.98050  0.22170  1.0000 0.1503776735
H   H46       1.0  0.27550  0.48050  0.27830  1.0000 0.1503776735
H   H47       1.0  0.27550  0.01950  0.77830  1.0000 0.1503776735
H   H48       1.0  0.72450  0.51950  0.72170  1.0000 0.1503776735
H   H49       1.0  0.56240  0.03640  0.08450  1.0000 0.1120627871
H   H50       1.0  0.43760  0.53640  0.41550  1.0000 0.1120627871
H   H51       1.0  0.43760  0.96360  0.91550  1.0000 0.1120627871
H   H52       1.0  0.56240  0.46360  0.58450  1.0000 0.1120627871
H   H53       1.0  0.45920  0.15710  0.20040  1.0000 0.1012943512
H   H54       1.0  0.54080  0.65710  0.29960  1.0000 0.1012943512
H   H55       1.0  0.54080  0.84290  0.79960  1.0000 0.1012943512
H   H56       1.0  0.45920  0.34290  0.70040  1.0000 0.1012943512
H   H57       1.0  0.61230  0.10510  0.33980  1.0000 0.1423579765
H   H58       1.0  0.38770  0.60510  0.16020  1.0000 0.1423579765
H   H59       1.0  0.38770  0.89490  0.66020  1.0000 0.1423579765
H   H60       1.0  0.61230  0.39490  0.83980  1.0000 0.1423579765
C   C1        1.0  0.42640  0.17261  0.81810  1.0000 -0.0625014516
C   C2        1.0  0.57360  0.67261  0.68190  1.0000 -0.0625014516
C   C3        1.0  0.57360  0.82739  0.18190  1.0000 -0.0625014516
C   C4        1.0  0.42640  0.32739  0.31810  1.0000 -0.0625014516
C   C5        1.0  0.34000  0.18609  0.72300  1.0000 -0.1381918253
C   C6        1.0  0.66000  0.68609  0.77700  1.0000 -0.1381918253
C   C7        1.0  0.66000  0.81391  0.27700  1.0000 -0.1381918253
C   C8        1.0  0.34000  0.31391  0.22300  1.0000 -0.1381918253
C   C9        1.0  0.40270  0.20805  0.68270  1.0000 -0.0363515007
C   C10       1.0  0.59730  0.70805  0.81730  1.0000 -0.0363515007
C   C11       1.0  0.59730  0.79195  0.31730  1.0000 -0.0363515007
C   C12       1.0  0.40270  0.29195  0.18270  1.0000 -0.0363515007
C   C13       1.0  0.55460  0.21638  0.73890  1.0000 -0.1308695773
C   C14       1.0  0.44540  0.71638  0.76110  1.0000 -0.1308695773
C   C15       1.0  0.44540  0.78362  0.26110  1.0000 -0.1308695773
C   C16       1.0  0.55460  0.28362  0.23890  1.0000 -0.1308695773
C   C17       1.0  0.64430  0.19998  0.83290  1.0000 -0.0518293051
C   C18       1.0  0.35570  0.69998  0.66710  1.0000 -0.0518293051
C   C19       1.0  0.35570  0.80002  0.16710  1.0000 -0.0518293051
C   C20       1.0  0.64430  0.30002  0.33290  1.0000 -0.0518293051
C   C21       1.0  0.58131  0.17797  0.87411  1.0000 0.0300243137
C   C22       1.0  0.41869  0.67797  0.62589  1.0000 0.0300243137
C   C23       1.0  0.41869  0.82203  0.12589  1.0000 0.0300243137
C   C24       1.0  0.58131  0.32203  0.37411  1.0000 0.0300243137
C   C25       1.0  0.30720  0.22620  0.58160  1.0000 0.5696162483
C   C26       1.0  0.69280  0.72620  0.91840  1.0000 0.5696162483
C   C27       1.0  0.69280  0.77380  0.41840  1.0000 0.5696162483
C   C28       1.0  0.30720  0.27380  0.08160  1.0000 0.5696162483
C   C29       1.0  0.80880  0.20401  0.88540  1.0000 0.5696162483
C   C30       1.0  0.19120  0.70401  0.61460  1.0000 0.5696162483
C   C31       1.0  0.19120  0.79599  0.11460  1.0000 0.5696162483
C   C32       1.0  0.80880  0.29599  0.38540  1.0000 0.5696162483
C   C33       1.0  0.68260  0.15654  0.97380  1.0000 0.1012943512
C   C34       1.0  0.31740  0.65654  0.52620  1.0000 0.1012943512
C   C35       1.0  0.31740  0.84346  0.02620  1.0000 0.1012943512
C   C36       1.0  0.68260  0.34346  0.47380  1.0000 0.1012943512
C   C37       1.0  0.76640  0.20141  0.04710  1.0000 -0.1381918253
C   C38       1.0  0.23360  0.70141  0.45290  1.0000 -0.1381918253
C   C39       1.0  0.23360  0.79859  0.95290  1.0000 -0.1381918253
C   C40       1.0  0.76640  0.29859  0.54710  1.0000 -0.1381918253
C   C41       1.0  0.86790  0.17868  0.13850  1.0000 -0.0095297123
C   C42       1.0  0.13210  0.67868  0.36150  1.0000 -0.0095297123
C   C43       1.0  0.13210  0.82132  0.86150  1.0000 -0.0095297123
C   C44       1.0  0.86790  0.32132  0.63850  1.0000 -0.0095297123
C   C45       1.0  0.88990  0.11118  0.15620  1.0000 -0.1308695773
C   C46       1.0  0.11010  0.61118  0.34380  1.0000 -0.1308695773
C   C47       1.0  0.11010  0.88882  0.84380  1.0000 -0.1308695773
C   C48       1.0  0.88990  0.38882  0.65620  1.0000 -0.1308695773
C   C49       1.0  0.80820  0.06641  0.08350  1.0000 -0.0242530355
C   C50       1.0  0.19180  0.56641  0.41650  1.0000 -0.0242530355
C   C51       1.0  0.19180  0.93359  0.91650  1.0000 -0.0242530355
C   C52       1.0  0.80820  0.43359  0.58350  1.0000 -0.0242530355
C   C53       1.0  0.70340  0.08951  0.99340  1.0000 -0.1381918253
C   C54       1.0  0.29660  0.58951  0.50660  1.0000 -0.1381918253
C   C55       1.0  0.29660  0.91049  0.00660  1.0000 -0.1381918253
C   C56       1.0  0.70340  0.41049  0.49340  1.0000 -0.1381918253
C   C57       1.0  0.94960  0.22622  0.21860  1.0000 0.5906555455
C   C58       1.0  0.05040  0.72622  0.28140  1.0000 0.5906555455
C   C59       1.0  0.05040  0.77378  0.78140  1.0000 0.5906555455
C   C60       1.0  0.94960  0.27378  0.71860  1.0000 0.5906555455
C   C61       1.0  0.82820  0.99335  0.10160  1.0000 0.5906555455
C   C62       1.0  0.17180  0.49335  0.39840  1.0000 0.5906555455
C   C63       1.0  0.17180  0.00665  0.89840  1.0000 0.5906555455
C   C64       1.0  0.82820  0.50665  0.60160  1.0000 0.5906555455
C   C65       1.0  0.93230  0.11553  0.57550  1.0000 0.1012943512
C   C66       1.0  0.06770  0.61553  0.92450  1.0000 0.1012943512
C   C67       1.0  0.06770  0.88447  0.42450  1.0000 0.1012943512
C   C68       1.0  0.93230  0.38447  0.07550  1.0000 0.1012943512
C   C69       1.0  0.88310  0.09240  0.49040  1.0000 -0.2541242341
C   C70       1.0  0.11690  0.59240  0.00960  1.0000 -0.2541242341
C   C71       1.0  0.11690  0.90760  0.50960  1.0000 -0.2541242341
C   C72       1.0  0.88310  0.40760  0.99040  1.0000 -0.2541242341
C   C73       1.0  0.83680  0.02684  0.46690  1.0000 0.2620438537
C   C74       1.0  0.16320  0.52684  0.03310  1.0000 0.2620438537
C   C75       1.0  0.16320  0.97316  0.53310  1.0000 0.2620438537
C   C76       1.0  0.83680  0.47316  0.96690  1.0000 0.2620438537
C   C77       1.0  0.85100  0.98666  0.53350  1.0000 -0.2587450394
C   C78       1.0  0.14900  0.48666  0.96650  1.0000 -0.2587450394
C   C79       1.0  0.14900  0.01334  0.46650  1.0000 -0.2587450394
C   C80       1.0  0.85100  0.51334  0.03350  1.0000 -0.2587450394
C   C81       1.0  0.90230  0.01460  0.61770  1.0000 0.1012943512
C   C82       1.0  0.09770  0.51460  0.88230  1.0000 0.1012943512
C   C83       1.0  0.09770  0.98540  0.38230  1.0000 0.1012943512
C   C84       1.0  0.90230  0.48540  0.11770  1.0000 0.1012943512
C   C85       1.0  0.68940  0.03669  0.29730  1.0000 0.2766356518
C   C86       1.0  0.31060  0.53669  0.20270  1.0000 0.2766356518
C   C87       1.0  0.31060  0.96331  0.70270  1.0000 0.2766356518
C   C88       1.0  0.68940  0.46331  0.79730  1.0000 0.2766356518
C   C89       1.0  0.67140  0.01634  0.21900  1.0000 -0.2397161914
C   C90       1.0  0.32860  0.51634  0.28100  1.0000 -0.2397161914
C   C91       1.0  0.32860  0.98366  0.78100  1.0000 -0.2397161914
C   C92       1.0  0.67140  0.48366  0.71900  1.0000 -0.2397161914
C   C93       1.0  0.57320  0.05017  0.13670  1.0000 0.1012943512
C   C94       1.0  0.42680  0.55017  0.36330  1.0000 0.1012943512
C   C95       1.0  0.42680  0.94983  0.86330  1.0000 0.1012943512
C   C96       1.0  0.57320  0.44983  0.63670  1.0000 0.1012943512
C   C97       1.0  0.51250  0.12074  0.20480  1.0000 0.1012943512
C   C98       1.0  0.48750  0.62074  0.29520  1.0000 0.1012943512
C   C99       1.0  0.48750  0.87926  0.79520  1.0000 0.1012943512
C   C100      1.0  0.51250  0.37926  0.70480  1.0000 0.1012943512
C   C101      1.0  0.60509  0.09052  0.28913  1.0000 -0.2397161914
C   C102      1.0  0.39491  0.59052  0.21087  1.0000 -0.2397161914
C   C103      1.0  0.39491  0.90948  0.71087  1.0000 -0.2397161914
C   C104      1.0  0.60509  0.40948  0.78913  1.0000 -0.2397161914
C   C105      1.0  0.34317  0.15564  0.85489  1.0000 0.5906555455
C   C106      1.0  0.65683  0.65564  0.64511  1.0000 0.5906555455
C   C107      1.0  0.65683  0.84436  0.14511  1.0000 0.5906555455
C   C108      1.0  0.34317  0.34436  0.35489  1.0000 0.5906555455
N   N1        1.0  0.94123  0.07837  0.63963  1.0000 -0.2791486109
N   N2        1.0  0.05877  0.57837  0.86037  1.0000 -0.2791486109
N   N3        1.0  0.05877  0.92163  0.36037  1.0000 -0.2791486109
N   N4        1.0  0.94123  0.42163  0.13963  1.0000 -0.2791486109
N   N5        1.0  0.78190  0.00170  0.38000  1.0000 -0.3521347741
N   N6        1.0  0.21810  0.50170  0.12000  1.0000 -0.3521347741
N   N7        1.0  0.21810  0.99830  0.62000  1.0000 -0.3521347741
N   N8        1.0  0.78190  0.49830  0.88000  1.0000 -0.3521347741
N   N9        1.0  0.49246  0.10212  0.12836  1.0000 -0.2587450394
N   N10       1.0  0.50754  0.60212  0.37164  1.0000 -0.2587450394
N   N11       1.0  0.50754  0.89788  0.87164  1.0000 -0.2587450394
N   N12       1.0  0.49246  0.39788  0.62836  1.0000 -0.2587450394
O   O1        1.0  0.21508  0.13397  0.79518  1.0000 -0.5828342984
O   O2        1.0  0.78492  0.63397  0.70482  1.0000 -0.5828342984
O   O3        1.0  0.78492  0.86603  0.20482  1.0000 -0.5828342984
O   O4        1.0  0.21508  0.36603  0.29518  1.0000 -0.5828342984
O   O5        1.0  0.40502  0.16478  0.93872  1.0000 -0.5123119453
O   O6        1.0  0.59498  0.66478  0.56128  1.0000 -0.5123119453
O   O7        1.0  0.59498  0.83522  0.06128  1.0000 -0.5123119453
O   O8        1.0  0.40502  0.33522  0.43872  1.0000 -0.5123119453
O   O9        1.0  0.17696  0.20313  0.52836  1.0000 -0.5599474509
O   O10       1.0  0.82304  0.70313  0.97164  1.0000 -0.5599474509
O   O11       1.0  0.82304  0.79687  0.47164  1.0000 -0.5599474509
O   O12       1.0  0.17696  0.29687  0.02836  1.0000 -0.5599474509
O   O13       1.0  0.36030  0.26350  0.55460  1.0000 -0.5692639301
O   O14       1.0  0.63970  0.76350  0.94540  1.0000 -0.5692639301
O   O15       1.0  0.63970  0.73650  0.44540  1.0000 -0.5692639301
O   O16       1.0  0.36030  0.23650  0.05460  1.0000 -0.5692639301
O   O17       1.0  0.85330  0.25618  0.87100  1.0000 -0.588839675
O   O18       1.0  0.14670  0.75618  0.62900  1.0000 -0.588839675
O   O19       1.0  0.14670  0.74382  0.12900  1.0000 -0.588839675
O   O20       1.0  0.85330  0.24382  0.37100  1.0000 -0.588839675
O   O21       1.0  0.88840  0.15608  0.93330  1.0000 -0.5365337829
O   O22       1.0  0.11160  0.65608  0.56670  1.0000 -0.5365337829
O   O23       1.0  0.11160  0.84392  0.06670  1.0000 -0.5365337829
O   O24       1.0  0.88840  0.34392  0.43330  1.0000 -0.5365337829
O   O25       1.0  0.72330  0.95795  0.04030  1.0000 -0.5599474509
O   O26       1.0  0.27670  0.45795  0.45970  1.0000 -0.5599474509
O   O27       1.0  0.27670  0.04205  0.95970  1.0000 -0.5599474509
O   O28       1.0  0.72330  0.54205  0.54030  1.0000 -0.5599474509
O   O29       1.0  0.94635  0.97305  0.17615  1.0000 -0.5692639301
O   O30       1.0  0.05365  0.47305  0.32385  1.0000 -0.5692639301
O   O31       1.0  0.05365  0.02695  0.82385  1.0000 -0.5692639301
O   O32       1.0  0.94635  0.52695  0.67615  1.0000 -0.5692639301
O   O33       1.0  0.93682  0.28617  0.20112  1.0000 -0.5692639301
O   O34       1.0  0.06318  0.78617  0.29888  1.0000 -0.5692639301
O   O35       1.0  0.06318  0.71383  0.79888  1.0000 -0.5692639301
O   O36       1.0  0.93682  0.21383  0.70112  1.0000 -0.5692639301
O   O37       1.0  0.02528  0.20078  0.29938  1.0000 -0.5599474509
O   O38       1.0  0.97472  0.70078  0.20062  1.0000 -0.5599474509
O   O39       1.0  0.97472  0.79922  0.70062  1.0000 -0.5599474509
O   O40       1.0  0.02528  0.29922  0.79938  1.0000 -0.5599474509
O   O41       1.0  0.09430  0.16218  0.89739  1.0000 -0.888057212
O   O42       1.0  0.90570  0.66218  0.60261  1.0000 -0.888057212
O   O43       1.0  0.90570  0.83782  0.10261  1.0000 -0.888057212
O   O44       1.0  0.09430  0.33782  0.39739  1.0000 -0.888057212
