# DDEC6 charges by PACMAN v1.1 (https://github.com/mtap-research/PACMAN-charge/)
data_2016[Mg][tfz]3[ASR]1
_chemical_formula_sum              "Mg3 H8 C24 S4 O16"
_cell_length_a       9.6615
_cell_length_b       10.49
_cell_length_c       11.9404
_cell_angle_alpha    110.295
_cell_angle_beta     91.875
_cell_angle_gamma    114.86

_symmetry_space_group_name_H-M    "P 1"
_symmetry_Int_Tables_number       1

loop_
  _symmetry_equiv_pos_as_xyz
  'x, y, z'

loop_
  _atom_site_type_symbol
  _atom_site_label
  _atom_site_symmetry_multiplicity
  _atom_site_fract_x
  _atom_site_fract_y
  _atom_site_fract_z
  _atom_site_occupancy
  _atom_site_charge
Mg  Mg1       1.0  0.52862  0.08436  0.32661  1.0000 1.3864735033
Mg  Mg2       1.0  0.47138  0.91564  0.67339  1.0000 1.3864735033
Mg  Mg3       1.0  0.50000  0.00000  0.00000  1.0000 1.4063803818
H   H1        1.0  0.72040  0.80770  0.99260  1.0000 0.1486675184
H   H2        1.0  0.27960  0.19230  0.00740  1.0000 0.1486675184
H   H3        1.0  0.95330  0.77430  0.95710  1.0000 0.1399299617
H   H4        1.0  0.04670  0.22570  0.04290  1.0000 0.1399299617
H   H5        1.0  0.51850  0.69950  0.15390  1.0000 0.1486675184
H   H6        1.0  0.48150  0.30050  0.84610  1.0000 0.1486675184
H   H7        1.0  0.56640  0.47670  0.07100  1.0000 0.1399299617
H   H8        1.0  0.43360  0.52330  0.92900  1.0000 0.1399299617
C   C1        1.0  0.46270  0.79430  0.39240  1.0000 0.6556862261
C   C2        1.0  0.53730  0.20570  0.60760  1.0000 0.6556862261
C   C3        1.0  0.56360  0.30660  0.21010  1.0000 0.627011862
C   C4        1.0  0.43640  0.69340  0.78990  1.0000 0.627011862
C   C5        1.0  0.72750  0.02650  0.21720  1.0000 0.5823285248
C   C6        1.0  0.27250  0.97350  0.78280  1.0000 0.5823285248
C   C7        1.0  0.83810  0.97430  0.16090  1.0000 -0.0900930703
C   C8        1.0  0.16190  0.02570  0.83910  1.0000 -0.0900930703
C   C9        1.0  0.07090  0.93840  0.12660  1.0000 -0.0817512755
C   C10       1.0  0.92910  0.06160  0.87340  1.0000 -0.0817512755
C   C11       1.0  0.23480  0.95930  0.14170  1.0000 0.6239075329
C   C12       1.0  0.76520  0.04070  0.85830  1.0000 0.6239075329
C   C13       1.0  0.81460  0.86380  0.04930  1.0000 -0.0900930703
C   C14       1.0  0.18540  0.13620  0.95070  1.0000 -0.0900930703
C   C15       1.0  0.94880  0.84390  0.02890  1.0000 -0.104161821
C   C16       1.0  0.05120  0.15610  0.97110  1.0000 -0.104161821
C   C17       1.0  0.54600  0.44740  0.23070  1.0000 -0.0900930703
C   C18       1.0  0.45400  0.55260  0.76930  1.0000 -0.0900930703
C   C19       1.0  0.49630  0.66970  0.31280  1.0000 -0.0900930703
C   C20       1.0  0.50370  0.33030  0.68720  1.0000 -0.0900930703
C   C21       1.0  0.52030  0.64110  0.19690  1.0000 -0.1071477939
C   C22       1.0  0.47970  0.35890  0.80310  1.0000 -0.1071477939
C   C23       1.0  0.54840  0.51270  0.14910  1.0000 -0.1071477939
C   C24       1.0  0.45160  0.48730  0.85090  1.0000 -0.1071477939
S   S1        1.0  0.02389  0.05301  0.24333  1.0000 0.2087512057
S   S2        1.0  0.97611  0.94699  0.75667  1.0000 0.2087512057
S   S3        1.0  0.50972  0.54185  0.36569  1.0000 0.2038030665
S   S4        1.0  0.49028  0.45815  0.63431  1.0000 0.2038030665
O   O1        1.0  0.45540  0.88410  0.35015  1.0000 -0.5843654607
O   O2        1.0  0.54460  0.11590  0.64985  1.0000 -0.5843654607
O   O3        1.0  0.76170  0.10720  0.33026  1.0000 -0.5530290339
O   O4        1.0  0.23830  0.89280  0.66974  1.0000 -0.5530290339
O   O5        1.0  0.44050  0.79410  0.49545  1.0000 -0.5929099951
O   O6        1.0  0.55950  0.20590  0.50455  1.0000 -0.5929099951
O   O7        1.0  0.59200  0.28500  0.30318  1.0000 -0.6098013554
O   O8        1.0  0.40800  0.71500  0.69682  1.0000 -0.6098013554
O   O9        1.0  0.30680  0.01560  0.25045  1.0000 -0.626418743
O   O10       1.0  0.69320  0.98440  0.74955  1.0000 -0.626418743
O   O11       1.0  0.28480  0.92080  0.04735  1.0000 -0.5929099951
O   O12       1.0  0.71520  0.07920  0.95265  1.0000 -0.5929099951
O   O13       1.0  0.59743  0.98560  0.15410  1.0000 -0.6385301683
O   O14       1.0  0.40257  0.01440  0.84590  1.0000 -0.6385301683
O   O15       1.0  0.54640  0.22190  0.10122  1.0000 -0.6098013554
O   O16       1.0  0.45360  0.77810  0.89878  1.0000 -0.6098013554
