# DDEC6 charges by PACMAN v1.1 (https://github.com/mtap-research/PACMAN-charge/)
data_2016[In][ctn]3[ASR]1
_chemical_formula_sum              "In6 H24 C72 O48"
_cell_length_a       17.6696
_cell_length_b       17.6696
_cell_length_c       17.6696
_cell_angle_alpha    109.471
_cell_angle_beta     109.471
_cell_angle_gamma    109.471

_symmetry_space_group_name_H-M    "P 1"
_symmetry_Int_Tables_number       1

loop_
  _symmetry_equiv_pos_as_xyz
  'x, y, z'

loop_
  _atom_site_type_symbol
  _atom_site_label
  _atom_site_symmetry_multiplicity
  _atom_site_fract_x
  _atom_site_fract_y
  _atom_site_fract_z
  _atom_site_occupancy
  _atom_site_charge
In  In1       1.0  0.75000  0.37500  0.62500  1.0000 1.3381911594
In  In2       1.0  0.25000  0.12500  0.87500  1.0000 1.3381911594
In  In3       1.0  0.62500  0.75000  0.37500  1.0000 1.3381911594
In  In4       1.0  0.87500  0.25000  0.12500  1.0000 1.3381911594
In  In5       1.0  0.37500  0.62500  0.75000  1.0000 1.3381911594
In  In6       1.0  0.12500  0.87500  0.25000  1.0000 1.3381911594
H   H1        1.0  0.65580  0.04450  0.48210  1.0000 0.1442803987
H   H2        1.0  0.06240  0.17370  0.01790  1.0000 0.1453385282
H   H3        1.0  0.43760  0.45550  0.11130  1.0000 0.1442803987
H   H4        1.0  0.84420  0.32630  0.38870  1.0000 0.1442803987
H   H5        1.0  0.48210  0.65580  0.04450  1.0000 0.1442803987
H   H6        1.0  0.01790  0.06240  0.17370  1.0000 0.1442803987
H   H7        1.0  0.11130  0.43760  0.45550  1.0000 0.1442803987
H   H8        1.0  0.38870  0.84420  0.32630  1.0000 0.1442803987
H   H9        1.0  0.04450  0.48210  0.65580  1.0000 0.1442803987
H   H10       1.0  0.17370  0.01790  0.06240  1.0000 0.1442803987
H   H11       1.0  0.45550  0.11130  0.43760  1.0000 0.1442803987
H   H12       1.0  0.32630  0.38870  0.84420  1.0000 0.1442803987
H   H13       1.0  0.54450  0.15580  0.98210  1.0000 0.1442803987
H   H14       1.0  0.67370  0.56240  0.51790  1.0000 0.1442803987
H   H15       1.0  0.95550  0.93760  0.61130  1.0000 0.1442803987
H   H16       1.0  0.82630  0.34420  0.88870  1.0000 0.1442803987
H   H17       1.0  0.15580  0.98210  0.54450  1.0000 0.1442803987
H   H18       1.0  0.56240  0.51790  0.67370  1.0000 0.1442803987
H   H19       1.0  0.93760  0.61130  0.95550  1.0000 0.1442803987
H   H20       1.0  0.34420  0.88870  0.82630  1.0000 0.1442803987
H   H21       1.0  0.98210  0.54450  0.15580  1.0000 0.1442803987
H   H22       1.0  0.51790  0.67370  0.56240  1.0000 0.1442803987
H   H23       1.0  0.61130  0.95550  0.93760  1.0000 0.1442803987
H   H24       1.0  0.88870  0.82630  0.34420  1.0000 0.1442803987
C   C1        1.0  0.64000  0.19410  0.52450  1.0000 0.541727501
C   C2        1.0  0.16960  0.11550  0.97550  1.0000 0.541727501
C   C3        1.0  0.33040  0.30590  0.94590  1.0000 0.541727501
C   C4        1.0  0.86000  0.38450  0.55410  1.0000 0.541727501
C   C5        1.0  0.52450  0.64000  0.19410  1.0000 0.541727501
C   C6        1.0  0.97550  0.16960  0.11550  1.0000 0.541727501
C   C7        1.0  0.94590  0.33040  0.30590  1.0000 0.541727501
C   C8        1.0  0.55410  0.86000  0.38450  1.0000 0.541727501
C   C9        1.0  0.19410  0.52450  0.64000  1.0000 0.541727501
C   C10       1.0  0.11550  0.97550  0.16960  1.0000 0.541727501
C   C11       1.0  0.30590  0.94590  0.33040  1.0000 0.541727501
C   C12       1.0  0.38450  0.55410  0.86000  1.0000 0.541727501
C   C13       1.0  0.69410  0.14000  0.02450  1.0000 0.541727501
C   C14       1.0  0.61550  0.66960  0.47550  1.0000 0.541727501
C   C15       1.0  0.80590  0.83040  0.44590  1.0000 0.541727501
C   C16       1.0  0.88450  0.36000  0.05410  1.0000 0.541727501
C   C17       1.0  0.14000  0.02450  0.69410  1.0000 0.541727501
C   C18       1.0  0.66960  0.47550  0.61550  1.0000 0.541727501
C   C19       1.0  0.83040  0.44590  0.80590  1.0000 0.541727501
C   C20       1.0  0.36000  0.05410  0.88450  1.0000 0.541727501
C   C21       1.0  0.02450  0.69410  0.14000  1.0000 0.541727501
C   C22       1.0  0.47550  0.61550  0.66960  1.0000 0.541727501
C   C23       1.0  0.44590  0.80590  0.83040  1.0000 0.541727501
C   C24       1.0  0.05410  0.88450  0.36000  1.0000 0.541727501
C   C25       1.0  0.56740  0.09380  0.46460  1.0000 -0.0093938697
C   C26       1.0  0.12920  0.10280  0.03540  1.0000 -0.0093938697
C   C27       1.0  0.37080  0.40620  0.97360  1.0000 -0.0093938697
C   C28       1.0  0.93260  0.39720  0.52640  1.0000 -0.0093938697
C   C29       1.0  0.46460  0.56740  0.09380  1.0000 -0.0093938697
C   C30       1.0  0.03540  0.12920  0.10280  1.0000 -0.0093938697
C   C31       1.0  0.97360  0.37080  0.40620  1.0000 -0.0093938697
C   C32       1.0  0.52640  0.93260  0.39720  1.0000 -0.0093938697
C   C33       1.0  0.09380  0.46460  0.56740  1.0000 -0.0093938697
C   C34       1.0  0.10280  0.03540  0.12920  1.0000 -0.0093938697
C   C35       1.0  0.40620  0.97360  0.37080  1.0000 -0.0093938697
C   C36       1.0  0.39720  0.52640  0.93260  1.0000 -0.0093938697
C   C37       1.0  0.59380  0.06740  0.96460  1.0000 -0.0093938697
C   C38       1.0  0.60280  0.62920  0.53540  1.0000 -0.0093938697
C   C39       1.0  0.90620  0.87080  0.47360  1.0000 -0.0093938697
C   C40       1.0  0.89720  0.43260  0.02640  1.0000 -0.0093938697
C   C41       1.0  0.06740  0.96460  0.59380  1.0000 -0.0093938697
C   C42       1.0  0.62920  0.53540  0.60280  1.0000 -0.0093938697
C   C43       1.0  0.87080  0.47360  0.90620  1.0000 -0.0093938697
C   C44       1.0  0.43260  0.02640  0.89720  1.0000 -0.0093938697
C   C45       1.0  0.96460  0.59380  0.06740  1.0000 -0.0093938697
C   C46       1.0  0.53540  0.60280  0.62920  1.0000 -0.0093938697
C   C47       1.0  0.47360  0.90620  0.87080  1.0000 -0.0093938697
C   C48       1.0  0.02640  0.89720  0.43260  1.0000 -0.0093938697
C   C49       1.0  0.59330  0.02670  0.45280  1.0000 -0.0713795113
C   C50       1.0  0.07390  0.14050  0.04720  1.0000 -0.0713795113
C   C51       1.0  0.42610  0.47330  0.06660  1.0000 -0.0713795113
C   C52       1.0  0.90670  0.35950  0.43340  1.0000 -0.0713795113
C   C53       1.0  0.45280  0.59330  0.02670  1.0000 -0.0713795113
C   C54       1.0  0.04720  0.07390  0.14050  1.0000 -0.0713795113
C   C55       1.0  0.06660  0.42610  0.47330  1.0000 -0.0713795113
C   C56       1.0  0.43340  0.90670  0.35950  1.0000 -0.0713795113
C   C57       1.0  0.02670  0.45280  0.59330  1.0000 -0.0713795113
C   C58       1.0  0.14050  0.04720  0.07390  1.0000 -0.0713795113
C   C59       1.0  0.47330  0.06660  0.42610  1.0000 -0.0713795113
C   C60       1.0  0.35950  0.43340  0.90670  1.0000 -0.0713795113
C   C61       1.0  0.52670  0.09330  0.95280  1.0000 -0.0713795113
C   C62       1.0  0.64050  0.57390  0.54720  1.0000 -0.0713795113
C   C63       1.0  0.97330  0.92610  0.56660  1.0000 -0.0713795113
C   C64       1.0  0.85950  0.40670  0.93340  1.0000 -0.0713795113
C   C65       1.0  0.09330  0.95280  0.52670  1.0000 -0.0713795113
C   C66       1.0  0.57390  0.54720  0.64050  1.0000 -0.0713795113
C   C67       1.0  0.92610  0.56660  0.97330  1.0000 -0.0713795113
C   C68       1.0  0.40670  0.93340  0.85950  1.0000 -0.0713795113
C   C69       1.0  0.95280  0.52670  0.09330  1.0000 -0.0713795113
C   C70       1.0  0.54720  0.64050  0.57390  1.0000 -0.0713795113
C   C71       1.0  0.56660  0.97330  0.92610  1.0000 -0.0713795113
C   C72       1.0  0.93340  0.85950  0.40670  1.0000 -0.0713795113
O   O1        1.0  0.61380  0.25370  0.53190  1.0000 -0.4908149314
O   O2        1.0  0.22180  0.08190  0.96810  1.0000 -0.4908149314
O   O3        1.0  0.27820  0.24630  0.86010  1.0000 -0.4908149314
O   O4        1.0  0.88620  0.41810  0.63990  1.0000 -0.4908149314
O   O5        1.0  0.53190  0.61380  0.25370  1.0000 -0.4908149314
O   O6        1.0  0.96810  0.22180  0.08190  1.0000 -0.4908149314
O   O7        1.0  0.86010  0.27820  0.24630  1.0000 -0.4908149314
O   O8        1.0  0.63990  0.88620  0.41810  1.0000 -0.4908149314
O   O9        1.0  0.25370  0.53190  0.61380  1.0000 -0.4908149314
O   O10       1.0  0.08190  0.96810  0.22180  1.0000 -0.4908149314
O   O11       1.0  0.24630  0.86010  0.27820  1.0000 -0.4908149314
O   O12       1.0  0.41810  0.63990  0.88620  1.0000 -0.4908149314
O   O13       1.0  0.75370  0.11380  0.03190  1.0000 -0.4908149314
O   O14       1.0  0.58190  0.72180  0.46810  1.0000 -0.4908149314
O   O15       1.0  0.74630  0.77820  0.36010  1.0000 -0.4908149314
O   O16       1.0  0.91810  0.38620  0.13990  1.0000 -0.4908149314
O   O17       1.0  0.11380  0.03190  0.75370  1.0000 -0.4908149314
O   O18       1.0  0.72180  0.46810  0.58190  1.0000 -0.4908149314
O   O19       1.0  0.77820  0.36010  0.74630  1.0000 -0.4908149314
O   O20       1.0  0.38620  0.13990  0.91810  1.0000 -0.4908149314
O   O21       1.0  0.03190  0.75370  0.11380  1.0000 -0.4908149314
O   O22       1.0  0.46810  0.58190  0.72180  1.0000 -0.4908149314
O   O23       1.0  0.36010  0.74630  0.77820  1.0000 -0.4908149314
O   O24       1.0  0.13990  0.91810  0.38620  1.0000 -0.4908149314
O   O25       1.0  0.72290  0.21840  0.56830  1.0000 -0.4490114658
O   O26       1.0  0.15010  0.15460  0.93170  1.0000 -0.4490114658
O   O27       1.0  0.34990  0.28160  0.00450  1.0000 -0.4490114658
O   O28       1.0  0.77710  0.34540  0.49550  1.0000 -0.4490114658
O   O29       1.0  0.56830  0.72290  0.21840  1.0000 -0.4490114658
O   O30       1.0  0.93170  0.15010  0.15460  1.0000 -0.4490114658
O   O31       1.0  0.00450  0.34990  0.28160  1.0000 -0.4490114658
O   O32       1.0  0.49550  0.77710  0.34540  1.0000 -0.4490114658
O   O33       1.0  0.21840  0.56830  0.72290  1.0000 -0.4490114658
O   O34       1.0  0.15460  0.93170  0.15010  1.0000 -0.4490114658
O   O35       1.0  0.28160  0.00450  0.34990  1.0000 -0.4490114658
O   O36       1.0  0.34540  0.49550  0.77710  1.0000 -0.4490114658
O   O37       1.0  0.71840  0.22290  0.06830  1.0000 -0.4490114658
O   O38       1.0  0.65460  0.65010  0.43170  1.0000 -0.4490114658
O   O39       1.0  0.78160  0.84990  0.50450  1.0000 -0.4490114658
O   O40       1.0  0.84540  0.27710  0.99550  1.0000 -0.4490114658
O   O41       1.0  0.22290  0.06830  0.71840  1.0000 -0.4490114658
O   O42       1.0  0.65010  0.43170  0.65460  1.0000 -0.4490114658
O   O43       1.0  0.84990  0.50450  0.78160  1.0000 -0.4490114658
O   O44       1.0  0.27710  0.99550  0.84540  1.0000 -0.4490114658
O   O45       1.0  0.06830  0.71840  0.22290  1.0000 -0.4490114658
O   O46       1.0  0.43170  0.65460  0.65010  1.0000 -0.4490114658
O   O47       1.0  0.50450  0.78160  0.84990  1.0000 -0.4490114658
O   O48       1.0  0.99550  0.84540  0.27710  1.0000 -0.4490114658
