# DDEC6 charges by PACMAN v1.1 (https://github.com/mtap-research/PACMAN-charge/)
data_2016[NiMg][nan]3[ASR]1
_chemical_formula_sum              "Mg8 Ni12 P4 H36 C56 N4 O64"
_cell_length_a       16.6197
_cell_length_b       16.6197
_cell_length_c       12.7629
_cell_angle_alpha    90
_cell_angle_beta     90
_cell_angle_gamma    114.869

_symmetry_space_group_name_H-M    "P 1"
_symmetry_Int_Tables_number       1

loop_
  _symmetry_equiv_pos_as_xyz
  'x, y, z'

loop_
  _atom_site_type_symbol
  _atom_site_label
  _atom_site_symmetry_multiplicity
  _atom_site_fract_x
  _atom_site_fract_y
  _atom_site_fract_z
  _atom_site_occupancy
  _atom_site_charge
Mg  Mg1       1.0  0.18202  0.93626  0.58191  1.0000 1.4475212705
Mg  Mg2       1.0  0.31798  0.56374  0.08191  1.0000 1.4475212705
Mg  Mg3       1.0  0.43626  0.68202  0.91809  1.0000 1.4475212705
Mg  Mg4       1.0  0.06374  0.81798  0.41809  1.0000 1.4475212705
Mg  Mg5       1.0  0.81798  0.06374  0.41809  1.0000 1.4475212705
Mg  Mg6       1.0  0.68202  0.43626  0.91809  1.0000 1.4475212705
Mg  Mg7       1.0  0.56374  0.31798  0.08191  1.0000 1.4475212705
Mg  Mg8       1.0  0.93626  0.18202  0.58191  1.0000 1.4475212705
Ni  Ni1       1.0  0.11175  0.00375  0.33951  1.0000 1.1260157538
Ni  Ni2       1.0  0.38825  0.49625  0.83951  1.0000 1.1260157538
Ni  Ni3       1.0  0.50375  0.61175  0.16049  1.0000 1.1260157538
Ni  Ni4       1.0  0.99625  0.88825  0.66049  1.0000 1.1260157538
Ni  Ni5       1.0  0.88825  0.99625  0.66049  1.0000 1.1260157538
Ni  Ni6       1.0  0.61175  0.50375  0.16049  1.0000 1.1260157538
Ni  Ni7       1.0  0.49625  0.38825  0.83951  1.0000 1.1260157538
Ni  Ni8       1.0  0.00375  0.11175  0.33951  1.0000 1.1260157538
Ni  Ni9       1.0  0.16508  0.16508  0.18850  1.0000 0.7212422204
Ni  Ni10      1.0  0.33492  0.33492  0.68850  1.0000 0.7212422204
Ni  Ni11      1.0  0.66508  0.66508  0.31150  1.0000 0.7212422204
Ni  Ni12      1.0  0.83492  0.83492  0.81150  1.0000 0.7212422204
P   P1        1.0  0.41305  0.41305  0.06898  1.0000 1.3546227527
P   P2        1.0  0.08695  0.08695  0.56898  1.0000 1.3546227527
P   P3        1.0  0.91305  0.91305  0.43102  1.0000 1.3546227527
P   P4        1.0  0.58695  0.58695  0.93102  1.0000 1.3546227527
H   H1        1.0  0.38390  0.24570  0.21130  1.0000 0.1599583638
H   H2        1.0  0.11610  0.25430  0.71130  1.0000 0.1599583638
H   H3        1.0  0.74570  0.88390  0.28870  1.0000 0.1599583638
H   H4        1.0  0.75430  0.61610  0.78870  1.0000 0.1599583638
H   H5        1.0  0.61610  0.75430  0.78870  1.0000 0.1599583638
H   H6        1.0  0.88390  0.74570  0.28870  1.0000 0.1599583638
H   H7        1.0  0.25430  0.11610  0.71130  1.0000 0.1599583638
H   H8        1.0  0.24570  0.38390  0.21130  1.0000 0.1599583638
H   H9        1.0  0.38470  0.30930  0.30230  1.0000 0.1694404644
H   H10       1.0  0.11530  0.19070  0.80230  1.0000 0.1694404644
H   H11       1.0  0.80930  0.88470  0.19770  1.0000 0.1694404644
H   H12       1.0  0.69070  0.61530  0.69770  1.0000 0.1694404644
H   H13       1.0  0.61530  0.69070  0.69770  1.0000 0.1694404644
H   H14       1.0  0.88470  0.80930  0.19770  1.0000 0.1694404644
H   H15       1.0  0.19070  0.11530  0.80230  1.0000 0.1694404644
H   H16       1.0  0.30930  0.38470  0.30230  1.0000 0.1694404644
H   H17       1.0  0.32050  0.26490  0.05690  1.0000 0.1694404644
H   H18       1.0  0.17950  0.23510  0.55690  1.0000 0.1694404644
H   H19       1.0  0.76490  0.82050  0.44310  1.0000 0.1694404644
H   H20       1.0  0.73510  0.67950  0.94310  1.0000 0.1694404644
H   H21       1.0  0.67950  0.73510  0.94310  1.0000 0.1694404644
H   H22       1.0  0.82050  0.76490  0.44310  1.0000 0.1694404644
H   H23       1.0  0.23510  0.17950  0.55690  1.0000 0.1694404644
H   H24       1.0  0.26490  0.32050  0.05690  1.0000 0.1694404644
H   H25       1.0  0.24360  0.80140  0.84530  1.0000 0.1416569514
H   H26       1.0  0.25640  0.69860  0.34530  1.0000 0.1416569514
H   H27       1.0  0.30140  0.74360  0.65470  1.0000 0.1416569514
H   H28       1.0  0.19860  0.75640  0.15470  1.0000 0.1416569514
H   H29       1.0  0.75640  0.19860  0.15470  1.0000 0.1416569514
H   H30       1.0  0.74360  0.30140  0.65470  1.0000 0.1416569514
H   H31       1.0  0.69860  0.25640  0.34530  1.0000 0.1416569514
H   H32       1.0  0.80140  0.24360  0.84530  1.0000 0.1416569514
H   H33       1.0  0.09800  0.90200  0.00000  1.0000 0.1340912891
H   H34       1.0  0.40200  0.59800  0.50000  1.0000 0.1340912891
H   H35       1.0  0.90200  0.09800  0.00000  1.0000 0.1340912891
H   H36       1.0  0.59800  0.40200  0.50000  1.0000 0.1340912891
C   C1        1.0  0.34660  0.25880  0.26050  1.0000 -0.269991486
C   C2        1.0  0.15340  0.24120  0.76050  1.0000 -0.269991486
C   C3        1.0  0.75880  0.84660  0.23950  1.0000 -0.269991486
C   C4        1.0  0.74120  0.65340  0.73950  1.0000 -0.269991486
C   C5        1.0  0.65340  0.74120  0.73950  1.0000 -0.269991486
C   C6        1.0  0.84660  0.75880  0.23950  1.0000 -0.269991486
C   C7        1.0  0.24120  0.15340  0.76050  1.0000 -0.269991486
C   C8        1.0  0.25880  0.34660  0.26050  1.0000 -0.269991486
C   C9        1.0  0.30100  0.17920  0.33230  1.0000 0.6270896209
C   C10       1.0  0.19900  0.32080  0.83230  1.0000 0.6270896209
C   C11       1.0  0.67920  0.80100  0.16770  1.0000 0.6270896209
C   C12       1.0  0.82080  0.69900  0.66770  1.0000 0.6270896209
C   C13       1.0  0.69900  0.82080  0.66770  1.0000 0.6270896209
C   C14       1.0  0.80100  0.67920  0.16770  1.0000 0.6270896209
C   C15       1.0  0.32080  0.19900  0.83230  1.0000 0.6270896209
C   C16       1.0  0.17920  0.30100  0.33230  1.0000 0.6270896209
C   C17       1.0  0.31310  0.31310  0.09210  1.0000 -0.4573019433
C   C18       1.0  0.18690  0.18690  0.59210  1.0000 -0.4573019433
C   C19       1.0  0.81310  0.81310  0.40790  1.0000 -0.4573019433
C   C20       1.0  0.68690  0.68690  0.90790  1.0000 -0.4573019433
C   C21       1.0  0.28330  0.71670  0.00000  1.0000 0.6181489241
C   C22       1.0  0.21670  0.78330  0.50000  1.0000 0.6181489241
C   C23       1.0  0.71670  0.28330  0.00000  1.0000 0.6181489241
C   C24       1.0  0.78330  0.21670  0.50000  1.0000 0.6181489241
C   C25       1.0  0.23000  0.77000  0.00000  1.0000 0.0036648539
C   C26       1.0  0.27000  0.73000  0.50000  1.0000 0.0036648539
C   C27       1.0  0.77000  0.23000  0.00000  1.0000 0.0036648539
C   C28       1.0  0.73000  0.27000  0.50000  1.0000 0.0036648539
C   C29       1.0  0.21700  0.80760  0.90710  1.0000 -0.0997264069
C   C30       1.0  0.28300  0.69240  0.40710  1.0000 -0.0997264069
C   C31       1.0  0.30760  0.71700  0.59290  1.0000 -0.0997264069
C   C32       1.0  0.19240  0.78300  0.09290  1.0000 -0.0997264069
C   C33       1.0  0.78300  0.19240  0.09290  1.0000 -0.0997264069
C   C34       1.0  0.71700  0.30760  0.59290  1.0000 -0.0997264069
C   C35       1.0  0.69240  0.28300  0.40710  1.0000 -0.0997264069
C   C36       1.0  0.80760  0.21700  0.90710  1.0000 -0.0997264069
C   C37       1.0  0.14060  0.88440  0.80490  1.0000 0.6113387657
C   C38       1.0  0.35940  0.61560  0.30490  1.0000 0.6113387657
C   C39       1.0  0.38440  0.64060  0.69510  1.0000 0.6113387657
C   C40       1.0  0.11560  0.85940  0.19510  1.0000 0.6113387657
C   C41       1.0  0.85940  0.11560  0.19510  1.0000 0.6113387657
C   C42       1.0  0.64060  0.38440  0.69510  1.0000 0.6113387657
C   C43       1.0  0.61560  0.35940  0.30490  1.0000 0.6113387657
C   C44       1.0  0.88440  0.14060  0.80490  1.0000 0.6113387657
C   C45       1.0  0.16490  0.85410  0.90720  1.0000 0.0036648539
C   C46       1.0  0.33510  0.64590  0.40720  1.0000 0.0036648539
C   C47       1.0  0.35410  0.66490  0.59280  1.0000 0.0036648539
C   C48       1.0  0.14590  0.83510  0.09280  1.0000 0.0036648539
C   C49       1.0  0.83510  0.14590  0.09280  1.0000 0.0036648539
C   C50       1.0  0.66490  0.35410  0.59280  1.0000 0.0036648539
C   C51       1.0  0.64590  0.33510  0.40720  1.0000 0.0036648539
C   C52       1.0  0.85410  0.16490  0.90720  1.0000 0.0036648539
C   C53       1.0  0.13120  0.86880  0.00000  1.0000 -0.0997264069
C   C54       1.0  0.36880  0.63120  0.50000  1.0000 -0.0997264069
C   C55       1.0  0.86880  0.13120  0.00000  1.0000 -0.0997264069
C   C56       1.0  0.63120  0.36880  0.50000  1.0000 -0.0997264069
N   N1        1.0  0.28280  0.28280  0.20130  1.0000 0.0295972948
N   N2        1.0  0.21720  0.21720  0.70130  1.0000 0.0295972948
N   N3        1.0  0.78280  0.78280  0.29870  1.0000 0.0295972948
N   N4        1.0  0.71720  0.71720  0.79870  1.0000 0.0295972948
O   O1        1.0  0.05830  0.05830  0.23620  1.0000 -0.768345623
O   O2        1.0  0.44170  0.44170  0.73620  1.0000 -0.768345623
O   O3        1.0  0.55830  0.55830  0.26380  1.0000 -0.768345623
O   O4        1.0  0.94170  0.94170  0.76380  1.0000 -0.768345623
O   O5        1.0  0.22619  0.12101  0.30040  1.0000 -0.5405847045
O   O6        1.0  0.27381  0.37899  0.80040  1.0000 -0.5405847045
O   O7        1.0  0.62101  0.72619  0.19960  1.0000 -0.5405847045
O   O8        1.0  0.87899  0.77381  0.69960  1.0000 -0.5405847045
O   O9        1.0  0.77381  0.87899  0.69960  1.0000 -0.5405847045
O   O10       1.0  0.72619  0.62101  0.19960  1.0000 -0.5405847045
O   O11       1.0  0.37899  0.27381  0.80040  1.0000 -0.5405847045
O   O12       1.0  0.12101  0.22619  0.30040  1.0000 -0.5405847045
O   O13       1.0  0.33960  0.17340  0.41330  1.0000 -0.4785873579
O   O14       1.0  0.16040  0.32660  0.91330  1.0000 -0.4785873579
O   O15       1.0  0.67340  0.83960  0.08670  1.0000 -0.4785873579
O   O16       1.0  0.82660  0.66040  0.58670  1.0000 -0.4785873579
O   O17       1.0  0.66040  0.82660  0.58670  1.0000 -0.4785873579
O   O18       1.0  0.83960  0.67340  0.08670  1.0000 -0.4785873579
O   O19       1.0  0.32660  0.16040  0.91330  1.0000 -0.4785873579
O   O20       1.0  0.17340  0.33960  0.41330  1.0000 -0.4785873579
O   O21       1.0  0.41840  0.41840  0.94960  1.0000 -0.7458260941
O   O22       1.0  0.08160  0.08160  0.44960  1.0000 -0.7458260941
O   O23       1.0  0.91840  0.91840  0.55040  1.0000 -0.7458260941
O   O24       1.0  0.58160  0.58160  0.05040  1.0000 -0.7458260941
O   O25       1.0  0.16819  0.94241  0.42510  1.0000 -1.0534445333
O   O26       1.0  0.33181  0.55759  0.92510  1.0000 -1.0534445333
O   O27       1.0  0.44241  0.66819  0.07490  1.0000 -1.0534445333
O   O28       1.0  0.05759  0.83181  0.57490  1.0000 -1.0534445333
O   O29       1.0  0.83181  0.05759  0.57490  1.0000 -1.0534445333
O   O30       1.0  0.66819  0.44241  0.07490  1.0000 -1.0534445333
O   O31       1.0  0.55759  0.33181  0.92510  1.0000 -1.0534445333
O   O32       1.0  0.94241  0.16819  0.42510  1.0000 -1.0534445333
O   O33       1.0  0.39915  0.49065  0.11660  1.0000 -0.7621799546
O   O34       1.0  0.10085  0.00935  0.61660  1.0000 -0.7621799546
O   O35       1.0  0.99065  0.89915  0.38340  1.0000 -0.7621799546
O   O36       1.0  0.50935  0.60085  0.88340  1.0000 -0.7621799546
O   O37       1.0  0.60085  0.50935  0.88340  1.0000 -0.7621799546
O   O38       1.0  0.89915  0.99065  0.38340  1.0000 -0.7621799546
O   O39       1.0  0.00935  0.10085  0.61660  1.0000 -0.7621799546
O   O40       1.0  0.49065  0.39915  0.11660  1.0000 -0.7621799546
O   O41       1.0  0.35086  0.74354  0.94180  1.0000 -0.5567002582
O   O42       1.0  0.14914  0.75646  0.44180  1.0000 -0.5567002582
O   O43       1.0  0.24354  0.85086  0.55820  1.0000 -0.5567002582
O   O44       1.0  0.25646  0.64914  0.05820  1.0000 -0.5567002582
O   O45       1.0  0.64914  0.25646  0.05820  1.0000 -0.5567002582
O   O46       1.0  0.85086  0.24354  0.55820  1.0000 -0.5567002582
O   O47       1.0  0.75646  0.14914  0.44180  1.0000 -0.5567002582
O   O48       1.0  0.74354  0.35086  0.94180  1.0000 -0.5567002582
O   O49       1.0  0.06092  0.87028  0.79320  1.0000 -0.501278429
O   O50       1.0  0.43908  0.62972  0.29320  1.0000 -0.501278429
O   O51       1.0  0.37028  0.56092  0.70680  1.0000 -0.501278429
O   O52       1.0  0.12972  0.93908  0.20680  1.0000 -0.501278429
O   O53       1.0  0.93908  0.12972  0.20680  1.0000 -0.501278429
O   O54       1.0  0.56092  0.37028  0.70680  1.0000 -0.501278429
O   O55       1.0  0.62972  0.43908  0.29320  1.0000 -0.501278429
O   O56       1.0  0.87028  0.06092  0.79320  1.0000 -0.501278429
O   O57       1.0  0.20182  0.92218  0.73880  1.0000 -0.5887170124
O   O58       1.0  0.29818  0.57782  0.23880  1.0000 -0.5887170124
O   O59       1.0  0.42218  0.70182  0.76120  1.0000 -0.5887170124
O   O60       1.0  0.07782  0.79818  0.26120  1.0000 -0.5887170124
O   O61       1.0  0.79818  0.07782  0.26120  1.0000 -0.5887170124
O   O62       1.0  0.70182  0.42218  0.76120  1.0000 -0.5887170124
O   O63       1.0  0.57782  0.29818  0.23880  1.0000 -0.5887170124
O   O64       1.0  0.92218  0.20182  0.73880  1.0000 -0.5887170124
