# DDEC6 charges by PACMAN v1.1 (https://github.com/mtap-research/PACMAN-charge/)
data_2016[Mg][nan]3[ASR]3
_chemical_formula_sum              "Mg4 H32 C52 N4 O20"
_cell_length_a       12.4842
_cell_length_b       12.4842
_cell_length_c       13.8035
_cell_angle_alpha    61.7968
_cell_angle_beta     118.203
_cell_angle_gamma    94.3094

_symmetry_space_group_name_H-M    "P 1"
_symmetry_Int_Tables_number       1

loop_
  _symmetry_equiv_pos_as_xyz
  'x, y, z'

loop_
  _atom_site_type_symbol
  _atom_site_label
  _atom_site_symmetry_multiplicity
  _atom_site_fract_x
  _atom_site_fract_y
  _atom_site_fract_z
  _atom_site_occupancy
  _atom_site_charge
Mg  Mg1       1.0  0.80819  0.80819  0.25000  1.0000 1.3626397372
Mg  Mg2       1.0  0.19181  0.19181  0.75000  1.0000 1.3626397372
Mg  Mg3       1.0  0.50000  0.00000  0.00000  1.0000 1.3541171075
Mg  Mg4       1.0  0.00000  0.50000  0.50000  1.0000 1.3541171075
H   H1        1.0  0.46600  0.70000  0.13200  1.0000 0.1362492562
H   H2        1.0  0.70000  0.46600  0.36800  1.0000 0.1362492562
H   H3        1.0  0.53400  0.30000  0.86800  1.0000 0.1362492562
H   H4        1.0  0.30000  0.53400  0.63200  1.0000 0.1362492562
H   H5        1.0  0.98400  0.04000  0.10200  1.0000 0.1191017748
H   H6        1.0  0.04000  0.98400  0.39800  1.0000 0.1191017748
H   H7        1.0  0.01600  0.96000  0.89800  1.0000 0.1191017748
H   H8        1.0  0.96000  0.01600  0.60200  1.0000 0.1191017748
H   H9        1.0  0.70900  0.74700  0.02100  1.0000 0.1470638373
H   H10       1.0  0.74700  0.70900  0.47900  1.0000 0.1470638373
H   H11       1.0  0.29100  0.25300  0.97900  1.0000 0.1470638373
H   H12       1.0  0.25300  0.29100  0.52100  1.0000 0.1470638373
H   H13       1.0  0.09700  0.14900  0.99200  1.0000 0.1191017748
H   H14       1.0  0.14900  0.09700  0.50800  1.0000 0.1191017748
H   H15       1.0  0.90300  0.85100  0.00800  1.0000 0.1191017748
H   H16       1.0  0.85100  0.90300  0.49200  1.0000 0.1191017748
H   H17       1.0  0.40000  0.54400  0.08100  1.0000 0.1362492562
H   H18       1.0  0.54400  0.40000  0.41900  1.0000 0.1362492562
H   H19       1.0  0.60000  0.45600  0.91900  1.0000 0.1362492562
H   H20       1.0  0.45600  0.60000  0.58100  1.0000 0.1362492562
H   H21       1.0  0.66700  0.25100  0.77600  1.0000 0.1191017748
H   H22       1.0  0.25100  0.66700  0.72400  1.0000 0.1191017748
H   H23       1.0  0.33300  0.74900  0.22400  1.0000 0.1191017748
H   H24       1.0  0.74900  0.33300  0.27600  1.0000 0.1191017748
H   H25       1.0  0.64600  0.60000  0.95300  1.0000 0.1362492562
H   H26       1.0  0.60000  0.64600  0.54700  1.0000 0.1362492562
H   H27       1.0  0.35400  0.40000  0.04700  1.0000 0.1362492562
H   H28       1.0  0.40000  0.35400  0.45300  1.0000 0.1362492562
H   H29       1.0  0.76600  0.36600  0.67000  1.0000 0.0973018454
H   H30       1.0  0.36600  0.76600  0.83000  1.0000 0.0973018454
H   H31       1.0  0.23400  0.63400  0.33000  1.0000 0.0973018454
H   H32       1.0  0.63400  0.23400  0.17000  1.0000 0.0973018454
C   C1        1.0  0.01165  0.32657  0.75250  1.0000 0.6270421864
C   C2        1.0  0.32657  0.01165  0.74750  1.0000 0.6270421864
C   C3        1.0  0.98835  0.67343  0.24750  1.0000 0.6270421864
C   C4        1.0  0.67343  0.98835  0.25250  1.0000 0.6270421864
C   C5        1.0  0.73942  0.06272  0.00830  1.0000 0.6222046138
C   C6        1.0  0.06272  0.73942  0.49170  1.0000 0.6222046138
C   C7        1.0  0.26058  0.93728  0.99170  1.0000 0.6222046138
C   C8        1.0  0.93728  0.26058  0.50830  1.0000 0.6222046138
C   C9        1.0  0.80855  0.14109  0.94360  1.0000 -0.0196461169
C   C10       1.0  0.14109  0.80855  0.55640  1.0000 -0.0196461169
C   C11       1.0  0.19145  0.85891  0.05640  1.0000 -0.0196461169
C   C12       1.0  0.85891  0.19145  0.44360  1.0000 -0.0196461169
C   C13       1.0  0.51909  0.54885  0.01740  1.0000 0.0973018454
C   C14       1.0  0.54885  0.51909  0.48260  1.0000 0.0973018454
C   C15       1.0  0.48091  0.45115  0.98260  1.0000 0.0973018454
C   C16       1.0  0.45115  0.48091  0.51740  1.0000 0.0973018454
C   C17       1.0  0.50003  0.67403  0.09930  1.0000 -0.0296542576
C   C18       1.0  0.67403  0.50003  0.40070  1.0000 -0.0296542576
C   C19       1.0  0.49997  0.32597  0.90070  1.0000 -0.0296542576
C   C20       1.0  0.32597  0.49997  0.59930  1.0000 -0.0296542576
C   C21       1.0  0.46527  0.58147  0.07030  1.0000 -0.1953006416
C   C22       1.0  0.58147  0.46527  0.42970  1.0000 -0.1953006416
C   C23       1.0  0.53473  0.41853  0.92970  1.0000 -0.1953006416
C   C24       1.0  0.41853  0.53473  0.57030  1.0000 -0.1953006416
C   C25       1.0  0.94157  0.26783  0.82180  1.0000 -0.0196461169
C   C26       1.0  0.26783  0.94157  0.67820  1.0000 -0.0196461169
C   C27       1.0  0.05843  0.73217  0.17820  1.0000 -0.0196461169
C   C28       1.0  0.73217  0.05843  0.32180  1.0000 -0.0196461169
C   C29       1.0  0.00245  0.17485  0.94750  1.0000 -0.0968834339
C   C30       1.0  0.17485  0.00245  0.55250  1.0000 -0.0968834339
C   C31       1.0  0.99755  0.82515  0.05250  1.0000 -0.0968834339
C   C32       1.0  0.82515  0.99755  0.44750  1.0000 -0.0968834339
C   C33       1.0  0.81390  0.29910  0.75970  1.0000 -0.1120577201
C   C34       1.0  0.29910  0.81390  0.74030  1.0000 -0.1120577201
C   C35       1.0  0.18610  0.70090  0.24030  1.0000 -0.1120577201
C   C36       1.0  0.70090  0.18610  0.25970  1.0000 -0.1120577201
C   C37       1.0  0.74860  0.23480  0.81990  1.0000 -0.1150489404
C   C38       1.0  0.23480  0.74860  0.68010  1.0000 -0.1150489404
C   C39       1.0  0.25140  0.76520  0.18010  1.0000 -0.1120577201
C   C40       1.0  0.76520  0.25140  0.31990  1.0000 -0.1150489404
C   C41       1.0  0.93718  0.11258  0.00830  1.0000 -0.0968834339
C   C42       1.0  0.11258  0.93718  0.49170  1.0000 -0.0968834339
C   C43       1.0  0.06282  0.88742  0.99170  1.0000 -0.0968834339
C   C44       1.0  0.88742  0.06282  0.50830  1.0000 -0.0968834339
C   C45       1.0  0.63960  0.70680  0.02560  1.0000 -0.0055952315
C   C46       1.0  0.70680  0.63960  0.47440  1.0000 -0.0055952315
C   C47       1.0  0.36040  0.29320  0.97440  1.0000 -0.0055952315
C   C48       1.0  0.29320  0.36040  0.52560  1.0000 -0.0055952315
C   C49       1.0  0.60671  0.61471  0.99550  1.0000 -0.1817703723
C   C50       1.0  0.61471  0.60671  0.50450  1.0000 -0.1817703723
C   C51       1.0  0.39329  0.38529  0.00450  1.0000 -0.1817703723
C   C52       1.0  0.38529  0.39329  0.49550  1.0000 -0.1817703723
N   N1        1.0  0.58746  0.73336  0.07930  1.0000 0.3307157279
N   N2        1.0  0.73336  0.58746  0.42070  1.0000 0.3307157279
N   N3        1.0  0.41254  0.26664  0.92070  1.0000 0.3307157279
N   N4        1.0  0.26664  0.41254  0.57930  1.0000 0.3307157279
O   O1        1.0  0.62201  0.82067  0.11167  1.0000 -0.60362612
O   O2        1.0  0.82067  0.62201  0.38833  1.0000 -0.60362612
O   O3        1.0  0.37799  0.17933  0.88833  1.0000 -0.60362612
O   O4        1.0  0.17933  0.37799  0.61167  1.0000 -0.60362612
O   O5        1.0  0.80308  0.98024  0.12118  1.0000 -0.6274359702
O   O6        1.0  0.98024  0.80308  0.37882  1.0000 -0.6274359702
O   O7        1.0  0.19692  0.01976  0.87882  1.0000 -0.6274359702
O   O8        1.0  0.01976  0.19692  0.62118  1.0000 -0.6274359702
O   O9        1.0  0.95608  0.41938  0.64363  1.0000 -0.6234965353
O   O10       1.0  0.41938  0.95608  0.85637  1.0000 -0.6234965353
O   O11       1.0  0.04392  0.58062  0.35637  1.0000 -0.6234965353
O   O12       1.0  0.58062  0.04392  0.14363  1.0000 -0.6234965353
O   O13       1.0  0.12310  0.27472  0.80904  1.0000 -0.6678700923
O   O14       1.0  0.27472  0.12310  0.69096  1.0000 -0.6678700923
O   O15       1.0  0.87690  0.72528  0.19096  1.0000 -0.6678700923
O   O16       1.0  0.72528  0.87690  0.30904  1.0000 -0.6678700923
O   O17       1.0  0.62256  0.08524  0.94231  1.0000 -0.6518943934
O   O18       1.0  0.08524  0.62256  0.55769  1.0000 -0.6518943934
O   O19       1.0  0.37744  0.91476  0.05769  1.0000 -0.6518943934
O   O20       1.0  0.91476  0.37744  0.44231  1.0000 -0.6518943934
