# DDEC6 charges by PACMAN v1.1 (https://github.com/mtap-research/PACMAN-charge/)
data_2017[Zn][sql]2[ASR]18
_chemical_formula_sum              "Zn2 H26 C38 N10 O8"
_cell_length_a       9.361
_cell_length_b       11.2616
_cell_length_c       11.6042
_cell_angle_alpha    84.504
_cell_angle_beta     113.472
_cell_angle_gamma    108.801

_symmetry_space_group_name_H-M    "P 1"
_symmetry_Int_Tables_number       1

loop_
  _symmetry_equiv_pos_as_xyz
  'x, y, z'

loop_
  _atom_site_type_symbol
  _atom_site_label
  _atom_site_symmetry_multiplicity
  _atom_site_fract_x
  _atom_site_fract_y
  _atom_site_fract_z
  _atom_site_occupancy
  _atom_site_charge
Zn  Zn1       1.0  0.39719  0.69912  0.69699  1.0000 0.7651789996
Zn  Zn2       1.0  0.60281  0.30088  0.30301  1.0000 0.7651789996
H   H1        1.0  0.95170  0.28860  0.95320  1.0000 0.1116322475
H   H2        1.0  0.35800  0.56680  0.14090  1.0000 0.1431103263
H   H3        1.0  0.05440  0.36520  0.30030  1.0000 0.1201480168
H   H4        1.0  0.14640  0.41560  0.64460  1.0000 0.1301086757
H   H5        1.0  0.03090  0.30340  0.79220  1.0000 0.1301086757
H   H6        1.0  0.37140  0.62190  0.95590  1.0000 0.1201480168
H   H7        1.0  0.54900  0.62860  0.34610  1.0000 0.1301086757
H   H8        1.0  0.63010  0.72040  0.55380  1.0000 0.1301086757
H   H9        1.0  0.16290  0.53200  0.43880  1.0000 0.1201480168
H   H10       1.0  0.83350  0.91940  0.10900  1.0000 0.1116322475
H   H11       1.0  0.08890  0.05570  0.20880  1.0000 0.1201480168
H   H12       1.0  0.25070  0.03630  0.66380  1.0000 0.1301086757
H   H13       1.0  0.13510  0.19460  0.59910  1.0000 0.1116322475
H   H14       1.0  0.04830  0.71140  0.04680  1.0000 0.1116322475
H   H15       1.0  0.64200  0.43320  0.85910  1.0000 0.1431103263
H   H16       1.0  0.94560  0.63480  0.69970  1.0000 0.1201480168
H   H17       1.0  0.85360  0.58440  0.35540  1.0000 0.1301086757
H   H18       1.0  0.96910  0.69660  0.20780  1.0000 0.1301086757
H   H19       1.0  0.62860  0.37810  0.04410  1.0000 0.1201480168
H   H20       1.0  0.45100  0.37140  0.65390  1.0000 0.1301086757
H   H21       1.0  0.36990  0.27960  0.44620  1.0000 0.1301086757
H   H22       1.0  0.83710  0.46800  0.56120  1.0000 0.1201480168
H   H23       1.0  0.16650  0.08060  0.89100  1.0000 0.1116322475
H   H24       1.0  0.91110  0.94430  0.79120  1.0000 0.1201480168
H   H25       1.0  0.74930  0.96370  0.33620  1.0000 0.1301086757
H   H26       1.0  0.86490  0.80540  0.40090  1.0000 0.1116322475
C   C1        1.0  0.02110  0.33640  0.02710  1.0000 -0.0311911559
C   C2        1.0  0.16100  0.42950  0.02820  1.0000 0.1431103263
C   C3        1.0  0.26320  0.50320  0.13660  1.0000 -0.2339409006
C   C4        1.0  0.21780  0.47780  0.23810  1.0000 0.1301086757
C   C5        1.0  0.08050  0.38240  0.22980  1.0000 -0.0411849891
C   C6        1.0  0.17750  0.44280  0.72670  1.0000 -0.0465659064
C   C7        1.0  0.11360  0.38000  0.80740  1.0000 -0.1021056883
C   C8        1.0  0.30240  0.55660  0.89690  1.0000 0.1116322475
C   C9        1.0  0.48230  0.61990  0.39010  1.0000 -0.1021056883
C   C10       1.0  0.52540  0.67060  0.50400  1.0000 -0.0311911559
C   C11       1.0  0.26920  0.56720  0.44250  1.0000 0.1116322475
C   C12       1.0  0.84320  0.91510  0.93760  1.0000 -0.0311911559
C   C13       1.0  0.90070  0.95170  0.06490  1.0000 -0.1211847898
C   C14       1.0  0.05350  0.03370  0.12440  1.0000 -0.1021056883
C   C15       1.0  0.67830  0.82520  0.87530  1.0000 0.5348507973
C   C16       1.0  0.06990  0.90430  0.53970  1.0000 -0.0126951959
C   C17       1.0  0.14890  0.02100  0.59740  1.0000 -0.1097350952
C   C18       1.0  0.07990  0.11590  0.55860  1.0000 -0.1211847898
C   C19       1.0  0.14450  0.79900  0.58270  1.0000 0.5512227329
C   C20       1.0  0.97890  0.66360  0.97290  1.0000 -0.0311911559
C   C21       1.0  0.83900  0.57050  0.97180  1.0000 0.1431103263
C   C22       1.0  0.73680  0.49680  0.86340  1.0000 -0.2339409006
C   C23       1.0  0.78220  0.52220  0.76190  1.0000 0.1301086757
C   C24       1.0  0.91950  0.61760  0.77020  1.0000 -0.0411849891
C   C25       1.0  0.82250  0.55720  0.27330  1.0000 -0.0465659064
C   C26       1.0  0.88640  0.62000  0.19260  1.0000 -0.1021056883
C   C27       1.0  0.69760  0.44340  0.10310  1.0000 0.1116322475
C   C28       1.0  0.51770  0.38010  0.60990  1.0000 -0.1021056883
C   C29       1.0  0.47460  0.32940  0.49600  1.0000 -0.0311911559
C   C30       1.0  0.73080  0.43280  0.55750  1.0000 0.1116322475
C   C31       1.0  0.15680  0.08490  0.06240  1.0000 -0.0311911559
C   C32       1.0  0.09930  0.04830  0.93510  1.0000 -0.1211847898
C   C33       1.0  0.94650  0.96630  0.87560  1.0000 -0.1021056883
C   C34       1.0  0.32170  0.17480  0.12470  1.0000 0.5348507973
C   C35       1.0  0.93010  0.09570  0.46030  1.0000 -0.0126951959
C   C36       1.0  0.85110  0.97900  0.40260  1.0000 -0.1097350952
C   C37       1.0  0.92010  0.88410  0.44140  1.0000 -0.1211847898
C   C38       1.0  0.85550  0.20100  0.41730  1.0000 0.5512227329
N   N1        1.0  0.98210  0.31260  0.12530  1.0000 -0.171369457
N   N2        1.0  0.29610  0.55380  0.78240  1.0000 -0.2797411916
N   N3        1.0  0.19530  0.45180  0.91800  1.0000 0.0071287637
N   N4        1.0  0.39060  0.63780  0.53600  1.0000 -0.2797411916
N   N5        1.0  0.31810  0.55190  0.35200  1.0000 0.0071287637
N   N6        1.0  0.01790  0.68740  0.87470  1.0000 -0.171369457
N   N7        1.0  0.70390  0.44620  0.21760  1.0000 -0.2797411916
N   N8        1.0  0.80470  0.54820  0.08200  1.0000 0.0071287637
N   N9        1.0  0.60940  0.36220  0.46400  1.0000 -0.2797411916
N   N10       1.0  0.68190  0.44810  0.64800  1.0000 0.0071287637
O   O1        1.0  0.63400  0.79500  0.76300  1.0000 -0.5213644293
O   O2        1.0  0.58760  0.78520  0.93180  1.0000 -0.5415619996
O   O3        1.0  0.29490  0.83120  0.66160  1.0000 -0.5254484204
O   O4        1.0  0.06370  0.69080  0.54230  1.0000 -0.5655271796
O   O5        1.0  0.36600  0.20500  0.23700  1.0000 -0.5213644293
O   O6        1.0  0.41240  0.21480  0.06820  1.0000 -0.5415619996
O   O7        1.0  0.70510  0.16880  0.33840  1.0000 -0.5254484204
O   O8        1.0  0.93630  0.30920  0.45770  1.0000 -0.5655271796
