# DDEC6 charges by PACMAN v1.1 (https://github.com/mtap-research/PACMAN-charge/)
data_2017[Cu][kgm]3[ASR]1
_chemical_formula_sum              "Cu6 H30 C84 O30"
_cell_length_a       18.6495
_cell_length_b       18.6495
_cell_length_c       6.9416
_cell_angle_alpha    90
_cell_angle_beta     90
_cell_angle_gamma    120

_symmetry_space_group_name_H-M    "P 1"
_symmetry_Int_Tables_number       1

loop_
  _symmetry_equiv_pos_as_xyz
  'x, y, z'

loop_
  _atom_site_type_symbol
  _atom_site_label
  _atom_site_symmetry_multiplicity
  _atom_site_fract_x
  _atom_site_fract_y
  _atom_site_fract_z
  _atom_site_occupancy
  _atom_site_charge
Cu  Cu1       1.0  0.04650  0.52325  0.65429  1.0000 0.7762509354
Cu  Cu2       1.0  0.47675  0.95350  0.65429  1.0000 0.7762509354
Cu  Cu3       1.0  0.47675  0.52325  0.65429  1.0000 0.7762509354
Cu  Cu4       1.0  0.52325  0.47675  0.34571  1.0000 0.7762509354
Cu  Cu5       1.0  0.52325  0.04650  0.34571  1.0000 0.7762509354
Cu  Cu6       1.0  0.95350  0.47675  0.34571  1.0000 0.7762509354
H   H1        1.0  0.07850  0.37210  0.02150  1.0000 0.148923384
H   H2        1.0  0.25360  0.30170  0.77840  1.0000 0.1121883088
H   H3        1.0  0.29360  0.92150  0.02150  1.0000 0.148923384
H   H4        1.0  0.04810  0.74640  0.77840  1.0000 0.1121883088
H   H5        1.0  0.62790  0.70640  0.02150  1.0000 0.148923384
H   H6        1.0  0.69830  0.95190  0.77840  1.0000 0.1121883088
H   H7        1.0  0.70640  0.62790  0.97850  1.0000 0.148923384
H   H8        1.0  0.95190  0.69830  0.22160  1.0000 0.1121883088
H   H9        1.0  0.37210  0.07850  0.97850  1.0000 0.148923384
H   H10       1.0  0.30170  0.25360  0.22160  1.0000 0.1121883088
H   H11       1.0  0.92150  0.29360  0.97850  1.0000 0.148923384
H   H12       1.0  0.74640  0.04810  0.22160  1.0000 0.1121883088
H   H13       1.0  0.92150  0.62790  0.97850  1.0000 0.148923384
H   H14       1.0  0.74640  0.69830  0.22160  1.0000 0.1121883088
H   H15       1.0  0.70640  0.07850  0.97850  1.0000 0.148923384
H   H16       1.0  0.95190  0.25360  0.22160  1.0000 0.1121883088
H   H17       1.0  0.37210  0.29360  0.97850  1.0000 0.148923384
H   H18       1.0  0.30170  0.04810  0.22160  1.0000 0.1121883088
H   H19       1.0  0.29360  0.37210  0.02150  1.0000 0.148923384
H   H20       1.0  0.04810  0.30170  0.77840  1.0000 0.1121883088
H   H21       1.0  0.62790  0.92150  0.02150  1.0000 0.148923384
H   H22       1.0  0.69830  0.74640  0.77840  1.0000 0.1121883088
H   H23       1.0  0.07850  0.70640  0.02150  1.0000 0.148923384
H   H24       1.0  0.25360  0.95190  0.77840  1.0000 0.1121883088
H   H25       1.0  0.23610  0.47220  0.46850  1.0000 0.148923384
H   H26       1.0  0.23610  0.76390  0.46850  1.0000 0.148923384
H   H27       1.0  0.52780  0.76390  0.46850  1.0000 0.148923384
H   H28       1.0  0.76390  0.52780  0.53150  1.0000 0.148923384
H   H29       1.0  0.47220  0.23610  0.53150  1.0000 0.148923384
H   H30       1.0  0.76390  0.23610  0.53150  1.0000 0.148923384
C   C1        1.0  0.09140  0.45120  0.34980  1.0000 0.552136875
C   C2        1.0  0.14800  0.42490  0.25930  1.0000 0.0121810094
C   C3        1.0  0.12800  0.38500  0.08220  1.0000 -0.2194671712
C   C4        1.0  0.20150  0.29100  0.73900  1.0000 -0.0799837734
C   C5        1.0  0.23400  0.21500  0.56400  1.0000 -0.0425695523
C   C6        1.0  0.15800  0.23800  0.58200  1.0000 0.0303557248
C   C7        1.0  0.35980  0.90860  0.34980  1.0000 0.552136875
C   C8        1.0  0.27690  0.85200  0.25930  1.0000 0.0121810094
C   C9        1.0  0.25700  0.87200  0.08220  1.0000 -0.2194671712
C   C10       1.0  0.08950  0.79850  0.73900  1.0000 -0.0799837734
C   C11       1.0  0.98100  0.76600  0.56400  1.0000 -0.0425695523
C   C12       1.0  0.08000  0.84200  0.58200  1.0000 0.0303557248
C   C13       1.0  0.54880  0.64020  0.34980  1.0000 0.552136875
C   C14       1.0  0.57510  0.72310  0.25930  1.0000 0.0121810094
C   C15       1.0  0.61500  0.74300  0.08220  1.0000 -0.2194671712
C   C16       1.0  0.70900  0.91050  0.73900  1.0000 -0.0799837734
C   C17       1.0  0.78500  0.01900  0.56400  1.0000 -0.0425695523
C   C18       1.0  0.76200  0.92000  0.58200  1.0000 0.0303557248
C   C19       1.0  0.64020  0.54880  0.65020  1.0000 0.552136875
C   C20       1.0  0.72310  0.57510  0.74070  1.0000 0.0121810094
C   C21       1.0  0.74300  0.61500  0.91780  1.0000 -0.2194671712
C   C22       1.0  0.91050  0.70900  0.26100  1.0000 -0.0799837734
C   C23       1.0  0.01900  0.78500  0.43600  1.0000 -0.0425695523
C   C24       1.0  0.92000  0.76200  0.41800  1.0000 0.0303557248
C   C25       1.0  0.45120  0.09140  0.65020  1.0000 0.552136875
C   C26       1.0  0.42490  0.14800  0.74070  1.0000 0.0121810094
C   C27       1.0  0.38500  0.12800  0.91780  1.0000 -0.2194671712
C   C28       1.0  0.29100  0.20150  0.26100  1.0000 -0.0799837734
C   C29       1.0  0.21500  0.23400  0.43600  1.0000 -0.0425695523
C   C30       1.0  0.23800  0.15800  0.41800  1.0000 0.0303557248
C   C31       1.0  0.90860  0.35980  0.65020  1.0000 0.552136875
C   C32       1.0  0.85200  0.27690  0.74070  1.0000 0.0121810094
C   C33       1.0  0.87200  0.25700  0.91780  1.0000 -0.2194671712
C   C34       1.0  0.79850  0.08950  0.26100  1.0000 -0.0799837734
C   C35       1.0  0.76600  0.98100  0.43600  1.0000 -0.0425695523
C   C36       1.0  0.84200  0.08000  0.41800  1.0000 0.0303557248
C   C37       1.0  0.90860  0.54880  0.65020  1.0000 0.552136875
C   C38       1.0  0.85200  0.57510  0.74070  1.0000 0.0121810094
C   C39       1.0  0.87200  0.61500  0.91780  1.0000 -0.2194671712
C   C40       1.0  0.79850  0.70900  0.26100  1.0000 -0.0799837734
C   C41       1.0  0.76600  0.78500  0.43600  1.0000 -0.0425695523
C   C42       1.0  0.84200  0.76200  0.41800  1.0000 0.0303557248
C   C43       1.0  0.64020  0.09140  0.65020  1.0000 0.552136875
C   C44       1.0  0.72310  0.14800  0.74070  1.0000 0.0121810094
C   C45       1.0  0.74300  0.12800  0.91780  1.0000 -0.2194671712
C   C46       1.0  0.91050  0.20150  0.26100  1.0000 -0.0799837734
C   C47       1.0  0.01900  0.23400  0.43600  1.0000 -0.0425695523
C   C48       1.0  0.92000  0.15800  0.41800  1.0000 0.0303557248
C   C49       1.0  0.45120  0.35980  0.65020  1.0000 0.552136875
C   C50       1.0  0.42490  0.27690  0.74070  1.0000 0.0121810094
C   C51       1.0  0.38500  0.25700  0.91780  1.0000 -0.2194671712
C   C52       1.0  0.29100  0.08950  0.26100  1.0000 -0.0799837734
C   C53       1.0  0.21500  0.98100  0.43600  1.0000 -0.0425695523
C   C54       1.0  0.23800  0.08000  0.41800  1.0000 0.0303557248
C   C55       1.0  0.35980  0.45120  0.34980  1.0000 0.552136875
C   C56       1.0  0.27690  0.42490  0.25930  1.0000 0.0121810094
C   C57       1.0  0.25700  0.38500  0.08220  1.0000 -0.2194671712
C   C58       1.0  0.08950  0.29100  0.73900  1.0000 -0.0799837734
C   C59       1.0  0.98100  0.21500  0.56400  1.0000 -0.0425695523
C   C60       1.0  0.08000  0.23800  0.58200  1.0000 0.0303557248
C   C61       1.0  0.54880  0.90860  0.34980  1.0000 0.552136875
C   C62       1.0  0.57510  0.85200  0.25930  1.0000 0.0121810094
C   C63       1.0  0.61500  0.87200  0.08220  1.0000 -0.2194671712
C   C64       1.0  0.70900  0.79850  0.73900  1.0000 -0.0799837734
C   C65       1.0  0.78500  0.76600  0.56400  1.0000 -0.0425695523
C   C66       1.0  0.76200  0.84200  0.58200  1.0000 0.0303557248
C   C67       1.0  0.09140  0.64020  0.34980  1.0000 0.552136875
C   C68       1.0  0.14800  0.72310  0.25930  1.0000 0.0121810094
C   C69       1.0  0.12800  0.74300  0.08220  1.0000 -0.2194671712
C   C70       1.0  0.20150  0.91050  0.73900  1.0000 -0.0799837734
C   C71       1.0  0.23400  0.01900  0.56400  1.0000 -0.0425695523
C   C72       1.0  0.15800  0.92000  0.58200  1.0000 0.0303557248
C   C73       1.0  0.22270  0.44540  0.34990  1.0000 -0.1563868008
C   C74       1.0  0.18230  0.36460  0.99730  1.0000 0.2187431224
C   C75       1.0  0.22270  0.77730  0.34990  1.0000 -0.1563868008
C   C76       1.0  0.18230  0.81770  0.99730  1.0000 0.2187431224
C   C77       1.0  0.55460  0.77730  0.34990  1.0000 -0.1563868008
C   C78       1.0  0.63540  0.81770  0.99730  1.0000 0.2187431224
C   C79       1.0  0.77730  0.55460  0.65010  1.0000 -0.1563868008
C   C80       1.0  0.81770  0.63540  0.00270  1.0000 0.2187431224
C   C81       1.0  0.44540  0.22270  0.65010  1.0000 -0.1563868008
C   C82       1.0  0.36460  0.18230  0.00270  1.0000 0.2187431224
C   C83       1.0  0.77730  0.22270  0.65010  1.0000 -0.1563868008
C   C84       1.0  0.81770  0.18230  0.00270  1.0000 0.2187431224
O   O1        1.0  0.10830  0.47990  0.51750  1.0000 -0.5045027963
O   O2        1.0  0.03130  0.44190  0.25240  1.0000 -0.4926884703
O   O3        1.0  0.37160  0.89170  0.51750  1.0000 -0.5045027963
O   O4        1.0  0.41060  0.96870  0.25240  1.0000 -0.4926884703
O   O5        1.0  0.52010  0.62840  0.51750  1.0000 -0.5045027963
O   O6        1.0  0.55810  0.58940  0.25240  1.0000 -0.4926884703
O   O7        1.0  0.62840  0.52010  0.48250  1.0000 -0.5045027963
O   O8        1.0  0.58940  0.55810  0.74760  1.0000 -0.4926884703
O   O9        1.0  0.47990  0.10830  0.48250  1.0000 -0.5045027963
O   O10       1.0  0.44190  0.03130  0.74760  1.0000 -0.4926884703
O   O11       1.0  0.89170  0.37160  0.48250  1.0000 -0.5045027963
O   O12       1.0  0.96870  0.41060  0.74760  1.0000 -0.4926884703
O   O13       1.0  0.89170  0.52010  0.48250  1.0000 -0.5045027963
O   O14       1.0  0.96870  0.55810  0.74760  1.0000 -0.4926884703
O   O15       1.0  0.62840  0.10830  0.48250  1.0000 -0.5045027963
O   O16       1.0  0.58940  0.03130  0.74760  1.0000 -0.4926884703
O   O17       1.0  0.47990  0.37160  0.48250  1.0000 -0.5045027963
O   O18       1.0  0.44190  0.41060  0.74760  1.0000 -0.4926884703
O   O19       1.0  0.37160  0.47990  0.51750  1.0000 -0.5045027963
O   O20       1.0  0.41060  0.44190  0.25240  1.0000 -0.4926884703
O   O21       1.0  0.52010  0.89170  0.51750  1.0000 -0.5045027963
O   O22       1.0  0.55810  0.96870  0.25240  1.0000 -0.4926884703
O   O23       1.0  0.10830  0.62840  0.51750  1.0000 -0.5045027963
O   O24       1.0  0.03130  0.58940  0.25240  1.0000 -0.4926884703
O   O25       1.0  0.16150  0.32300  0.82320  1.0000 -0.0206777181
O   O26       1.0  0.16150  0.83850  0.82320  1.0000 -0.0206777181
O   O27       1.0  0.67700  0.83850  0.82320  1.0000 -0.0206777181
O   O28       1.0  0.83850  0.67700  0.17680  1.0000 -0.0206777181
O   O29       1.0  0.32300  0.16150  0.17680  1.0000 -0.0206777181
O   O30       1.0  0.83850  0.16150  0.17680  1.0000 -0.0206777181
