# DDEC6 charges by PACMAN v1.1 (https://github.com/mtap-research/PACMAN-charge/)
data_2017[CuEu][nan]3[ASR]1
_chemical_formula_sum              "Eu8 Cu16 H112 C168 I12 N28 O56"
_cell_length_a       9.2909
_cell_length_b       22.8967
_cell_length_c       30.9233
_cell_angle_alpha    90
_cell_angle_beta     90
_cell_angle_gamma    90

_symmetry_space_group_name_H-M    "P 1"
_symmetry_Int_Tables_number       1

loop_
  _symmetry_equiv_pos_as_xyz
  'x, y, z'

loop_
  _atom_site_type_symbol
  _atom_site_label
  _atom_site_symmetry_multiplicity
  _atom_site_fract_x
  _atom_site_fract_y
  _atom_site_fract_z
  _atom_site_occupancy
  _atom_site_charge
Eu  Eu1       1.0  0.45992  0.55855  0.48441  1.0000 2.1890765677
Eu  Eu2       1.0  0.99107  0.53065  0.47789  1.0000 2.1758319387
Eu  Eu3       1.0  0.04008  0.44145  0.98441  1.0000 2.1890765677
Eu  Eu4       1.0  0.50893  0.46935  0.97789  1.0000 2.1758319387
Eu  Eu5       1.0  0.54008  0.05855  0.01559  1.0000 2.1890765677
Eu  Eu6       1.0  0.00893  0.03065  0.02211  1.0000 2.1758319387
Eu  Eu7       1.0  0.95992  0.94145  0.51559  1.0000 2.1890765677
Eu  Eu8       1.0  0.49107  0.96935  0.52211  1.0000 2.1758319387
Cu  Cu1       1.0  0.04462  0.11714  0.27579  1.0000 0.1869297201
Cu  Cu2       1.0  0.50950  0.35931  0.24872  1.0000 0.2024392268
Cu  Cu3       1.0  0.71770  0.23425  0.32007  1.0000 0.2024392268
Cu  Cu4       1.0  0.74429  0.28300  0.24012  1.0000 0.1763806293
Cu  Cu5       1.0  0.45538  0.88286  0.77579  1.0000 0.1869297201
Cu  Cu6       1.0  0.99050  0.64069  0.74872  1.0000 0.2024392268
Cu  Cu7       1.0  0.78230  0.76575  0.82007  1.0000 0.2024392268
Cu  Cu8       1.0  0.75571  0.71700  0.74012  1.0000 0.1763806293
Cu  Cu9       1.0  0.95538  0.61714  0.22421  1.0000 0.1869297201
Cu  Cu10      1.0  0.49050  0.85931  0.25128  1.0000 0.2024392268
Cu  Cu11      1.0  0.28230  0.73425  0.17993  1.0000 0.2024392268
Cu  Cu12      1.0  0.25571  0.78300  0.25988  1.0000 0.1763806293
Cu  Cu13      1.0  0.54462  0.38286  0.72421  1.0000 0.1869297201
Cu  Cu14      1.0  0.00950  0.14069  0.75128  1.0000 0.2024392268
Cu  Cu15      1.0  0.21770  0.26575  0.67993  1.0000 0.2024392268
Cu  Cu16      1.0  0.24429  0.21700  0.75988  1.0000 0.1763806293
H   H1        1.0  0.10230  0.42250  0.34420  1.0000 0.1298192764
H   H2        1.0  0.88980  0.52040  0.36520  1.0000 0.138782377
H   H3        1.0  0.97040  0.53120  0.29540  1.0000 0.1000175035
H   H4        1.0  0.99860  0.68110  0.37900  1.0000 0.1298192764
H   H5        1.0  0.44010  0.41360  0.58290  1.0000 0.1298192764
H   H6        1.0  0.48140  0.49840  0.37190  1.0000 0.138782377
H   H7        1.0  0.57740  0.44960  0.31440  1.0000 0.1000175035
H   H8        1.0  0.42610  0.68690  0.39640  1.0000 0.138782377
H   H9        1.0  0.44330  0.74190  0.33420  1.0000 0.0922927508
H   H10       1.0  0.89860  0.33550  0.34860  1.0000 0.1065203364
H   H11       1.0  0.02540  0.73920  0.31950  1.0000 0.0922927508
H   H12       1.0  0.53740  0.41300  0.09380  1.0000 0.138782377
H   H13       1.0  0.42110  0.34970  0.63930  1.0000 0.0922927508
H   H14       1.0  0.61940  0.38940  0.16130  1.0000 0.1000175035
H   H15       1.0  0.75100  0.67670  0.28490  1.0000 0.1000175035
H   H16       1.0  0.74650  0.36630  0.64960  1.0000 0.1065203364
H   H17       1.0  0.65430  0.66440  0.35220  1.0000 0.138782377
H   H18       1.0  0.50280  0.29790  0.37590  1.0000 0.1000175035
H   H19       1.0  0.21330  0.37570  0.28760  1.0000 0.1065203364
H   H20       1.0  0.90300  0.40760  0.39760  1.0000 0.138782377
H   H21       1.0  0.50800  0.49560  0.68320  1.0000 0.1065203364
H   H22       1.0  0.14910  0.35480  0.12700  1.0000 0.138782377
H   H23       1.0  0.49060  0.37290  0.42440  1.0000 0.138782377
H   H24       1.0  0.81720  0.41440  0.58790  1.0000 0.138782377
H   H25       1.0  0.01980  0.32000  0.61450  1.0000 0.1000175035
H   H26       1.0  0.23560  0.33590  0.19490  1.0000 0.1065203364
H   H27       1.0  0.02620  0.37870  0.55450  1.0000 0.138782377
H   H28       1.0  0.55660  0.54560  0.62060  1.0000 0.1535016546
H   H29       1.0  0.39770  0.57750  0.84420  1.0000 0.1298192764
H   H30       1.0  0.61020  0.47960  0.86520  1.0000 0.138782377
H   H31       1.0  0.52960  0.46880  0.79540  1.0000 0.1000175035
H   H32       1.0  0.50140  0.31890  0.87900  1.0000 0.1298192764
H   H33       1.0  0.05990  0.58640  0.08290  1.0000 0.1298192764
H   H34       1.0  0.01860  0.50160  0.87190  1.0000 0.138782377
H   H35       1.0  0.92260  0.55040  0.81440  1.0000 0.1000175035
H   H36       1.0  0.07390  0.31310  0.89640  1.0000 0.138782377
H   H37       1.0  0.05670  0.25810  0.83420  1.0000 0.0922927508
H   H38       1.0  0.60140  0.66450  0.84860  1.0000 0.1065203364
H   H39       1.0  0.47460  0.26080  0.81950  1.0000 0.0922927508
H   H40       1.0  0.96260  0.58700  0.59380  1.0000 0.138782377
H   H41       1.0  0.07890  0.65030  0.13930  1.0000 0.0922927508
H   H42       1.0  0.88060  0.61060  0.66130  1.0000 0.1000175035
H   H43       1.0  0.74900  0.32330  0.78490  1.0000 0.1000175035
H   H44       1.0  0.75350  0.63370  0.14960  1.0000 0.1065203364
H   H45       1.0  0.84570  0.33560  0.85220  1.0000 0.138782377
H   H46       1.0  0.99720  0.70210  0.87590  1.0000 0.1000175035
H   H47       1.0  0.28670  0.62430  0.78760  1.0000 0.1065203364
H   H48       1.0  0.59700  0.59240  0.89760  1.0000 0.138782377
H   H49       1.0  0.99200  0.50440  0.18320  1.0000 0.1065203364
H   H50       1.0  0.35090  0.64520  0.62700  1.0000 0.138782377
H   H51       1.0  0.00940  0.62710  0.92440  1.0000 0.138782377
H   H52       1.0  0.68280  0.58560  0.08790  1.0000 0.138782377
H   H53       1.0  0.48020  0.68000  0.11450  1.0000 0.1000175035
H   H54       1.0  0.26440  0.66410  0.69490  1.0000 0.1065203364
H   H55       1.0  0.47380  0.62130  0.05450  1.0000 0.138782377
H   H56       1.0  0.94340  0.45440  0.12060  1.0000 0.1535016546
H   H57       1.0  0.89770  0.92250  0.15580  1.0000 0.1298192764
H   H58       1.0  0.11020  0.02040  0.13480  1.0000 0.138782377
H   H59       1.0  0.02960  0.03120  0.20460  1.0000 0.1000175035
H   H60       1.0  0.00140  0.18110  0.12100  1.0000 0.1298192764
H   H61       1.0  0.55990  0.91360  0.91710  1.0000 0.1298192764
H   H62       1.0  0.51860  0.99840  0.12810  1.0000 0.138782377
H   H63       1.0  0.42260  0.94960  0.18560  1.0000 0.1000175035
H   H64       1.0  0.57390  0.18690  0.10360  1.0000 0.138782377
H   H65       1.0  0.55670  0.24190  0.16580  1.0000 0.0922927508
H   H66       1.0  0.10140  0.83550  0.15140  1.0000 0.1065203364
H   H67       1.0  0.97460  0.23920  0.18050  1.0000 0.0922927508
H   H68       1.0  0.46260  0.91300  0.40620  1.0000 0.138782377
H   H69       1.0  0.57890  0.84970  0.86070  1.0000 0.0922927508
H   H70       1.0  0.38060  0.88940  0.33870  1.0000 0.1000175035
H   H71       1.0  0.24900  0.17670  0.21510  1.0000 0.1000175035
H   H72       1.0  0.25350  0.86630  0.85040  1.0000 0.1065203364
H   H73       1.0  0.34570  0.16440  0.14780  1.0000 0.138782377
H   H74       1.0  0.49720  0.79790  0.12410  1.0000 0.1000175035
H   H75       1.0  0.78670  0.87570  0.21240  1.0000 0.1065203364
H   H76       1.0  0.09700  0.90760  0.10240  1.0000 0.138782377
H   H77       1.0  0.49200  0.99560  0.81680  1.0000 0.1065203364
H   H78       1.0  0.85090  0.85480  0.37300  1.0000 0.138782377
H   H79       1.0  0.50940  0.87290  0.07560  1.0000 0.138782377
H   H80       1.0  0.18280  0.91440  0.91210  1.0000 0.138782377
H   H81       1.0  0.98020  0.82000  0.88550  1.0000 0.1000175035
H   H82       1.0  0.76440  0.83590  0.30510  1.0000 0.1065203364
H   H83       1.0  0.97380  0.87870  0.94550  1.0000 0.138782377
H   H84       1.0  0.44340  0.04560  0.87940  1.0000 0.1535016546
H   H85       1.0  0.60230  0.07750  0.65580  1.0000 0.1298192764
H   H86       1.0  0.38980  0.97960  0.63480  1.0000 0.138782377
H   H87       1.0  0.47040  0.96880  0.70460  1.0000 0.1000175035
H   H88       1.0  0.49860  0.81890  0.62100  1.0000 0.1298192764
H   H89       1.0  0.94010  0.08640  0.41710  1.0000 0.1298192764
H   H90       1.0  0.98140  0.00160  0.62810  1.0000 0.138782377
H   H91       1.0  0.07740  0.05040  0.68560  1.0000 0.1000175035
H   H92       1.0  0.92610  0.81310  0.60360  1.0000 0.138782377
H   H93       1.0  0.94330  0.75810  0.66580  1.0000 0.0922927508
H   H94       1.0  0.39860  0.16450  0.65140  1.0000 0.1000175035
H   H95       1.0  0.52540  0.76080  0.68050  1.0000 0.0922927508
H   H96       1.0  0.03740  0.08700  0.90620  1.0000 0.138782377
H   H97       1.0  0.92110  0.15030  0.36070  1.0000 0.0922927508
H   H98       1.0  0.11940  0.11060  0.83870  1.0000 0.1000175035
H   H99       1.0  0.25100  0.82330  0.71510  1.0000 0.1000175035
H   H100      1.0  0.24650  0.13370  0.35040  1.0000 0.1065203364
H   H101      1.0  0.15430  0.83560  0.64780  1.0000 0.138782377
H   H102      1.0  0.00280  0.20210  0.62410  1.0000 0.1000175035
H   H103      1.0  0.71330  0.12430  0.71240  1.0000 0.1065203364
H   H104      1.0  0.40300  0.09240  0.60240  1.0000 0.138782377
H   H105      1.0  0.00800  0.00440  0.31680  1.0000 0.1065203364
H   H106      1.0  0.64910  0.14520  0.87300  1.0000 0.138782377
H   H107      1.0  0.99060  0.12710  0.57560  1.0000 0.138782377
H   H108      1.0  0.31720  0.08560  0.41210  1.0000 0.138782377
H   H109      1.0  0.51980  0.18000  0.38550  1.0000 0.1000175035
H   H110      1.0  0.73560  0.16410  0.80510  1.0000 0.1065203364
H   H111      1.0  0.52620  0.12130  0.44550  1.0000 0.138782377
H   H112      1.0  0.05660  0.95440  0.37940  1.0000 0.1535016546
C   C1        1.0  0.20020  0.42790  0.33940  1.0000 -0.1610051662
C   C2        1.0  0.85820  0.55200  0.34890  1.0000 -0.1478137965
C   C3        1.0  0.90940  0.55920  0.30710  1.0000 0.0721812325
C   C4        1.0  0.09010  0.69310  0.37060  1.0000 -0.1610051662
C   C5        1.0  0.23240  0.40590  0.56220  1.0000 0.020654414
C   C6        1.0  0.76210  0.59030  0.36630  1.0000 0.0253008703
C   C7        1.0  0.35290  0.39510  0.58840  1.0000 -0.1478137965
C   C8        1.0  0.28060  0.46400  0.36650  1.0000 0.020654414
C   C9        1.0  0.20910  0.67620  0.39430  1.0000 0.020654414
C   C10       1.0  0.73400  0.51790  0.55570  1.0000 0.6398095239
C   C11       1.0  0.69760  0.48540  0.59680  1.0000 0.0364787714
C   C12       1.0  0.70090  0.44660  0.45030  1.0000 0.6398095239
C   C13       1.0  0.42450  0.47300  0.35580  1.0000 -0.1478137965
C   C14       1.0  0.23780  0.44920  0.52640  1.0000 0.6299724305
C   C15       1.0  0.48080  0.44340  0.32080  1.0000 0.0721812325
C   C16       1.0  0.69770  0.39780  0.41800  1.0000 0.0097078824
C   C17       1.0  0.19440  0.63890  0.43450  1.0000 0.6460874478
C   C18       1.0  0.27990  0.40460  0.05770  1.0000 0.6398095239
C   C19       1.0  0.34370  0.69610  0.38080  1.0000 -0.1478137965
C   C20       1.0  0.35310  0.72980  0.34360  1.0000 0.0481616003
C   C21       1.0  0.81570  0.34220  0.36470  1.0000 0.0754464814
C   C22       1.0  0.10730  0.72780  0.33460  1.0000 0.0721812325
C   C23       1.0  0.47420  0.39710  0.11390  1.0000 -0.1400048988
C   C24       1.0  0.34010  0.35680  0.62250  1.0000 0.0619417259
C   C25       1.0  0.52260  0.38390  0.15480  1.0000 0.0481616003
C   C26       1.0  0.77820  0.64420  0.30100  1.0000 0.0721812325
C   C27       1.0  0.70900  0.40330  0.64410  1.0000 0.0619417259
C   C28       1.0  0.72050  0.63750  0.34160  1.0000 -0.1610051662
C   C29       1.0  0.58420  0.32070  0.38030  1.0000 0.0364787714
C   C30       1.0  0.26790  0.40030  0.30510  1.0000 0.0619417259
C   C31       1.0  0.21550  0.49150  0.40620  1.0000 0.619835938
C   C32       1.0  0.81950  0.38580  0.39380  1.0000 -0.1610051662
C   C33       1.0  0.56890  0.47820  0.66310  1.0000 0.0619417259
C   C34       1.0  0.33280  0.38710  0.10250  1.0000 0.020654414
C   C35       1.0  0.24450  0.36330  0.13350  1.0000 -0.1610051662
C   C36       1.0  0.70560  0.58200  0.41140  1.0000 0.6299724305
C   C37       1.0  0.57640  0.36510  0.41000  1.0000 -0.1400048988
C   C38       1.0  0.75150  0.43200  0.60650  1.0000 -0.1709900867
C   C39       1.0  0.10580  0.33870  0.60770  1.0000 0.0721812325
C   C40       1.0  0.29760  0.35200  0.17450  1.0000 0.0619417259
C   C41       1.0  0.10740  0.37500  0.57190  1.0000 -0.1610051662
C   C42       1.0  0.59970  0.50960  0.62600  1.0000 -0.1610051662
C   C43       1.0  0.29980  0.57210  0.83940  1.0000 -0.1610051662
C   C44       1.0  0.64180  0.44800  0.84890  1.0000 -0.1478137965
C   C45       1.0  0.59060  0.44080  0.80710  1.0000 0.0721812325
C   C46       1.0  0.40990  0.30690  0.87060  1.0000 -0.1610051662
C   C47       1.0  0.26760  0.59410  0.06220  1.0000 0.020654414
C   C48       1.0  0.73790  0.40970  0.86630  1.0000 0.0253008703
C   C49       1.0  0.14710  0.60490  0.08840  1.0000 -0.1478137965
C   C50       1.0  0.21940  0.53600  0.86650  1.0000 0.020654414
C   C51       1.0  0.29090  0.32380  0.89430  1.0000 0.020654414
C   C52       1.0  0.76600  0.48210  0.05570  1.0000 0.6398095239
C   C53       1.0  0.80240  0.51460  0.09680  1.0000 0.0364787714
C   C54       1.0  0.79910  0.55340  0.95030  1.0000 0.6398095239
C   C55       1.0  0.07550  0.52700  0.85580  1.0000 -0.1478137965
C   C56       1.0  0.26220  0.55080  0.02640  1.0000 0.6299724305
C   C57       1.0  0.01920  0.55660  0.82080  1.0000 0.0721812325
C   C58       1.0  0.80230  0.60220  0.91800  1.0000 0.0097078824
C   C59       1.0  0.30560  0.36110  0.93450  1.0000 0.6460874478
C   C60       1.0  0.22010  0.59540  0.55770  1.0000 0.6398095239
C   C61       1.0  0.15630  0.30390  0.88080  1.0000 -0.1478137965
C   C62       1.0  0.14690  0.27020  0.84360  1.0000 0.0481616003
C   C63       1.0  0.68430  0.65780  0.86470  1.0000 0.0754464814
C   C64       1.0  0.39270  0.27220  0.83460  1.0000 0.0721812325
C   C65       1.0  0.02580  0.60290  0.61390  1.0000 -0.1400048988
C   C66       1.0  0.15990  0.64320  0.12250  1.0000 0.0619417259
C   C67       1.0  0.97740  0.61610  0.65480  1.0000 0.0481616003
C   C68       1.0  0.72180  0.35580  0.80100  1.0000 0.0721812325
C   C69       1.0  0.79100  0.59670  0.14410  1.0000 0.0619417259
C   C70       1.0  0.77950  0.36250  0.84160  1.0000 -0.1610051662
C   C71       1.0  0.91580  0.67930  0.88030  1.0000 0.0364787714
C   C72       1.0  0.23210  0.59970  0.80510  1.0000 0.0619417259
C   C73       1.0  0.28450  0.50850  0.90620  1.0000 0.619835938
C   C74       1.0  0.68050  0.61420  0.89380  1.0000 -0.1610051662
C   C75       1.0  0.93110  0.52180  0.16310  1.0000 0.0619417259
C   C76       1.0  0.16720  0.61290  0.60250  1.0000 0.020654414
C   C77       1.0  0.25550  0.63670  0.63350  1.0000 -0.1610051662
C   C78       1.0  0.79440  0.41800  0.91140  1.0000 0.6299724305
C   C79       1.0  0.92360  0.63490  0.91000  1.0000 -0.1400048988
C   C80       1.0  0.74850  0.56800  0.10650  1.0000 -0.1709900867
C   C81       1.0  0.39420  0.66130  0.10770  1.0000 0.0721812325
C   C82       1.0  0.20240  0.64800  0.67450  1.0000 0.0619417259
C   C83       1.0  0.39260  0.62500  0.07190  1.0000 -0.1610051662
C   C84       1.0  0.90030  0.49040  0.12600  1.0000 -0.1610051662
C   C85       1.0  0.79980  0.92790  0.16060  1.0000 -0.1610051662
C   C86       1.0  0.14180  0.05200  0.15110  1.0000 -0.1478137965
C   C87       1.0  0.09060  0.05920  0.19290  1.0000 0.0721812325
C   C88       1.0  0.90990  0.19310  0.12940  1.0000 -0.1610051662
C   C89       1.0  0.76760  0.90590  0.93780  1.0000 0.020654414
C   C90       1.0  0.23790  0.09030  0.13370  1.0000 0.0253008703
C   C91       1.0  0.64710  0.89510  0.91160  1.0000 -0.1478137965
C   C92       1.0  0.71940  0.96400  0.13350  1.0000 0.020654414
C   C93       1.0  0.79090  0.17620  0.10570  1.0000 0.020654414
C   C94       1.0  0.26600  0.01790  0.94430  1.0000 0.6398095239
C   C95       1.0  0.30240  0.98540  0.90320  1.0000 0.0364787714
C   C96       1.0  0.29910  0.94660  0.04970  1.0000 0.6398095239
C   C97       1.0  0.57550  0.97300  0.14420  1.0000 -0.1478137965
C   C98       1.0  0.76220  0.94920  0.97360  1.0000 0.6299724305
C   C99       1.0  0.51920  0.94340  0.17920  1.0000 0.0721812325
C   C100      1.0  0.30230  0.89780  0.08200  1.0000 0.0097078824
C   C101      1.0  0.80560  0.13890  0.06550  1.0000 0.6460874478
C   C102      1.0  0.72010  0.90460  0.44230  1.0000 0.6398095239
C   C103      1.0  0.65630  0.19610  0.11920  1.0000 -0.1478137965
C   C104      1.0  0.64690  0.22980  0.15640  1.0000 0.0481616003
C   C105      1.0  0.18430  0.84220  0.13530  1.0000 0.0754464814
C   C106      1.0  0.89270  0.22780  0.16540  1.0000 0.0721812325
C   C107      1.0  0.52580  0.89710  0.38610  1.0000 -0.1400048988
C   C108      1.0  0.65990  0.85680  0.87750  1.0000 0.0619417259
C   C109      1.0  0.47740  0.88390  0.34520  1.0000 0.0481616003
C   C110      1.0  0.22180  0.14420  0.19900  1.0000 0.0721812325
C   C111      1.0  0.29100  0.90330  0.85590  1.0000 0.0619417259
C   C112      1.0  0.27950  0.13750  0.15840  1.0000 -0.1610051662
C   C113      1.0  0.41580  0.82070  0.11970  1.0000 0.0364787714
C   C114      1.0  0.73210  0.90030  0.19490  1.0000 0.0619417259
C   C115      1.0  0.78450  0.99150  0.09380  1.0000 0.619835938
C   C116      1.0  0.18050  0.88580  0.10620  1.0000 -0.1610051662
C   C117      1.0  0.43110  0.97820  0.83690  1.0000 0.0619417259
C   C118      1.0  0.66720  0.88710  0.39750  1.0000 0.020654414
C   C119      1.0  0.75550  0.86330  0.36650  1.0000 -0.1610051662
C   C120      1.0  0.29440  0.08200  0.08860  1.0000 0.6299724305
C   C121      1.0  0.42360  0.86510  0.09000  1.0000 -0.1400048988
C   C122      1.0  0.24850  0.93200  0.89350  1.0000 -0.1709900867
C   C123      1.0  0.89420  0.83870  0.89230  1.0000 0.0721812325
C   C124      1.0  0.70240  0.85200  0.32550  1.0000 0.0619417259
C   C125      1.0  0.89260  0.87500  0.92810  1.0000 -0.1709900867
C   C126      1.0  0.40030  0.00960  0.87400  1.0000 -0.1610051662
C   C127      1.0  0.70020  0.07210  0.66060  1.0000 -0.1610051662
C   C128      1.0  0.35820  0.94800  0.65110  1.0000 -0.1478137965
C   C129      1.0  0.40940  0.94080  0.69290  1.0000 0.0721812325
C   C130      1.0  0.59010  0.80690  0.62940  1.0000 -0.1610051662
C   C131      1.0  0.73240  0.09410  0.43780  1.0000 0.020654414
C   C132      1.0  0.26210  0.90970  0.63370  1.0000 0.0253008703
C   C133      1.0  0.85290  0.10490  0.41160  1.0000 -0.1478137965
C   C134      1.0  0.78060  0.03600  0.63350  1.0000 0.020654414
C   C135      1.0  0.70910  0.82380  0.60570  1.0000 0.020654414
C   C136      1.0  0.23400  0.98210  0.44430  1.0000 0.6398095239
C   C137      1.0  0.19760  0.01460  0.40320  1.0000 0.0364787714
C   C138      1.0  0.20090  0.05340  0.54970  1.0000 0.6398095239
C   C139      1.0  0.92450  0.02700  0.64420  1.0000 -0.1478137965
C   C140      1.0  0.73780  0.05080  0.47360  1.0000 0.6299724305
C   C141      1.0  0.98080  0.05660  0.67920  1.0000 0.0721812325
C   C142      1.0  0.19770  0.10220  0.58200  1.0000 0.0097078824
C   C143      1.0  0.69440  0.86110  0.56550  1.0000 0.6460874478
C   C144      1.0  0.77990  0.09540  0.94230  1.0000 0.6398095239
C   C145      1.0  0.84370  0.80390  0.61920  1.0000 -0.1478137965
C   C146      1.0  0.85310  0.77020  0.65640  1.0000 0.0481616003
C   C147      1.0  0.31570  0.15780  0.63530  1.0000 0.0754464814
C   C148      1.0  0.60730  0.77220  0.66540  1.0000 0.0721812325
C   C149      1.0  0.97420  0.10290  0.88610  1.0000 -0.1400048988
C   C150      1.0  0.84010  0.14320  0.37750  1.0000 0.0619417259
C   C151      1.0  0.02260  0.11610  0.84520  1.0000 0.0481616003
C   C152      1.0  0.27820  0.85580  0.69900  1.0000 0.0721812325
C   C153      1.0  0.20900  0.09670  0.35590  1.0000 0.0619417259
C   C154      1.0  0.22050  0.86250  0.65840  1.0000 -0.1610051662
C   C155      1.0  0.08420  0.17930  0.61970  1.0000 0.0364787714
C   C156      1.0  0.76790  0.09970  0.69490  1.0000 0.0619417259
C   C157      1.0  0.71550  0.00850  0.59380  1.0000 0.619835938
C   C158      1.0  0.31950  0.11420  0.60620  1.0000 -0.1610051662
C   C159      1.0  0.06890  0.02180  0.33690  1.0000 0.0619417259
C   C160      1.0  0.83280  0.11290  0.89750  1.0000 0.020654414
C   C161      1.0  0.74450  0.13670  0.86650  1.0000 -0.1610051662
C   C162      1.0  0.20560  0.91800  0.58860  1.0000 0.6299724305
C   C163      1.0  0.07640  0.13490  0.59000  1.0000 -0.1400048988
C   C164      1.0  0.25150  0.06800  0.39350  1.0000 -0.1709900867
C   C165      1.0  0.60580  0.16130  0.39230  1.0000 0.0721812325
C   C166      1.0  0.79760  0.14800  0.82550  1.0000 0.0619417259
C   C167      1.0  0.60740  0.12500  0.42810  1.0000 -0.1610051662
C   C168      1.0  0.09970  0.99040  0.37400  1.0000 -0.1709900867
I   I1        1.0  0.79011  0.39397  0.24636  1.0000 -0.451186878
I   I2        1.0  0.48616  0.24466  0.27165  1.0000 -0.4019270143
I   I3        1.0  0.97600  0.22913  0.28330  1.0000 -0.4019270143
I   I4        1.0  0.70989  0.60603  0.74636  1.0000 -0.451186878
I   I5        1.0  0.01384  0.75534  0.77165  1.0000 -0.4019270143
I   I6        1.0  0.52400  0.77087  0.78330  1.0000 -0.4019270143
I   I7        1.0  0.20989  0.89397  0.25364  1.0000 -0.451186878
I   I8        1.0  0.51384  0.74466  0.22835  1.0000 -0.4019270143
I   I9        1.0  0.02400  0.72913  0.21670  1.0000 -0.4019270143
I   I10       1.0  0.29011  0.10603  0.75364  1.0000 -0.451186878
I   I11       1.0  0.98616  0.25534  0.72835  1.0000 -0.4019270143
I   I12       1.0  0.47600  0.27087  0.71670  1.0000 -0.4019270143
N   N1        1.0  0.87220  0.60620  0.28320  1.0000 -0.1709900867
N   N2        1.0  0.70470  0.30830  0.35710  1.0000 -0.1796178968
N   N3        1.0  0.21720  0.32880  0.63290  1.0000 -0.1709900867
N   N4        1.0  0.61890  0.42580  0.67220  1.0000 -0.1709900867
N   N5        1.0  0.40850  0.40690  0.29560  1.0000 -0.1796178968
N   N6        1.0  0.23420  0.74590  0.32020  1.0000 -0.1709900867
N   N7        1.0  0.43320  0.36310  0.18620  1.0000 -0.1796178968
N   N8        1.0  0.62780  0.39380  0.78320  1.0000 -0.1709900867
N   N9        1.0  0.79530  0.69170  0.85710  1.0000 -0.1796178968
N   N10       1.0  0.28280  0.67120  0.13290  1.0000 -0.1709900867
N   N11       1.0  0.88110  0.57420  0.17220  1.0000 -0.1709900867
N   N12       1.0  0.09150  0.59310  0.79560  1.0000 -0.1796178968
N   N13       1.0  0.26580  0.25410  0.82020  1.0000 -0.1709900867
N   N14       1.0  0.06680  0.63690  0.68620  1.0000 -0.1796178968
N   N15       1.0  0.12780  0.10620  0.21680  1.0000 -0.1709900867
N   N16       1.0  0.29530  0.80830  0.14290  1.0000 -0.1796178968
N   N17       1.0  0.78280  0.82880  0.86710  1.0000 -0.1709900867
N   N18       1.0  0.38110  0.92580  0.82780  1.0000 -0.1709900867
N   N19       1.0  0.59150  0.90690  0.20440  1.0000 -0.1796178968
N   N20       1.0  0.76580  0.24590  0.17980  1.0000 -0.1709900867
N   N21       1.0  0.56680  0.86310  0.31380  1.0000 -0.1796178968
N   N22       1.0  0.37220  0.89380  0.71680  1.0000 -0.1709900867
N   N23       1.0  0.20470  0.19170  0.64290  1.0000 -0.1796178968
N   N24       1.0  0.71720  0.17120  0.36710  1.0000 -0.1709900867
N   N25       1.0  0.11890  0.07420  0.32780  1.0000 -0.1709900867
N   N26       1.0  0.90850  0.09310  0.70440  1.0000 -0.1796178968
N   N27       1.0  0.73420  0.75410  0.67980  1.0000 -0.1709900867
N   N28       1.0  0.93320  0.13690  0.81380  1.0000 -0.1796178968
O   O1        1.0  0.82210  0.45720  0.46760  1.0000 -0.6795698852
O   O2        1.0  0.86480  0.51880  0.54499  1.0000 -0.6576639961
O   O3        1.0  0.35390  0.47710  0.52200  1.0000 -0.6576639961
O   O4        1.0  0.58360  0.47150  0.45870  1.0000 -0.6494273146
O   O5        1.0  0.07620  0.61490  0.44080  1.0000 -0.6494273146
O   O6        1.0  0.12850  0.45450  0.50430  1.0000 -0.6393727413
O   O7        1.0  0.30710  0.63390  0.45751  1.0000 -0.6795698852
O   O8        1.0  0.14710  0.40150  0.05039  1.0000 -0.6494273146
O   O9        1.0  0.37330  0.42000  0.03086  1.0000 -0.6966966739
O   O10       1.0  0.08000  0.48610  0.41206  1.0000 -0.6795698852
O   O11       1.0  0.79340  0.57120  0.44112  1.0000 -0.6898489943
O   O12       1.0  0.29510  0.51790  0.43203  1.0000 -0.6726916781
O   O13       1.0  0.63480  0.54120  0.53686  1.0000 -0.6393727413
O   O14       1.0  0.57080  0.58760  0.41642  1.0000 -0.6576639961
O   O15       1.0  0.67790  0.54280  0.96760  1.0000 -0.6795698852
O   O16       1.0  0.63520  0.48120  0.04499  1.0000 -0.6576639961
O   O17       1.0  0.14610  0.52290  0.02200  1.0000 -0.6576639961
O   O18       1.0  0.91640  0.52850  0.95870  1.0000 -0.6494273146
O   O19       1.0  0.42380  0.38510  0.94080  1.0000 -0.6494273146
O   O20       1.0  0.37150  0.54550  0.00430  1.0000 -0.6393727413
O   O21       1.0  0.19290  0.36610  0.95751  1.0000 -0.6795698852
O   O22       1.0  0.35290  0.59850  0.55039  1.0000 -0.6494273146
O   O23       1.0  0.12670  0.58000  0.53086  1.0000 -0.6966966739
O   O24       1.0  0.42000  0.51390  0.91206  1.0000 -0.6795698852
O   O25       1.0  0.70660  0.42880  0.94112  1.0000 -0.6898489943
O   O26       1.0  0.20490  0.48210  0.93203  1.0000 -0.6726916781
O   O27       1.0  0.86520  0.45880  0.03686  1.0000 -0.6393727413
O   O28       1.0  0.92920  0.41240  0.91642  1.0000 -0.6576639961
O   O29       1.0  0.17790  0.95720  0.03240  1.0000 -0.6795698852
O   O30       1.0  0.13520  0.01880  0.95501  1.0000 -0.6576639961
O   O31       1.0  0.64610  0.97710  0.97800  1.0000 -0.6576639961
O   O32       1.0  0.41640  0.97150  0.04130  1.0000 -0.6494273146
O   O33       1.0  0.92380  0.11490  0.05920  1.0000 -0.6494273146
O   O34       1.0  0.87150  0.95450  0.99570  1.0000 -0.6393727413
O   O35       1.0  0.69290  0.13390  0.04249  1.0000 -0.6795698852
O   O36       1.0  0.85290  0.90150  0.44961  1.0000 -0.6494273146
O   O37       1.0  0.62670  0.92000  0.46914  1.0000 -0.6966966739
O   O38       1.0  0.92000  0.98610  0.08794  1.0000 -0.6795698852
O   O39       1.0  0.20660  0.07120  0.05888  1.0000 -0.6898489943
O   O40       1.0  0.70490  0.01790  0.06797  1.0000 -0.6726916781
O   O41       1.0  0.36520  0.04120  0.96314  1.0000 -0.6393727413
O   O42       1.0  0.42920  0.08760  0.08358  1.0000 -0.6576639961
O   O43       1.0  0.32210  0.04280  0.53240  1.0000 -0.6795698852
O   O44       1.0  0.36480  0.98120  0.45501  1.0000 -0.6576639961
O   O45       1.0  0.85390  0.02290  0.47800  1.0000 -0.6576639961
O   O46       1.0  0.08360  0.02850  0.54130  1.0000 -0.6494273146
O   O47       1.0  0.57620  0.88510  0.55920  1.0000 -0.6494273146
O   O48       1.0  0.62850  0.04550  0.49570  1.0000 -0.6393727413
O   O49       1.0  0.80710  0.86610  0.54249  1.0000 -0.6795698852
O   O50       1.0  0.64710  0.09850  0.94961  1.0000 -0.6494273146
O   O51       1.0  0.87330  0.08000  0.96914  1.0000 -0.6966966739
O   O52       1.0  0.58000  0.01390  0.58794  1.0000 -0.6795698852
O   O53       1.0  0.29340  0.92880  0.55888  1.0000 -0.6898489943
O   O54       1.0  0.79510  0.98210  0.56797  1.0000 -0.6726916781
O   O55       1.0  0.13480  0.95880  0.46314  1.0000 -0.6393727413
O   O56       1.0  0.07080  0.91240  0.58358  1.0000 -0.6576639961
