# DDEC6 charges by PACMAN v1.1 (https://github.com/mtap-research/PACMAN-charge/)
data_2017[Cu][ths]3[ASR]2
_chemical_formula_sum              "Cu8 C24 O48"
_cell_length_a       8.6527
_cell_length_b       34.0441
_cell_length_c       8.7259
_cell_angle_alpha    90
_cell_angle_beta     107.669
_cell_angle_gamma    90

_symmetry_space_group_name_H-M    "P 1"
_symmetry_Int_Tables_number       1

loop_
  _symmetry_equiv_pos_as_xyz
  'x, y, z'

loop_
  _atom_site_type_symbol
  _atom_site_label
  _atom_site_symmetry_multiplicity
  _atom_site_fract_x
  _atom_site_fract_y
  _atom_site_fract_z
  _atom_site_occupancy
  _atom_site_charge
Cu  Cu1       1.0  0.51624  0.79647  0.25001  1.0000 0.9183659338
Cu  Cu2       1.0  0.98376  0.29647  0.74999  1.0000 0.9088715198
Cu  Cu3       1.0  0.48376  0.20353  0.74999  1.0000 0.9183659338
Cu  Cu4       1.0  0.01624  0.70353  0.25001  1.0000 0.9088715198
Cu  Cu5       1.0  0.50116  0.95434  0.26096  1.0000 0.9088715198
Cu  Cu6       1.0  0.99884  0.45434  0.73904  1.0000 0.9088715198
Cu  Cu7       1.0  0.49884  0.04566  0.73904  1.0000 0.9088715198
Cu  Cu8       1.0  0.00116  0.54566  0.26096  1.0000 0.9088715198
C   C1        1.0  0.43610  0.87664  0.18070  1.0000 0.566563227
C   C2        1.0  0.06390  0.37664  0.81930  1.0000 0.566563227
C   C3        1.0  0.56390  0.12336  0.81930  1.0000 0.566563227
C   C4        1.0  0.93610  0.62336  0.18070  1.0000 0.566563227
C   C5        1.0  0.59180  0.87404  0.32940  1.0000 0.5610155545
C   C6        1.0  0.90820  0.37404  0.67060  1.0000 0.5610155545
C   C7        1.0  0.40820  0.12596  0.67060  1.0000 0.5610155545
C   C8        1.0  0.09180  0.62596  0.32940  1.0000 0.5610155545
C   C9        1.0  0.27710  0.74129  0.18670  1.0000 0.5497696705
C   C10       1.0  0.22290  0.24129  0.81330  1.0000 0.5497696705
C   C11       1.0  0.72290  0.25871  0.81330  1.0000 0.5497696705
C   C12       1.0  0.77710  0.75871  0.18670  1.0000 0.5497696705
C   C13       1.0  0.26390  0.76360  0.33700  1.0000 0.5311399014
C   C14       1.0  0.23610  0.26360  0.66300  1.0000 0.5311399014
C   C15       1.0  0.73610  0.23640  0.66300  1.0000 0.5311399014
C   C16       1.0  0.76390  0.73640  0.33700  1.0000 0.5311399014
C   C17       1.0  0.57860  0.98884  0.99940  1.0000 0.5497696705
C   C18       1.0  0.92140  0.48884  0.00060  1.0000 0.5497696705
C   C19       1.0  0.42140  0.01116  0.00060  1.0000 0.5497696705
C   C20       1.0  0.07860  0.51116  0.99940  1.0000 0.5497696705
C   C21       1.0  0.43000  0.98801  0.51460  1.0000 0.5311399014
C   C22       1.0  0.07000  0.48801  0.48540  1.0000 0.5311399014
C   C23       1.0  0.57000  0.01199  0.48540  1.0000 0.5311399014
C   C24       1.0  0.93000  0.51199  0.51460  1.0000 0.5387570344
O   O1        1.0  0.38716  0.84605  0.10469  1.0000 -0.4163847037
O   O2        1.0  0.11284  0.34605  0.89531  1.0000 -0.4163847037
O   O3        1.0  0.61284  0.15395  0.89531  1.0000 -0.4163847037
O   O4        1.0  0.88716  0.65395  0.10469  1.0000 -0.4163847037
O   O5        1.0  0.37149  0.90994  0.14891  1.0000 -0.4340732016
O   O6        1.0  0.12851  0.40994  0.85109  1.0000 -0.4340732016
O   O7        1.0  0.62851  0.09006  0.85109  1.0000 -0.4340732016
O   O8        1.0  0.87149  0.59006  0.14891  1.0000 -0.4340732016
O   O9        1.0  0.63840  0.83994  0.37815  1.0000 -0.4492450312
O   O10       1.0  0.86160  0.33994  0.62185  1.0000 -0.4492450312
O   O11       1.0  0.36160  0.16006  0.62185  1.0000 -0.4492450312
O   O12       1.0  0.13840  0.66006  0.37815  1.0000 -0.4492450312
O   O13       1.0  0.65793  0.90501  0.38722  1.0000 -0.4119182147
O   O14       1.0  0.84207  0.40501  0.61278  1.0000 -0.4119182147
O   O15       1.0  0.34207  0.09499  0.61278  1.0000 -0.4119182147
O   O16       1.0  0.15793  0.59499  0.38722  1.0000 -0.4119182147
O   O17       1.0  0.35429  0.79373  0.37563  1.0000 -0.4492450312
O   O18       1.0  0.14571  0.29373  0.62437  1.0000 -0.4492450312
O   O19       1.0  0.64571  0.20627  0.62437  1.0000 -0.4492450312
O   O20       1.0  0.85429  0.70627  0.37563  1.0000 -0.4492450312
O   O21       1.0  0.17112  0.75145  0.40883  1.0000 -0.3807566322
O   O22       1.0  0.32888  0.25145  0.59117  1.0000 -0.3807566322
O   O23       1.0  0.82888  0.24855  0.59117  1.0000 -0.3807566322
O   O24       1.0  0.67112  0.74855  0.40883  1.0000 -0.3807566322
O   O25       1.0  0.38065  0.75393  0.12395  1.0000 -0.4492450312
O   O26       1.0  0.11935  0.25393  0.87605  1.0000 -0.4492450312
O   O27       1.0  0.61935  0.24607  0.87605  1.0000 -0.4492450312
O   O28       1.0  0.88065  0.74607  0.12395  1.0000 -0.4492450312
O   O29       1.0  0.18662  0.71247  0.13856  1.0000 -0.4119182147
O   O30       1.0  0.31338  0.21247  0.86144  1.0000 -0.4119182147
O   O31       1.0  0.81338  0.28753  0.86144  1.0000 -0.4119182147
O   O32       1.0  0.68662  0.78753  0.13856  1.0000 -0.4119182147
O   O33       1.0  0.61661  0.95941  0.09269  1.0000 -0.4492450312
O   O34       1.0  0.88339  0.45941  0.90731  1.0000 -0.4492450312
O   O35       1.0  0.38339  0.04059  0.90731  1.0000 -0.4492450312
O   O36       1.0  0.11661  0.54059  0.09269  1.0000 -0.4492450312
O   O37       1.0  0.65504  0.00052  0.91045  1.0000 -0.3865744092
O   O38       1.0  0.84496  0.50052  0.08955  1.0000 -0.3807566322
O   O39       1.0  0.34496  0.99948  0.08955  1.0000 -0.3865744092
O   O40       1.0  0.15504  0.49948  0.91045  1.0000 -0.3865744092
O   O41       1.0  0.38516  0.95816  0.42937  1.0000 -0.4340732016
O   O42       1.0  0.11484  0.45816  0.57063  1.0000 -0.4340732016
O   O43       1.0  0.61484  0.04184  0.57063  1.0000 -0.4340732016
O   O44       1.0  0.88516  0.54184  0.42937  1.0000 -0.440869198
O   O45       1.0  0.37227  0.00042  0.62048  1.0000 -0.440869198
O   O46       1.0  0.12773  0.50042  0.37952  1.0000 -0.440869198
O   O47       1.0  0.62773  0.99958  0.37952  1.0000 -0.440869198
O   O48       1.0  0.87227  0.49958  0.62048  1.0000 -0.440869198
