# DDEC6 charges by PACMAN v1.1 (https://github.com/mtap-research/PACMAN-charge/)
data_2017[Zn][ths]3[ASR]3
_chemical_formula_sum              "Zn12 H96 C144 I24 N48"
_cell_length_a       19.2878
_cell_length_b       19.2878
_cell_length_c       30.854
_cell_angle_alpha    79.238
_cell_angle_beta     100.762
_cell_angle_gamma    134.597

_symmetry_space_group_name_H-M    "P 1"
_symmetry_Int_Tables_number       1

loop_
  _symmetry_equiv_pos_as_xyz
  'x, y, z'

loop_
  _atom_site_type_symbol
  _atom_site_label
  _atom_site_symmetry_multiplicity
  _atom_site_fract_x
  _atom_site_fract_y
  _atom_site_fract_z
  _atom_site_occupancy
  _atom_site_charge
Zn  Zn1       1.0  0.43632  0.27790  0.85268  1.0000 0.4602062715
Zn  Zn2       1.0  0.71410  0.95496  0.18245  1.0000 0.4602062715
Zn  Zn3       1.0  0.51518  0.75676  0.68242  1.0000 0.467575827
Zn  Zn4       1.0  0.18731  0.02869  0.35183  1.0000 0.467575827
Zn  Zn5       1.0  0.04901  0.70217  0.52828  1.0000 0.4475106088
Zn  Zn6       1.0  0.76772  0.41528  0.03282  1.0000 0.4475106088
Zn  Zn7       1.0  0.27790  0.43632  0.14732  1.0000 0.4602062715
Zn  Zn8       1.0  0.95496  0.71410  0.81755  1.0000 0.4602062715
Zn  Zn9       1.0  0.75676  0.51518  0.31758  1.0000 0.467575827
Zn  Zn10      1.0  0.02869  0.18731  0.64817  1.0000 0.467575827
Zn  Zn11      1.0  0.70217  0.04901  0.47172  1.0000 0.4475106088
Zn  Zn12      1.0  0.41528  0.76772  0.96718  1.0000 0.4475106088
H   H1        1.0  0.50147  0.81615  0.17274  1.0000 0.1085773731
H   H2        1.0  0.37383  0.78415  0.12902  1.0000 0.1395723338
H   H3        1.0  0.57462  0.03364  0.05382  1.0000 0.1313919727
H   H4        1.0  0.69172  0.04680  0.09655  1.0000 0.1085773731
H   H5        1.0  0.54218  0.23670  0.91800  1.0000 0.1085773731
H   H6        1.0  0.51062  0.12044  0.97365  1.0000 0.1313919727
H   H7        1.0  0.22116  0.95382  0.93883  1.0000 0.1313919727
H   H8        1.0  0.26861  0.07883  0.88536  1.0000 0.1005893458
H   H9        1.0  0.96346  0.48466  0.07859  1.0000 0.1085773731
H   H10       1.0  0.12892  0.63102  0.08479  1.0000 0.1395723338
H   H11       1.0  0.06519  0.76015  0.99231  1.0000 0.1395723338
H   H12       1.0  0.90242  0.62426  0.99656  1.0000 0.1005893458
H   H13       1.0  0.65550  0.81436  0.12341  1.0000 0.1085773731
H   H14       1.0  0.62025  0.67305  0.12590  1.0000 0.1395723338
H   H15       1.0  0.59231  0.63411  0.25564  1.0000 0.1395723338
H   H16       1.0  0.64266  0.78560  0.25070  1.0000 0.1085773731
H   H17       1.0  0.27494  0.07016  0.27029  1.0000 0.1085773731
H   H18       1.0  0.38950  0.19772  0.22640  1.0000 0.1395723338
H   H19       1.0  0.39145  0.37399  0.27936  1.0000 0.1395723338
H   H20       1.0  0.27576  0.23624  0.32733  1.0000 0.1085773731
H   H21       1.0  0.73235  0.53923  0.04484  1.0000 0.1085773731
H   H22       1.0  0.65896  0.55060  0.08863  1.0000 0.1395723338
H   H23       1.0  0.59464  0.32002  0.16718  1.0000 0.1313919727
H   H24       1.0  0.67041  0.31523  0.11988  1.0000 0.1085773731
H   H25       1.0  0.39624  0.20636  0.38057  1.0000 0.1005893458
H   H26       1.0  0.51474  0.24364  0.43552  1.0000 0.1313919727
H   H27       1.0  0.34704  0.95906  0.47566  1.0000 0.1313919727
H   H28       1.0  0.22923  0.92365  0.42005  1.0000 0.1085773731
H   H29       1.0  0.65153  0.97447  0.67426  1.0000 0.1085773731
H   H30       1.0  0.67898  0.09814  0.62814  1.0000 0.1313919727
H   H31       1.0  0.44536  0.90154  0.54822  1.0000 0.1238003759
H   H32       1.0  0.41982  0.77684  0.59880  1.0000 0.1005893458
H   H33       1.0  0.98121  0.50925  0.57403  1.0000 0.1085773731
H   H34       1.0  0.84492  0.34106  0.57376  1.0000 0.1395723338
H   H35       1.0  0.69676  0.40390  0.49754  1.0000 0.1395723338
H   H36       1.0  0.84234  0.56970  0.49704  1.0000 0.1005893458
H   H37       1.0  0.93182  0.74086  0.54032  1.0000 0.1005893458
H   H38       1.0  0.91227  0.80175  0.58947  1.0000 0.1395723338
H   H39       1.0  0.14738  0.78934  0.61894  1.0000 0.1085773731
H   H40       1.0  0.22767  0.19145  0.82413  1.0000 0.1085773731
H   H41       1.0  0.09610  0.08078  0.77828  1.0000 0.1395723338
H   H42       1.0  0.25969  0.06089  0.72506  1.0000 0.1395723338
H   H43       1.0  0.39021  0.17589  0.77630  1.0000 0.1005893458
H   H44       1.0  0.64439  0.79803  0.62363  1.0000 0.1085773731
H   H45       1.0  0.79712  0.85090  0.62297  1.0000 0.1313919727
H   H46       1.0  0.83541  0.87399  0.75555  1.0000 0.1395723338
H   H47       1.0  0.68712  0.82694  0.75223  1.0000 0.1085773731
H   H48       1.0  0.14446  0.86938  0.66523  1.0000 0.1313919727
H   H49       1.0  0.81615  0.50147  0.82726  1.0000 0.1085773731
H   H50       1.0  0.78415  0.37383  0.87098  1.0000 0.1395723338
H   H51       1.0  0.03364  0.57462  0.94618  1.0000 0.1313919727
H   H52       1.0  0.04680  0.69172  0.90345  1.0000 0.1085773731
H   H53       1.0  0.23670  0.54218  0.08200  1.0000 0.1085773731
H   H54       1.0  0.12044  0.51062  0.02635  1.0000 0.1313919727
H   H55       1.0  0.95382  0.22116  0.06117  1.0000 0.1313919727
H   H56       1.0  0.07883  0.26861  0.11464  1.0000 0.1005893458
H   H57       1.0  0.48466  0.96346  0.92141  1.0000 0.1085773731
H   H58       1.0  0.63102  0.12892  0.91521  1.0000 0.1395723338
H   H59       1.0  0.76015  0.06519  0.00769  1.0000 0.1395723338
H   H60       1.0  0.62426  0.90242  0.00344  1.0000 0.1005893458
H   H61       1.0  0.81436  0.65550  0.87659  1.0000 0.1085773731
H   H62       1.0  0.67305  0.62025  0.87410  1.0000 0.1395723338
H   H63       1.0  0.63411  0.59231  0.74436  1.0000 0.1395723338
H   H64       1.0  0.78560  0.64266  0.74930  1.0000 0.1085773731
H   H65       1.0  0.07016  0.27494  0.72971  1.0000 0.1085773731
H   H66       1.0  0.19772  0.38950  0.77360  1.0000 0.1395723338
H   H67       1.0  0.37399  0.39145  0.72064  1.0000 0.1395723338
H   H68       1.0  0.23624  0.27576  0.67267  1.0000 0.1085773731
H   H69       1.0  0.53923  0.73235  0.95516  1.0000 0.1085773731
H   H70       1.0  0.55060  0.65896  0.91137  1.0000 0.1395723338
H   H71       1.0  0.32002  0.59464  0.83282  1.0000 0.1313919727
H   H72       1.0  0.31523  0.67041  0.88012  1.0000 0.1085773731
H   H73       1.0  0.20636  0.39624  0.61943  1.0000 0.1005893458
H   H74       1.0  0.24364  0.51474  0.56448  1.0000 0.1313919727
H   H75       1.0  0.95906  0.34704  0.52434  1.0000 0.1313919727
H   H76       1.0  0.92365  0.22923  0.57995  1.0000 0.1085773731
H   H77       1.0  0.97447  0.65153  0.32574  1.0000 0.1085773731
H   H78       1.0  0.09814  0.67898  0.37186  1.0000 0.1313919727
H   H79       1.0  0.90154  0.44536  0.45178  1.0000 0.1238003759
H   H80       1.0  0.77684  0.41982  0.40120  1.0000 0.1005893458
H   H81       1.0  0.50925  0.98121  0.42597  1.0000 0.1085773731
H   H82       1.0  0.34106  0.84492  0.42624  1.0000 0.1395723338
H   H83       1.0  0.40390  0.69676  0.50246  1.0000 0.1395723338
H   H84       1.0  0.56970  0.84234  0.50296  1.0000 0.1005893458
H   H85       1.0  0.74086  0.93182  0.45968  1.0000 0.1005893458
H   H86       1.0  0.80175  0.91227  0.41053  1.0000 0.1395723338
H   H87       1.0  0.78934  0.14738  0.38106  1.0000 0.1085773731
H   H88       1.0  0.19145  0.22767  0.17587  1.0000 0.1085773731
H   H89       1.0  0.08078  0.09610  0.22172  1.0000 0.1395723338
H   H90       1.0  0.06089  0.25969  0.27494  1.0000 0.1395723338
H   H91       1.0  0.17589  0.39021  0.22370  1.0000 0.1005893458
H   H92       1.0  0.79803  0.64439  0.37637  1.0000 0.1085773731
H   H93       1.0  0.85090  0.79712  0.37703  1.0000 0.1313919727
H   H94       1.0  0.87399  0.83541  0.24445  1.0000 0.1395723338
H   H95       1.0  0.82694  0.68712  0.24777  1.0000 0.1085773731
H   H96       1.0  0.86938  0.14446  0.33477  1.0000 0.1313919727
C   C1        1.0  0.51560  0.86060  0.14790  1.0000 0.1005893458
C   C2        1.0  0.43890  0.84050  0.12200  1.0000 -0.169573353
C   C3        1.0  0.45700  0.90420  0.08440  1.0000 0.0692590786
C   C4        1.0  0.55690  0.98570  0.07750  1.0000 -0.1475921439
C   C5        1.0  0.62580  0.99580  0.10390  1.0000 0.0536015209
C   C6        1.0  0.47620  0.17800  0.92240  1.0000 0.0899194836
C   C7        1.0  0.45810  0.10910  0.95580  1.0000 -0.1592803311
C   C8        1.0  0.35970  0.02110  0.96290  1.0000 0.0593118454
C   C9        1.0  0.28840  0.01060  0.93590  1.0000 -0.1406488024
C   C10       1.0  0.31850  0.08650  0.90390  1.0000 0.0899194836
C   C11       1.0  0.98460  0.54320  0.06270  1.0000 0.0593118454
C   C12       1.0  0.08300  0.62820  0.06500  1.0000 -0.1406488024
C   C13       1.0  0.11230  0.70930  0.03750  1.0000 0.0536015209
C   C14       1.0  0.04480  0.70520  0.01170  1.0000 -0.1406488024
C   C15       1.0  0.94850  0.62350  0.01330  1.0000 0.0899194836
C   C16       1.0  0.21610  0.79650  0.03390  1.0000 0.3624211801
C   C17       1.0  0.37770  0.88950  0.05440  1.0000 0.3710388829
C   C18       1.0  0.33350  0.94390  0.99780  1.0000 0.3710388829
C   C19       1.0  0.64840  0.77980  0.15130  1.0000 0.0794183982
C   C20       1.0  0.62350  0.69410  0.15230  1.0000 -0.1314664263
C   C21       1.0  0.60330  0.63910  0.19060  1.0000 0.0593118454
C   C22       1.0  0.60900  0.67240  0.22810  1.0000 -0.1592803311
C   C23       1.0  0.63920  0.76260  0.22500  1.0000 0.0899194836
C   C24       1.0  0.30130  0.13310  0.27350  1.0000 0.0593118454
C   C25       1.0  0.36710  0.20770  0.24720  1.0000 -0.1592803311
C   C26       1.0  0.40600  0.30320  0.24860  1.0000 0.0692590786
C   C27       1.0  0.37080  0.31300  0.27770  1.0000 -0.1406488024
C   C28       1.0  0.30100  0.22980  0.30640  1.0000 0.0794183982
C   C29       1.0  0.70380  0.49440  0.07020  1.0000 0.0445175426
C   C30       1.0  0.66210  0.50270  0.09600  1.0000 -0.1314664263
C   C31       1.0  0.62330  0.43950  0.13410  1.0000 0.0692590786
C   C32       1.0  0.62400  0.36660  0.14240  1.0000 -0.1406488024
C   C33       1.0  0.66840  0.36400  0.11360  1.0000 0.1005893458
C   C34       1.0  0.57650  0.44670  0.16340  1.0000 0.379376681
C   C35       1.0  0.57380  0.54460  0.19230  1.0000 0.379376681
C   C36       1.0  0.48200  0.38780  0.21870  1.0000 0.379376681
C   C37       1.0  0.38560  0.15580  0.40020  1.0000 0.0794183982
C   C38       1.0  0.45550  0.17730  0.43250  1.0000 -0.1314664263
C   C39       1.0  0.44230  0.10430  0.46120  1.0000 0.0593118454
C   C40       1.0  0.35800  0.01020  0.45660  1.0000 -0.1406488024
C   C41       1.0  0.28810  0.98990  0.42370  1.0000 0.0794183982
C   C42       1.0  0.60960  0.95920  0.64810  1.0000 0.0692590786
C   C43       1.0  0.62550  0.03230  0.62120  1.0000 -0.1314664263
C   C44       1.0  0.56440  0.01120  0.58390  1.0000 0.0536015209
C   C45       1.0  0.48820  0.91760  0.57410  1.0000 -0.1475921439
C   C46       1.0  0.47480  0.84340  0.60430  1.0000 0.1085773731
C   C47       1.0  0.92320  0.48720  0.55700  1.0000 0.1005893458
C   C48       1.0  0.84090  0.38550  0.55800  1.0000 -0.169573353
C   C49       1.0  0.75370  0.35190  0.53550  1.0000 0.0692590786
C   C50       1.0  0.75490  0.42290  0.51280  1.0000 -0.1475921439
C   C51       1.0  0.84210  0.52230  0.51290  1.0000 0.0593118454
C   C52       1.0  0.66260  0.24620  0.53350  1.0000 0.3710388829
C   C53       1.0  0.51890  0.13190  0.49690  1.0000 0.379376681
C   C54       1.0  0.57790  0.08810  0.55410  1.0000 0.3710388829
C   C55       1.0  0.97400  0.76480  0.56670  1.0000 0.1005893458
C   C56       1.0  0.96380  0.80380  0.59520  1.0000 -0.1475921439
C   C57       1.0  0.02860  0.84600  0.63210  1.0000 0.0692590786
C   C58       1.0  0.10190  0.79570  0.61220  1.0000 0.0593118454
C   C59       1.0  0.23420  0.16440  0.80430  1.0000 0.03410026
C   C60       1.0  0.15640  0.09960  0.77740  1.0000 -0.1406488024
C   C61       1.0  0.16650  0.05930  0.74730  1.0000 0.0692590786
C   C62       1.0  0.25120  0.08580  0.74520  1.0000 -0.1406488024
C   C63       1.0  0.32890  0.15570  0.77640  1.0000 0.0899194836
C   C64       1.0  0.68500  0.81560  0.65040  1.0000 0.0899194836
C   C65       1.0  0.77500  0.84540  0.64960  1.0000 -0.1314664263
C   C66       1.0  0.83160  0.86680  0.69080  1.0000 0.0536015209
C   C67       1.0  0.79770  0.85950  0.72800  1.0000 -0.1475921439
C   C68       1.0  0.70940  0.83160  0.72590  1.0000 0.0794183982
C   C69       1.0  0.92530  0.89610  0.69110  1.0000 0.3624211801
C   C70       1.0  0.01860  0.88780  0.66300  1.0000 0.3624211801
C   C71       1.0  0.08100  0.98380  0.71750  1.0000 0.3710388829
C   C72       1.0  0.09850  0.84110  0.64020  1.0000 -0.1217333339
C   C73       1.0  0.86060  0.51560  0.85210  1.0000 0.1005893458
C   C74       1.0  0.84050  0.43890  0.87800  1.0000 -0.169573353
C   C75       1.0  0.90420  0.45700  0.91560  1.0000 0.0692590786
C   C76       1.0  0.98570  0.55690  0.92250  1.0000 -0.1475921439
C   C77       1.0  0.99580  0.62580  0.89610  1.0000 0.0536015209
C   C78       1.0  0.17800  0.47620  0.07760  1.0000 0.0899194836
C   C79       1.0  0.10910  0.45810  0.04420  1.0000 -0.1592803311
C   C80       1.0  0.02110  0.35970  0.03710  1.0000 0.0593118454
C   C81       1.0  0.01060  0.28840  0.06410  1.0000 -0.1406488024
C   C82       1.0  0.08650  0.31850  0.09610  1.0000 0.0899194836
C   C83       1.0  0.54320  0.98460  0.93730  1.0000 0.0593118454
C   C84       1.0  0.62820  0.08300  0.93500  1.0000 -0.1406488024
C   C85       1.0  0.70930  0.11230  0.96250  1.0000 0.0536015209
C   C86       1.0  0.70520  0.04480  0.98830  1.0000 -0.1406488024
C   C87       1.0  0.62350  0.94850  0.98670  1.0000 0.0899194836
C   C88       1.0  0.79650  0.21610  0.96610  1.0000 0.3624211801
C   C89       1.0  0.88950  0.37770  0.94560  1.0000 0.3710388829
C   C90       1.0  0.94390  0.33350  0.00220  1.0000 0.3710388829
C   C91       1.0  0.77980  0.64840  0.84870  1.0000 0.0794183982
C   C92       1.0  0.69410  0.62350  0.84770  1.0000 -0.1314664263
C   C93       1.0  0.63910  0.60330  0.80940  1.0000 0.0593118454
C   C94       1.0  0.67240  0.60900  0.77190  1.0000 -0.1592803311
C   C95       1.0  0.76260  0.63920  0.77500  1.0000 0.0899194836
C   C96       1.0  0.13310  0.30130  0.72650  1.0000 0.0593118454
C   C97       1.0  0.20770  0.36710  0.75280  1.0000 -0.1592803311
C   C98       1.0  0.30320  0.40600  0.75140  1.0000 0.0692590786
C   C99       1.0  0.31300  0.37080  0.72230  1.0000 -0.1406488024
C   C100      1.0  0.22980  0.30100  0.69360  1.0000 0.0794183982
C   C101      1.0  0.49440  0.70380  0.92980  1.0000 0.0445175426
C   C102      1.0  0.50270  0.66210  0.90400  1.0000 -0.1314664263
C   C103      1.0  0.43950  0.62330  0.86590  1.0000 0.0692590786
C   C104      1.0  0.36660  0.62400  0.85760  1.0000 -0.1406488024
C   C105      1.0  0.36400  0.66840  0.88640  1.0000 0.0899194836
C   C106      1.0  0.44670  0.57650  0.83660  1.0000 0.379376681
C   C107      1.0  0.54460  0.57380  0.80770  1.0000 0.3710388829
C   C108      1.0  0.38780  0.48200  0.78130  1.0000 0.379376681
C   C109      1.0  0.15580  0.38560  0.59980  1.0000 0.0794183982
C   C110      1.0  0.17730  0.45550  0.56750  1.0000 -0.1314664263
C   C111      1.0  0.10430  0.44230  0.53880  1.0000 0.0593118454
C   C112      1.0  0.01020  0.35800  0.54340  1.0000 -0.1406488024
C   C113      1.0  0.98990  0.28810  0.57630  1.0000 0.0794183982
C   C114      1.0  0.95920  0.60960  0.35190  1.0000 0.0692590786
C   C115      1.0  0.03230  0.62550  0.37880  1.0000 -0.1217333339
C   C116      1.0  0.01120  0.56440  0.41610  1.0000 0.0536015209
C   C117      1.0  0.91760  0.48820  0.42590  1.0000 -0.1475921439
C   C118      1.0  0.84340  0.47480  0.39570  1.0000 0.1085773731
C   C119      1.0  0.48720  0.92320  0.44300  1.0000 0.1005893458
C   C120      1.0  0.38550  0.84090  0.44200  1.0000 -0.169573353
C   C121      1.0  0.35190  0.75370  0.46450  1.0000 0.0692590786
C   C122      1.0  0.42290  0.75490  0.48720  1.0000 -0.1475921439
C   C123      1.0  0.52230  0.84210  0.48710  1.0000 0.0593118454
C   C124      1.0  0.24620  0.66260  0.46650  1.0000 0.3710388829
C   C125      1.0  0.13190  0.51890  0.50310  1.0000 0.3710388829
C   C126      1.0  0.08810  0.57790  0.44590  1.0000 0.3710388829
C   C127      1.0  0.76480  0.97400  0.43330  1.0000 0.1005893458
C   C128      1.0  0.80380  0.96380  0.40480  1.0000 -0.1475921439
C   C129      1.0  0.84600  0.02860  0.36790  1.0000 0.0692590786
C   C130      1.0  0.79570  0.10190  0.38780  1.0000 0.0593118454
C   C131      1.0  0.16440  0.23420  0.19570  1.0000 0.03410026
C   C132      1.0  0.09960  0.15640  0.22260  1.0000 -0.1406488024
C   C133      1.0  0.05930  0.16650  0.25270  1.0000 0.0692590786
C   C134      1.0  0.08580  0.25120  0.25480  1.0000 -0.1406488024
C   C135      1.0  0.15570  0.32890  0.22360  1.0000 0.0899194836
C   C136      1.0  0.81560  0.68500  0.34960  1.0000 0.0899194836
C   C137      1.0  0.84540  0.77500  0.35040  1.0000 -0.1314664263
C   C138      1.0  0.86680  0.83160  0.30920  1.0000 0.0536015209
C   C139      1.0  0.85950  0.79770  0.27200  1.0000 -0.1475921439
C   C140      1.0  0.83160  0.70940  0.27410  1.0000 0.0794183982
C   C141      1.0  0.89610  0.92530  0.30890  1.0000 0.3710388829
C   C142      1.0  0.88780  0.01860  0.33700  1.0000 0.3624211801
C   C143      1.0  0.98380  0.08100  0.28250  1.0000 0.3710388829
C   C144      1.0  0.84110  0.09850  0.35980  1.0000 -0.1217333339
I   I1        1.0  0.40590  0.35846  0.89077  1.0000 -0.440210207
I   I2        1.0  0.59229  0.36337  0.81954  1.0000 -0.440210207
I   I3        1.0  0.70811  0.98937  0.25580  1.0000 -0.4461252677
I   I4        1.0  0.86799  0.06389  0.14252  1.0000 -0.4583090829
I   I5        1.0  0.70412  0.43784  0.95677  1.0000 -0.4322196977
I   I6        1.0  0.74426  0.26766  0.05842  1.0000 -0.440210207
I   I7        1.0  0.20154  0.73306  0.55124  1.0000 -0.4461252677
I   I8        1.0  0.01939  0.76239  0.45306  1.0000 -0.4322196977
I   I9        1.0  0.10700  0.05596  0.39304  1.0000 -0.440210207
I   I10       1.0  0.10471  0.87481  0.31725  1.0000 -0.4322196977
I   I11       1.0  0.40891  0.60243  0.64264  1.0000 -0.4664021568
I   I12       1.0  0.48636  0.76610  0.75642  1.0000 -0.4461252677
I   I13       1.0  0.35846  0.40590  0.10923  1.0000 -0.440210207
I   I14       1.0  0.36337  0.59229  0.18046  1.0000 -0.440210207
I   I15       1.0  0.98937  0.70811  0.74420  1.0000 -0.4461252677
I   I16       1.0  0.06389  0.86799  0.85748  1.0000 -0.4583090829
I   I17       1.0  0.43784  0.70412  0.04323  1.0000 -0.440210207
I   I18       1.0  0.26766  0.74426  0.94158  1.0000 -0.4322196977
I   I19       1.0  0.73306  0.20154  0.44876  1.0000 -0.4461252677
I   I20       1.0  0.76239  0.01939  0.54694  1.0000 -0.4322196977
I   I21       1.0  0.05596  0.10700  0.60696  1.0000 -0.440210207
I   I22       1.0  0.87481  0.10471  0.68275  1.0000 -0.4322196977
I   I23       1.0  0.60243  0.40891  0.35736  1.0000 -0.4664021568
I   I24       1.0  0.76610  0.48636  0.24358  1.0000 -0.4461252677
N   N1        1.0  0.60500  0.93500  0.14120  1.0000 -0.181603639
N   N2        1.0  0.40720  0.16600  0.89680  1.0000 -0.181603639
N   N3        1.0  0.91620  0.54240  0.03730  1.0000 -0.181603639
N   N4        1.0  0.28700  0.80940  0.06090  1.0000 -0.3833754721
N   N5        1.0  0.40580  0.95820  0.02270  1.0000 -0.3833754721
N   N6        1.0  0.24010  0.86810  0.00280  1.0000 -0.3833754721
N   N7        1.0  0.66340  0.81740  0.18780  1.0000 -0.181603639
N   N8        1.0  0.27110  0.14430  0.30450  1.0000 -0.1890404674
N   N9        1.0  0.70820  0.42400  0.07810  1.0000 -0.1890404674
N   N10       1.0  0.60970  0.53430  0.16320  1.0000 -0.3891837994
N   N11       1.0  0.51040  0.47280  0.22180  1.0000 -0.3833754721
N   N12       1.0  0.51360  0.37040  0.19050  1.0000 -0.3891837994
N   N13       1.0  0.30050  0.06150  0.39630  1.0000 -0.169573353
N   N14       1.0  0.53440  0.86320  0.63880  1.0000 -0.1890404674
N   N15       1.0  0.92550  0.55210  0.53480  1.0000 -0.1890404674
N   N16       1.0  0.59640  0.22820  0.50140  1.0000 -0.40020085
N   N17       1.0  0.50840  0.06020  0.52150  1.0000 -0.3833754721
N   N18       1.0  0.66100  0.18480  0.56250  1.0000 -0.40020085
N   N19       1.0  0.03830  0.75930  0.57410  1.0000 -0.181603639
N   N20       1.0  0.32250  0.19350  0.80460  1.0000 -0.1890404674
N   N21       1.0  0.65230  0.81030  0.68740  1.0000 -0.1969234483
N   N22       1.0  0.93030  0.85850  0.66110  1.0000 -0.3891837994
N   N23       1.0  0.09680  0.95260  0.69000  1.0000 -0.3833754721
N   N24       1.0  0.99610  0.95670  0.72050  1.0000 -0.3891837994
N   N25       1.0  0.93500  0.60500  0.85880  1.0000 -0.181603639
N   N26       1.0  0.16600  0.40720  0.10320  1.0000 -0.181603639
N   N27       1.0  0.54240  0.91620  0.96270  1.0000 -0.181603639
N   N28       1.0  0.80940  0.28700  0.93910  1.0000 -0.3891837994
N   N29       1.0  0.95820  0.40580  0.97730  1.0000 -0.3833754721
N   N30       1.0  0.86810  0.24010  0.99720  1.0000 -0.3833754721
N   N31       1.0  0.81740  0.66340  0.81220  1.0000 -0.181603639
N   N32       1.0  0.14430  0.27110  0.69550  1.0000 -0.1890404674
N   N33       1.0  0.42400  0.70820  0.92190  1.0000 -0.1890404674
N   N34       1.0  0.53430  0.60970  0.83680  1.0000 -0.3833754721
N   N35       1.0  0.47280  0.51040  0.77820  1.0000 -0.3833754721
N   N36       1.0  0.37040  0.51360  0.80950  1.0000 -0.3891837994
N   N37       1.0  0.06150  0.30050  0.60370  1.0000 -0.169573353
N   N38       1.0  0.86320  0.53440  0.36120  1.0000 -0.1890404674
N   N39       1.0  0.55210  0.92550  0.46520  1.0000 -0.1890404674
N   N40       1.0  0.22820  0.59640  0.49860  1.0000 -0.40020085
N   N41       1.0  0.06020  0.50840  0.47850  1.0000 -0.3833754721
N   N42       1.0  0.18480  0.66100  0.43750  1.0000 -0.40020085
N   N43       1.0  0.75930  0.03830  0.42590  1.0000 -0.181603639
N   N44       1.0  0.19350  0.32250  0.19540  1.0000 -0.1890404674
N   N45       1.0  0.81030  0.65230  0.31260  1.0000 -0.1969234483
N   N46       1.0  0.85850  0.93030  0.33890  1.0000 -0.3891837994
N   N47       1.0  0.95260  0.09680  0.31000  1.0000 -0.3833754721
N   N48       1.0  0.95670  0.99610  0.27950  1.0000 -0.3891837994
