# DDEC6 charges by PACMAN v1.1 (https://github.com/mtap-research/PACMAN-charge/)
data_2017[Zn][nan]3[ASR]23
_chemical_formula_sum              "Zn6 H72 C132 N4 O24"
_cell_length_a       17.0693
_cell_length_b       17.0693
_cell_length_c       21.894
_cell_angle_alpha    68.6044
_cell_angle_beta     111.396
_cell_angle_gamma    123.391

_symmetry_space_group_name_H-M    "P 1"
_symmetry_Int_Tables_number       1

loop_
  _symmetry_equiv_pos_as_xyz
  'x, y, z'

loop_
  _atom_site_type_symbol
  _atom_site_label
  _atom_site_symmetry_multiplicity
  _atom_site_fract_x
  _atom_site_fract_y
  _atom_site_fract_z
  _atom_site_occupancy
  _atom_site_charge
Zn  Zn1       1.0  0.50000  0.00000  0.50000  1.0000 1.0380256024
Zn  Zn2       1.0  0.00000  0.50000  0.00000  1.0000 1.0380256024
Zn  Zn3       1.0  0.74990  0.15306  0.52563  1.0000 0.9436425713
Zn  Zn4       1.0  0.15306  0.74990  0.97437  1.0000 0.9436425713
Zn  Zn5       1.0  0.25010  0.84694  0.47437  1.0000 0.9436425713
Zn  Zn6       1.0  0.84694  0.25010  0.02563  1.0000 0.9436425713
H   H1        1.0  0.94220  0.80440  0.00370  1.0000 0.1188641966
H   H2        1.0  0.80440  0.94220  0.49630  1.0000 0.1188641966
H   H3        1.0  0.05780  0.19560  0.99630  1.0000 0.1188641966
H   H4        1.0  0.19560  0.05780  0.50370  1.0000 0.1188641966
H   H5        1.0  0.80100  0.78660  0.00870  1.0000 0.1301012802
H   H6        1.0  0.78660  0.80100  0.49130  1.0000 0.1301012802
H   H7        1.0  0.19900  0.21340  0.99130  1.0000 0.1301012802
H   H8        1.0  0.21340  0.19900  0.50870  1.0000 0.1301012802
H   H9        1.0  0.68060  0.50220  0.03300  1.0000 0.1188641966
H   H10       1.0  0.50220  0.68060  0.46700  1.0000 0.1188641966
H   H11       1.0  0.31940  0.49780  0.96700  1.0000 0.1188641966
H   H12       1.0  0.49780  0.31940  0.53300  1.0000 0.1188641966
H   H13       1.0  0.82310  0.52030  0.02970  1.0000 0.1301012802
H   H14       1.0  0.52030  0.82310  0.47030  1.0000 0.1301012802
H   H15       1.0  0.17690  0.47970  0.97030  1.0000 0.1301012802
H   H16       1.0  0.47970  0.17690  0.52970  1.0000 0.1301012802
H   H17       1.0  0.67060  0.76580  0.90240  1.0000 0.1188641966
H   H18       1.0  0.76580  0.67060  0.59760  1.0000 0.1188641966
H   H19       1.0  0.32940  0.23420  0.09760  1.0000 0.1188641966
H   H20       1.0  0.23420  0.32940  0.40240  1.0000 0.1188641966
H   H21       1.0  0.44480  0.80260  0.87440  1.0000 0.1188641966
H   H22       1.0  0.80260  0.44480  0.62560  1.0000 0.1188641966
H   H23       1.0  0.55520  0.19740  0.12560  1.0000 0.1188641966
H   H24       1.0  0.19740  0.55520  0.37440  1.0000 0.1188641966
H   H25       1.0  0.40310  0.68990  0.97150  1.0000 0.1301012802
H   H26       1.0  0.68990  0.40310  0.52850  1.0000 0.1301012802
H   H27       1.0  0.59690  0.31010  0.02850  1.0000 0.1301012802
H   H28       1.0  0.31010  0.59690  0.47150  1.0000 0.1301012802
H   H29       1.0  0.39300  0.54740  0.09430  1.0000 0.1188641966
H   H30       1.0  0.54740  0.39300  0.40570  1.0000 0.1188641966
H   H31       1.0  0.60700  0.45260  0.90570  1.0000 0.1188641966
H   H32       1.0  0.45260  0.60700  0.59430  1.0000 0.1188641966
H   H33       1.0  0.42060  0.43960  0.18830  1.0000 0.1094450575
H   H34       1.0  0.43960  0.42060  0.31170  1.0000 0.1094450575
H   H35       1.0  0.57940  0.56040  0.81170  1.0000 0.1094450575
H   H36       1.0  0.56040  0.57940  0.68830  1.0000 0.1094450575
H   H37       1.0  0.65700  0.50200  0.13900  1.0000 0.1301012802
H   H38       1.0  0.50200  0.65700  0.36100  1.0000 0.1301012802
H   H39       1.0  0.34300  0.49800  0.86100  1.0000 0.1301012802
H   H40       1.0  0.49800  0.34300  0.63900  1.0000 0.1301012802
H   H41       1.0  0.73020  0.91260  0.84110  1.0000 0.1188641966
H   H42       1.0  0.91260  0.73020  0.65890  1.0000 0.1188641966
H   H43       1.0  0.26980  0.08740  0.15890  1.0000 0.1188641966
H   H44       1.0  0.08740  0.26980  0.34110  1.0000 0.1188641966
H   H45       1.0  0.76810  0.01870  0.74150  1.0000 0.1188641966
H   H46       1.0  0.01870  0.76810  0.75850  1.0000 0.1188641966
H   H47       1.0  0.23190  0.98130  0.25850  1.0000 0.1188641966
H   H48       1.0  0.98130  0.23190  0.24150  1.0000 0.1188641966
H   H49       1.0  0.49490  0.95870  0.66860  1.0000 0.1301012802
H   H50       1.0  0.95870  0.49490  0.83140  1.0000 0.1301012802
H   H51       1.0  0.50510  0.04130  0.33140  1.0000 0.1301012802
H   H52       1.0  0.04130  0.50510  0.16860  1.0000 0.1301012802
H   H53       1.0  0.45530  0.85270  0.76830  1.0000 0.1188641966
H   H54       1.0  0.85270  0.45530  0.73170  1.0000 0.1188641966
H   H55       1.0  0.54470  0.14730  0.23170  1.0000 0.1188641966
H   H56       1.0  0.14730  0.54470  0.26830  1.0000 0.1188641966
H   H57       1.0  0.42240  0.29960  0.24150  1.0000 0.1094450575
H   H58       1.0  0.29960  0.42240  0.25850  1.0000 0.1094450575
H   H59       1.0  0.57760  0.70040  0.75850  1.0000 0.1094450575
H   H60       1.0  0.70040  0.57760  0.74150  1.0000 0.1094450575
H   H61       1.0  0.45040  0.19980  0.34170  1.0000 0.1188641966
H   H62       1.0  0.19980  0.45040  0.15830  1.0000 0.1188641966
H   H63       1.0  0.54960  0.80020  0.65830  1.0000 0.1188641966
H   H64       1.0  0.80020  0.54960  0.84170  1.0000 0.1188641966
H   H65       1.0  0.73340  0.37220  0.35840  1.0000 0.1188641966
H   H66       1.0  0.37220  0.73340  0.14160  1.0000 0.1188641966
H   H67       1.0  0.26660  0.62780  0.64160  1.0000 0.1188641966
H   H68       1.0  0.62780  0.26660  0.85840  1.0000 0.1188641966
H   H69       1.0  0.70600  0.47360  0.25840  1.0000 0.1188641966
H   H70       1.0  0.47360  0.70600  0.24160  1.0000 0.1188641966
H   H71       1.0  0.29400  0.52640  0.74160  1.0000 0.1188641966
H   H72       1.0  0.52640  0.29400  0.75840  1.0000 0.1188641966
C   C1        1.0  0.98787  0.67713  0.00898  1.0000 0.5796913353
C   C2        1.0  0.67713  0.98787  0.49102  1.0000 0.5796913353
C   C3        1.0  0.01213  0.32287  0.99102  1.0000 0.5796913353
C   C4        1.0  0.32287  0.01213  0.50898  1.0000 0.5796913353
C   C5        1.0  0.89753  0.66489  0.01512  1.0000 -0.040633856
C   C6        1.0  0.66489  0.89753  0.48488  1.0000 -0.040633856
C   C7        1.0  0.10247  0.33511  0.98488  1.0000 -0.040633856
C   C8        1.0  0.33511  0.10247  0.51512  1.0000 -0.040633856
C   C9        1.0  0.88960  0.74342  0.00952  1.0000 -0.080298339
C   C10       1.0  0.74342  0.88960  0.49048  1.0000 -0.080298339
C   C11       1.0  0.11040  0.25658  0.99048  1.0000 -0.080298339
C   C12       1.0  0.25658  0.11040  0.50952  1.0000 -0.080298339
C   C13       1.0  0.80509  0.73289  0.01244  1.0000 -0.189392634
C   C14       1.0  0.73289  0.80509  0.48756  1.0000 -0.189392634
C   C15       1.0  0.19491  0.26711  0.98756  1.0000 -0.189392634
C   C16       1.0  0.26711  0.19491  0.51244  1.0000 -0.189392634
C   C17       1.0  0.72619  0.64273  0.02090  1.0000 0.1801877913
C   C18       1.0  0.64273  0.72619  0.47910  1.0000 0.1801877913
C   C19       1.0  0.27381  0.35727  0.97910  1.0000 0.1801877913
C   C20       1.0  0.35727  0.27381  0.52090  1.0000 0.1801877913
C   C21       1.0  0.73330  0.56320  0.02715  1.0000 -0.189392634
C   C22       1.0  0.56320  0.73330  0.47285  1.0000 -0.189392634
C   C23       1.0  0.26670  0.43680  0.97285  1.0000 -0.189392634
C   C24       1.0  0.43680  0.26670  0.52715  1.0000 -0.189392634
C   C25       1.0  0.81848  0.57420  0.02478  1.0000 -0.080298339
C   C26       1.0  0.57420  0.81848  0.47522  1.0000 -0.080298339
C   C27       1.0  0.18152  0.42580  0.97522  1.0000 -0.080298339
C   C28       1.0  0.42580  0.18152  0.52478  1.0000 -0.080298339
C   C29       1.0  0.59374  0.68612  0.97599  1.0000 0.1301012802
C   C30       1.0  0.68612  0.59374  0.52401  1.0000 0.1301012802
C   C31       1.0  0.40626  0.31388  0.02401  1.0000 0.1301012802
C   C32       1.0  0.31388  0.40626  0.47599  1.0000 0.1301012802
C   C33       1.0  0.61826  0.75216  0.91646  1.0000 -0.2379560474
C   C34       1.0  0.75216  0.61826  0.58354  1.0000 -0.2379560474
C   C35       1.0  0.38174  0.24784  0.08354  1.0000 -0.2379560474
C   C36       1.0  0.24784  0.38174  0.41646  1.0000 -0.2379560474
C   C37       1.0  0.56301  0.79691  0.87887  1.0000 0.0789819654
C   C38       1.0  0.79691  0.56301  0.62113  1.0000 0.0789819654
C   C39       1.0  0.43699  0.20309  0.12113  1.0000 0.0789819654
C   C40       1.0  0.20309  0.43699  0.37887  1.0000 0.0789819654
C   C41       1.0  0.48197  0.77269  0.90009  1.0000 -0.1681576263
C   C42       1.0  0.77269  0.48197  0.59991  1.0000 -0.1681576263
C   C43       1.0  0.51803  0.22731  0.09991  1.0000 -0.1681576263
C   C44       1.0  0.22731  0.51803  0.40009  1.0000 -0.1681576263
C   C45       1.0  0.45690  0.70538  0.95830  1.0000 -0.1377773586
C   C46       1.0  0.70538  0.45690  0.54170  1.0000 -0.1377773586
C   C47       1.0  0.54310  0.29462  0.04170  1.0000 -0.1377773586
C   C48       1.0  0.29462  0.54310  0.45830  1.0000 -0.1377773586
C   C49       1.0  0.51278  0.66120  0.99694  1.0000 -0.0260494066
C   C50       1.0  0.66120  0.51278  0.50306  1.0000 -0.0260494066
C   C51       1.0  0.48722  0.33880  0.00306  1.0000 -0.0260494066
C   C52       1.0  0.33880  0.48722  0.49694  1.0000 -0.0260494066
C   C53       1.0  0.50786  0.58952  0.05854  1.0000 -0.0260494066
C   C54       1.0  0.58952  0.50786  0.44146  1.0000 -0.0260494066
C   C55       1.0  0.49214  0.41048  0.94146  1.0000 -0.0260494066
C   C56       1.0  0.41048  0.49214  0.55854  1.0000 -0.0260494066
C   C57       1.0  0.44544  0.53866  0.10276  1.0000 -0.1318432245
C   C58       1.0  0.53866  0.44544  0.39724  1.0000 -0.1318432245
C   C59       1.0  0.55456  0.46134  0.89724  1.0000 -0.1318432245
C   C60       1.0  0.46134  0.55456  0.60276  1.0000 -0.1318432245
C   C61       1.0  0.46297  0.47489  0.15933  1.0000 -0.1681576263
C   C62       1.0  0.47489  0.46297  0.34067  1.0000 -0.1681576263
C   C63       1.0  0.53703  0.52511  0.84067  1.0000 -0.1681576263
C   C64       1.0  0.52511  0.53703  0.65933  1.0000 -0.1681576263
C   C65       1.0  0.54274  0.46192  0.17435  1.0000 0.0789819654
C   C66       1.0  0.46192  0.54274  0.32565  1.0000 0.0789819654
C   C67       1.0  0.45726  0.53808  0.82565  1.0000 0.0789819654
C   C68       1.0  0.53808  0.45726  0.67435  1.0000 0.0789819654
C   C69       1.0  0.60455  0.51091  0.13030  1.0000 -0.2340731326
C   C70       1.0  0.51091  0.60455  0.36970  1.0000 -0.2340731326
C   C71       1.0  0.39545  0.48909  0.86970  1.0000 -0.2340731326
C   C72       1.0  0.48909  0.39545  0.63030  1.0000 -0.2340731326
C   C73       1.0  0.58595  0.57357  0.07281  1.0000 0.1301012802
C   C74       1.0  0.57357  0.58595  0.42719  1.0000 0.1301012802
C   C75       1.0  0.41405  0.42643  0.92719  1.0000 0.1301012802
C   C76       1.0  0.42643  0.41405  0.57281  1.0000 0.1301012802
C   C77       1.0  0.58837  0.86897  0.81551  1.0000 0.0700754594
C   C78       1.0  0.86897  0.58837  0.68449  1.0000 0.0700754594
C   C79       1.0  0.41163  0.13103  0.18449  1.0000 0.0700754594
C   C80       1.0  0.13103  0.41163  0.31551  1.0000 0.0700754594
C   C81       1.0  0.68202  0.92084  0.80647  1.0000 -0.1579426084
C   C82       1.0  0.92084  0.68202  0.69353  1.0000 -0.1579426084
C   C83       1.0  0.31798  0.07916  0.19353  1.0000 -0.1579426084
C   C84       1.0  0.07916  0.31798  0.30647  1.0000 -0.1579426084
C   C85       1.0  0.70489  0.98475  0.74669  1.0000 -0.0904309976
C   C86       1.0  0.98475  0.70489  0.75331  1.0000 -0.0904309976
C   C87       1.0  0.29511  0.01525  0.25331  1.0000 -0.0904309976
C   C88       1.0  0.01525  0.29511  0.24669  1.0000 -0.0904309976
C   C89       1.0  0.63371  0.99847  0.69415  1.0000 -0.040633856
C   C90       1.0  0.99847  0.63371  0.80585  1.0000 -0.040633856
C   C91       1.0  0.36629  0.00153  0.30585  1.0000 -0.040633856
C   C92       1.0  0.00153  0.36629  0.19415  1.0000 -0.040633856
C   C93       1.0  0.54250  0.94930  0.70320  1.0000 -0.080298339
C   C94       1.0  0.94930  0.54250  0.79680  1.0000 -0.080298339
C   C95       1.0  0.45750  0.05070  0.29680  1.0000 -0.080298339
C   C96       1.0  0.05070  0.45750  0.20320  1.0000 -0.080298339
C   C97       1.0  0.51840  0.88502  0.76313  1.0000 -0.1479174349
C   C98       1.0  0.88502  0.51840  0.73687  1.0000 -0.1479174349
C   C99       1.0  0.48160  0.11498  0.23687  1.0000 -0.1479174349
C   C100      1.0  0.11498  0.48160  0.26313  1.0000 -0.1479174349
C   C101      1.0  0.65711  0.06109  0.62757  1.0000 0.5926693823
C   C102      1.0  0.06109  0.65711  0.87243  1.0000 0.5926693823
C   C103      1.0  0.34289  0.93891  0.37243  1.0000 0.5926693823
C   C104      1.0  0.93891  0.34289  0.12757  1.0000 0.5926693823
C   C105      1.0  0.56153  0.39693  0.23840  1.0000 0.0789819654
C   C106      1.0  0.39693  0.56153  0.26160  1.0000 0.0789819654
C   C107      1.0  0.43847  0.60307  0.76160  1.0000 0.0789819654
C   C108      1.0  0.60307  0.43847  0.73840  1.0000 0.0789819654
C   C109      1.0  0.48518  0.31452  0.26456  1.0000 -0.1579426084
C   C110      1.0  0.31452  0.48518  0.23544  1.0000 -0.1579426084
C   C111      1.0  0.51482  0.68548  0.73544  1.0000 -0.1579426084
C   C112      1.0  0.68548  0.51482  0.76456  1.0000 -0.1579426084
C   C113      1.0  0.50193  0.25449  0.32475  1.0000 -0.0983316604
C   C114      1.0  0.25449  0.50193  0.17525  1.0000 -0.0983316604
C   C115      1.0  0.49807  0.74551  0.67525  1.0000 -0.0983316604
C   C116      1.0  0.74551  0.49807  0.82475  1.0000 -0.0983316604
C   C117      1.0  0.59453  0.27531  0.35970  1.0000 -0.040633856
C   C118      1.0  0.27531  0.59453  0.14030  1.0000 -0.040633856
C   C119      1.0  0.40547  0.72469  0.64030  1.0000 -0.040633856
C   C120      1.0  0.72469  0.40547  0.85970  1.0000 -0.040633856
C   C121      1.0  0.67085  0.35741  0.33489  1.0000 -0.0983316604
C   C122      1.0  0.35741  0.67085  0.16511  1.0000 -0.0983316604
C   C123      1.0  0.32915  0.64259  0.66511  1.0000 -0.0983316604
C   C124      1.0  0.64259  0.32915  0.83489  1.0000 -0.0983316604
C   C125      1.0  0.65424  0.41816  0.27458  1.0000 -0.1579426084
C   C126      1.0  0.41816  0.65424  0.22542  1.0000 -0.1579426084
C   C127      1.0  0.34576  0.58184  0.72542  1.0000 -0.1579426084
C   C128      1.0  0.58184  0.34576  0.77458  1.0000 -0.1579426084
C   C129      1.0  0.61055  0.20569  0.42231  1.0000 0.5985195485
C   C130      1.0  0.20569  0.61055  0.07769  1.0000 0.5985195485
C   C131      1.0  0.38945  0.79431  0.57769  1.0000 0.5985195485
C   C132      1.0  0.79431  0.38945  0.92231  1.0000 0.5985195485
N   N1        1.0  0.63867  0.63285  0.02191  1.0000 -0.1104413945
N   N2        1.0  0.63285  0.63867  0.47809  1.0000 -0.1104413945
N   N3        1.0  0.36133  0.36715  0.97809  1.0000 -0.1104413945
N   N4        1.0  0.36715  0.36133  0.52191  1.0000 -0.1104413945
O   O1        1.0  0.05630  0.75870  0.99727  1.0000 -0.5030210767
O   O2        1.0  0.75870  0.05630  0.50273  1.0000 -0.5030210767
O   O3        1.0  0.94370  0.24130  0.00273  1.0000 -0.5030210767
O   O4        1.0  0.24130  0.94370  0.49727  1.0000 -0.5030210767
O   O5        1.0  0.99493  0.60747  0.01650  1.0000 -0.5176384601
O   O6        1.0  0.60747  0.99493  0.48350  1.0000 -0.5176384601
O   O7        1.0  0.00507  0.39253  0.98350  1.0000 -0.5176384601
O   O8        1.0  0.39253  0.00507  0.51650  1.0000 -0.5176384601
O   O9        1.0  0.74214  0.10526  0.62137  1.0000 -0.5391605052
O   O10       1.0  0.10526  0.74214  0.87863  1.0000 -0.5391605052
O   O11       1.0  0.25786  0.89474  0.37863  1.0000 -0.5391605052
O   O12       1.0  0.89474  0.25786  0.12137  1.0000 -0.5391605052
O   O13       1.0  0.59091  0.06839  0.58047  1.0000 -0.5765492324
O   O14       1.0  0.06839  0.59091  0.91953  1.0000 -0.5765492324
O   O15       1.0  0.40909  0.93161  0.41953  1.0000 -0.5765492324
O   O16       1.0  0.93161  0.40909  0.08047  1.0000 -0.5765492324
O   O17       1.0  0.69679  0.22985  0.45356  1.0000 -0.5765492324
O   O18       1.0  0.22985  0.69679  0.04644  1.0000 -0.5765492324
O   O19       1.0  0.30321  0.77015  0.54644  1.0000 -0.5765492324
O   O20       1.0  0.77015  0.30321  0.95356  1.0000 -0.5765492324
O   O21       1.0  0.53699  0.13091  0.43842  1.0000 -0.5540048632
O   O22       1.0  0.13091  0.53699  0.06158  1.0000 -0.5540048632
O   O23       1.0  0.46301  0.86909  0.56158  1.0000 -0.5540048632
O   O24       1.0  0.86909  0.46301  0.93842  1.0000 -0.5540048632
