# DDEC6 charges by PACMAN v1.1 (https://github.com/mtap-research/PACMAN-charge/)
data_2017[Eu][dia]3[ASR]1
_chemical_formula_sum              "Eu8 C32 O64"
_cell_length_a       9.8029
_cell_length_b       17.5059
_cell_length_c       16.5723
_cell_angle_alpha    90
_cell_angle_beta     118.821
_cell_angle_gamma    90

_symmetry_space_group_name_H-M    "P 1"
_symmetry_Int_Tables_number       1

loop_
  _symmetry_equiv_pos_as_xyz
  'x, y, z'

loop_
  _atom_site_type_symbol
  _atom_site_label
  _atom_site_symmetry_multiplicity
  _atom_site_fract_x
  _atom_site_fract_y
  _atom_site_fract_z
  _atom_site_occupancy
  _atom_site_charge
Eu  Eu1       1.0  0.33648  0.12162  0.84171  1.0000 1.9704300022
Eu  Eu2       1.0  0.10695  0.83688  0.58759  1.0000 1.9610509729
Eu  Eu3       1.0  0.66352  0.62162  0.65829  1.0000 1.9610509729
Eu  Eu4       1.0  0.89305  0.33688  0.91241  1.0000 1.9766993776
Eu  Eu5       1.0  0.66352  0.87838  0.15829  1.0000 1.9610509729
Eu  Eu6       1.0  0.89305  0.16312  0.41241  1.0000 1.9766993776
Eu  Eu7       1.0  0.33648  0.37838  0.34171  1.0000 1.9610509729
Eu  Eu8       1.0  0.10695  0.66312  0.08759  1.0000 1.9766993776
C   C1        1.0  0.13350  0.98090  0.71690  1.0000 0.5413359499
C   C2        1.0  0.30330  0.95220  0.75480  1.0000 0.5413359499
C   C3        1.0  0.06170  0.23470  0.82280  1.0000 0.5473690963
C   C4        1.0  0.16080  0.22280  0.92760  1.0000 0.5603911535
C   C5        1.0  0.57590  0.02400  0.01860  1.0000 0.5413359499
C   C6        1.0  0.91380  0.98650  0.47660  1.0000 0.5413359499
C   C7        1.0  0.57040  0.26350  0.88390  1.0000 0.5689513441
C   C8        1.0  0.65770  0.19550  0.86810  1.0000 0.5603911535
C   C9        1.0  0.86650  0.48090  0.78310  1.0000 0.5413359499
C   C10       1.0  0.69670  0.45220  0.74520  1.0000 0.5413359499
C   C11       1.0  0.93830  0.73470  0.67720  1.0000 0.5473690963
C   C12       1.0  0.83920  0.72280  0.57240  1.0000 0.5603911535
C   C13       1.0  0.42410  0.52400  0.48140  1.0000 0.5413359499
C   C14       1.0  0.08620  0.48650  0.02340  1.0000 0.5413359499
C   C15       1.0  0.42960  0.76350  0.61610  1.0000 0.5689513441
C   C16       1.0  0.34230  0.69550  0.63190  1.0000 0.5603911535
C   C17       1.0  0.86650  0.01910  0.28310  1.0000 0.5473690963
C   C18       1.0  0.69670  0.04780  0.24520  1.0000 0.5413359499
C   C19       1.0  0.93830  0.76530  0.17720  1.0000 0.5473690963
C   C20       1.0  0.83920  0.77720  0.07240  1.0000 0.5603911535
C   C21       1.0  0.42410  0.97600  0.98140  1.0000 0.5413359499
C   C22       1.0  0.08620  0.01350  0.52340  1.0000 0.5413359499
C   C23       1.0  0.42960  0.73650  0.11610  1.0000 0.5689513441
C   C24       1.0  0.34230  0.80450  0.13190  1.0000 0.5689513441
C   C25       1.0  0.13350  0.51910  0.21690  1.0000 0.5413359499
C   C26       1.0  0.30330  0.54780  0.25480  1.0000 0.5413359499
C   C27       1.0  0.06170  0.26530  0.32280  1.0000 0.5473690963
C   C28       1.0  0.16080  0.27720  0.42760  1.0000 0.5603911535
C   C29       1.0  0.57590  0.47600  0.51860  1.0000 0.5413359499
C   C30       1.0  0.91380  0.51350  0.97660  1.0000 0.5413359499
C   C31       1.0  0.57040  0.23650  0.38390  1.0000 0.5689513441
C   C32       1.0  0.65770  0.30450  0.36810  1.0000 0.5689513441
O   O1        1.0  0.31760  0.88360  0.73760  1.0000 -0.5102806011
O   O2        1.0  0.40940  0.99950  0.79890  1.0000 -0.5282881701
O   O3        1.0  0.11350  0.04620  0.73900  1.0000 -0.5202742958
O   O4        1.0  0.02730  0.93640  0.66450  1.0000 -0.5202742958
O   O5        1.0  0.58470  0.13490  0.84080  1.0000 -0.4922129357
O   O6        1.0  0.26870  0.17400  0.95370  1.0000 -0.5282881701
O   O7        1.0  0.10280  0.19900  0.77330  1.0000 -0.5202742958
O   O8        1.0  0.56200  0.09100  0.99050  1.0000 -0.4997430363
O   O9        1.0  0.89020  0.91640  0.47600  1.0000 -0.5202742958
O   O10       1.0  0.69960  0.99080  0.07310  1.0000 -0.4997430363
O   O11       1.0  0.64130  0.32570  0.90600  1.0000 -0.5102806011
O   O12       1.0  0.94790  0.27990  0.79680  1.0000 -0.5282881701
O   O13       1.0  0.12740  0.26300  0.97840  1.0000 -0.5282881701
O   O14       1.0  0.79370  0.20820  0.88320  1.0000 -0.560028627
O   O15       1.0  0.43710  0.24980  0.87260  1.0000 -0.5516785765
O   O16       1.0  0.81170  0.03700  0.44180  1.0000 -0.5282881701
O   O17       1.0  0.68240  0.38360  0.76240  1.0000 -0.5102806011
O   O18       1.0  0.59060  0.49950  0.70110  1.0000 -0.5282881701
O   O19       1.0  0.88650  0.54620  0.76100  1.0000 -0.5202742958
O   O20       1.0  0.97270  0.43640  0.83550  1.0000 -0.5202742958
O   O21       1.0  0.41530  0.63490  0.65920  1.0000 -0.4922129357
O   O22       1.0  0.73130  0.67400  0.54630  1.0000 -0.5282881701
O   O23       1.0  0.89720  0.69900  0.72670  1.0000 -0.5202742958
O   O24       1.0  0.43800  0.59100  0.50950  1.0000 -0.4997430363
O   O25       1.0  0.10980  0.41640  0.02400  1.0000 -0.5202742958
O   O26       1.0  0.30040  0.49080  0.42690  1.0000 -0.4997430363
O   O27       1.0  0.35870  0.82570  0.59400  1.0000 -0.5102806011
O   O28       1.0  0.05210  0.77990  0.70320  1.0000 -0.5282881701
O   O29       1.0  0.87260  0.76300  0.52160  1.0000 -0.5282881701
O   O30       1.0  0.20630  0.70820  0.61680  1.0000 -0.5516785765
O   O31       1.0  0.56290  0.74980  0.62740  1.0000 -0.5516785765
O   O32       1.0  0.18830  0.53700  0.05820  1.0000 -0.5282881701
O   O33       1.0  0.68240  0.11640  0.26240  1.0000 -0.5102806011
O   O34       1.0  0.59060  0.00050  0.20110  1.0000 -0.5282881701
O   O35       1.0  0.88650  0.95380  0.26100  1.0000 -0.5202742958
O   O36       1.0  0.97270  0.06360  0.33550  1.0000 -0.5202742958
O   O37       1.0  0.41530  0.86510  0.15920  1.0000 -0.4922129357
O   O38       1.0  0.73130  0.82600  0.04630  1.0000 -0.5282881701
O   O39       1.0  0.89720  0.80100  0.22670  1.0000 -0.5202742958
O   O40       1.0  0.43800  0.90900  0.00950  1.0000 -0.4997430363
O   O41       1.0  0.10980  0.08360  0.52400  1.0000 -0.5202742958
O   O42       1.0  0.30040  0.00920  0.92690  1.0000 -0.4997430363
O   O43       1.0  0.35870  0.67430  0.09400  1.0000 -0.5102806011
O   O44       1.0  0.05210  0.72010  0.20320  1.0000 -0.5282881701
O   O45       1.0  0.87260  0.73700  0.02160  1.0000 -0.5282881701
O   O46       1.0  0.20630  0.79180  0.11680  1.0000 -0.560028627
O   O47       1.0  0.56290  0.75020  0.12740  1.0000 -0.5516785765
O   O48       1.0  0.18830  0.96300  0.55820  1.0000 -0.5282881701
O   O49       1.0  0.31760  0.61640  0.23760  1.0000 -0.5102806011
O   O50       1.0  0.40940  0.50050  0.29890  1.0000 -0.5282881701
O   O51       1.0  0.11350  0.45380  0.23900  1.0000 -0.5202742958
O   O52       1.0  0.02730  0.56360  0.16450  1.0000 -0.5202742958
O   O53       1.0  0.58470  0.36510  0.34080  1.0000 -0.4922129357
O   O54       1.0  0.26870  0.32600  0.45370  1.0000 -0.5282881701
O   O55       1.0  0.10280  0.30100  0.27330  1.0000 -0.5202742958
O   O56       1.0  0.56200  0.40900  0.49050  1.0000 -0.4997430363
O   O57       1.0  0.89020  0.58360  0.97600  1.0000 -0.5202742958
O   O58       1.0  0.69960  0.50920  0.57310  1.0000 -0.4997430363
O   O59       1.0  0.64130  0.17430  0.40600  1.0000 -0.5102806011
O   O60       1.0  0.94790  0.22010  0.29680  1.0000 -0.5282881701
O   O61       1.0  0.12740  0.23700  0.47840  1.0000 -0.5282881701
O   O62       1.0  0.79370  0.29180  0.38320  1.0000 -0.560028627
O   O63       1.0  0.43710  0.25020  0.37260  1.0000 -0.5516785765
O   O64       1.0  0.81170  0.46300  0.94180  1.0000 -0.5282881701
