# DDEC6 charges by PACMAN v1.1 (https://github.com/mtap-research/PACMAN-charge/)
data_2017[Nd][nan]3[ASR]4
_chemical_formula_sum              "Nd4 H60 C96 N4 O32"
_cell_length_a       15.838
_cell_length_b       10.548
_cell_length_c       21.074
_cell_angle_alpha    90
_cell_angle_beta     107.247
_cell_angle_gamma    90

_symmetry_space_group_name_H-M    "P 1"
_symmetry_Int_Tables_number       1

loop_
  _symmetry_equiv_pos_as_xyz
  'x, y, z'

loop_
  _atom_site_type_symbol
  _atom_site_label
  _atom_site_symmetry_multiplicity
  _atom_site_fract_x
  _atom_site_fract_y
  _atom_site_fract_z
  _atom_site_occupancy
  _atom_site_charge
Nd  Nd1       1.0  0.60081  0.91962  0.45333  1.0000 2.1411196201
Nd  Nd2       1.0  0.39920  0.91962  0.04667  1.0000 2.1411196201
Nd  Nd3       1.0  0.39920  0.08038  0.54667  1.0000 2.1411196201
Nd  Nd4       1.0  0.60080  0.08038  0.95333  1.0000 2.1411196201
H   H1        1.0  0.29361  0.29560  0.34400  1.0000 0.1290508419
H   H2        1.0  0.70639  0.29560  0.15600  1.0000 0.1290508419
H   H3        1.0  0.70639  0.70440  0.65600  1.0000 0.1290508419
H   H4        1.0  0.29361  0.70440  0.84400  1.0000 0.1290508419
H   H5        1.0  0.43071  0.02700  0.28230  1.0000 0.1406715888
H   H6        1.0  0.56929  0.02700  0.21770  1.0000 0.1406715888
H   H7        1.0  0.56929  0.97300  0.71770  1.0000 0.1406715888
H   H8        1.0  0.43071  0.97300  0.78230  1.0000 0.1406715888
H   H9        1.0  0.11911  0.48890  0.16470  1.0000 0.1206144773
H   H10       1.0  0.88089  0.48890  0.33530  1.0000 0.1206144773
H   H11       1.0  0.88090  0.51110  0.83530  1.0000 0.1206144773
H   H12       1.0  0.11911  0.51110  0.66470  1.0000 0.1206144773
H   H13       1.0  0.17091  0.38860  0.13600  1.0000 0.1290508419
H   H14       1.0  0.82910  0.38860  0.36400  1.0000 0.1290508419
H   H15       1.0  0.82910  0.61140  0.86400  1.0000 0.1290508419
H   H16       1.0  0.17090  0.61140  0.63600  1.0000 0.1290508419
H   H17       1.0  0.31150  0.52440  0.27670  1.0000 0.1206144773
H   H18       1.0  0.68849  0.52440  0.22330  1.0000 0.1206144773
H   H19       1.0  0.68849  0.47560  0.72330  1.0000 0.1206144773
H   H20       1.0  0.31150  0.47560  0.77670  1.0000 0.1206144773
H   H21       1.0  0.07751  0.19030  0.21190  1.0000 0.1206144773
H   H22       1.0  0.92249  0.19030  0.28810  1.0000 0.1206144773
H   H23       1.0  0.92249  0.80970  0.78810  1.0000 0.1206144773
H   H24       1.0  0.07750  0.80970  0.71190  1.0000 0.1206144773
H   H25       1.0  0.23420  0.21610  0.15120  1.0000 0.1290508419
H   H26       1.0  0.76580  0.21610  0.34880  1.0000 0.1290508419
H   H27       1.0  0.76580  0.78390  0.84880  1.0000 0.1290508419
H   H28       1.0  0.23420  0.78390  0.65120  1.0000 0.1290508419
H   H29       1.0  0.09900  0.45410  0.26750  1.0000 0.1206144773
H   H30       1.0  0.90099  0.45410  0.23250  1.0000 0.1206144773
H   H31       1.0  0.90099  0.54590  0.73250  1.0000 0.1206144773
H   H32       1.0  0.09901  0.54590  0.76750  1.0000 0.1206144773
H   H33       1.0  0.15940  0.35970  0.31840  1.0000 0.1206144773
H   H34       1.0  0.84059  0.35970  0.18160  1.0000 0.1206144773
H   H35       1.0  0.84059  0.64030  0.68160  1.0000 0.1206144773
H   H36       1.0  0.15941  0.64030  0.81840  1.0000 0.1206144773
H   H37       1.0  0.95030  0.07310  0.17100  1.0000 0.1206144773
H   H38       1.0  0.04970  0.07310  0.32900  1.0000 0.1206144773
H   H39       1.0  0.04970  0.92690  0.82900  1.0000 0.1206144773
H   H40       1.0  0.95030  0.92690  0.67100  1.0000 0.1206144773
H   H41       1.0  0.13520  0.58500  0.37390  1.0000 0.1206144773
H   H42       1.0  0.86479  0.58500  0.12610  1.0000 0.1206144773
H   H43       1.0  0.86479  0.41500  0.62610  1.0000 0.1206144773
H   H44       1.0  0.13520  0.41500  0.87390  1.0000 0.1206144773
H   H45       1.0  0.39800  0.68710  0.33570  1.0000 0.1290508419
H   H46       1.0  0.60200  0.68710  0.16430  1.0000 0.1290508419
H   H47       1.0  0.60199  0.31290  0.66430  1.0000 0.1290508419
H   H48       1.0  0.39800  0.31290  0.83570  1.0000 0.1290508419
H   H49       1.0  0.22021  0.74580  0.43350  1.0000 0.1406715888
H   H50       1.0  0.77980  0.74580  0.06650  1.0000 0.1406715888
H   H51       1.0  0.77980  0.25420  0.56650  1.0000 0.1406715888
H   H52       1.0  0.22021  0.25420  0.93350  1.0000 0.1406715888
H   H53       1.0  0.99491  0.43370  0.06130  1.0000 0.1206144773
H   H54       1.0  0.00510  0.43370  0.43870  1.0000 0.1206144773
H   H55       1.0  0.00509  0.56630  0.93870  1.0000 0.1206144773
H   H56       1.0  0.99491  0.56630  0.56130  1.0000 0.1206144773
H   H57       1.0  0.86750  0.31910  0.02050  1.0000 0.1290508419
H   H58       1.0  0.13249  0.31910  0.47950  1.0000 0.1290508419
H   H59       1.0  0.13250  0.68090  0.97950  1.0000 0.1290508419
H   H60       1.0  0.86750  0.68090  0.52050  1.0000 0.1290508419
C   C1        1.0  0.42270  0.13390  0.39570  1.0000 0.6517490953
C   C2        1.0  0.57730  0.13390  0.10430  1.0000 0.6517490953
C   C3        1.0  0.57730  0.86610  0.60430  1.0000 0.6517490953
C   C4        1.0  0.42270  0.86610  0.89570  1.0000 0.6517490953
C   C5        1.0  0.25140  0.27290  0.24580  1.0000 0.1688377767
C   C6        1.0  0.74860  0.27290  0.25420  1.0000 0.1688377767
C   C7        1.0  0.74860  0.72710  0.75420  1.0000 0.1688377767
C   C8        1.0  0.25140  0.72710  0.74580  1.0000 0.1688377767
C   C9        1.0  0.36950  0.15720  0.32420  1.0000 0.008315801
C   C10       1.0  0.63050  0.15720  0.17580  1.0000 0.008315801
C   C11       1.0  0.63050  0.84280  0.67580  1.0000 0.008315801
C   C12       1.0  0.36950  0.84280  0.82420  1.0000 0.008315801
C   C13       1.0  0.30321  0.24890  0.30940  1.0000 -0.1811573273
C   C14       1.0  0.69680  0.24890  0.19060  1.0000 -0.1811573273
C   C15       1.0  0.69680  0.75110  0.69060  1.0000 -0.1811573273
C   C16       1.0  0.30321  0.75110  0.80940  1.0000 -0.1811573273
C   C17       1.0  0.33350  0.10960  0.20850  1.0000 0.023660486
C   C18       1.0  0.66649  0.10960  0.29150  1.0000 0.023660486
C   C19       1.0  0.66649  0.89040  0.79150  1.0000 0.023660486
C   C20       1.0  0.33350  0.89040  0.70850  1.0000 0.023660486
C   C21       1.0  0.38590  0.08730  0.27330  1.0000 -0.1101721988
C   C22       1.0  0.61410  0.08730  0.22670  1.0000 -0.1101721988
C   C23       1.0  0.61410  0.91270  0.72670  1.0000 -0.1101721988
C   C24       1.0  0.38590  0.91270  0.77330  1.0000 -0.1101721988
C   C25       1.0  0.13520  0.40010  0.16580  1.0000 -0.1811573273
C   C26       1.0  0.86479  0.40010  0.33420  1.0000 -0.1811573273
C   C27       1.0  0.86479  0.59990  0.83420  1.0000 -0.1811573273
C   C28       1.0  0.13520  0.59990  0.66580  1.0000 -0.1811573273
C   C29       1.0  0.29361  0.56780  0.30880  1.0000 -0.1444644124
C   C30       1.0  0.70639  0.56780  0.19120  1.0000 -0.1444644124
C   C31       1.0  0.70639  0.43220  0.69120  1.0000 -0.1444644124
C   C32       1.0  0.29361  0.43220  0.80880  1.0000 -0.1444644124
C   C33       1.0  0.21660  0.53540  0.32100  1.0000 0.1021344535
C   C34       1.0  0.78339  0.53540  0.17900  1.0000 0.1021344535
C   C35       1.0  0.78339  0.46460  0.67900  1.0000 0.1021344535
C   C36       1.0  0.21660  0.46460  0.82100  1.0000 0.1021344535
C   C37       1.0  0.32010  0.73150  0.39170  1.0000 -0.0170215663
C   C38       1.0  0.67990  0.73150  0.10830  1.0000 -0.0170215663
C   C39       1.0  0.67990  0.26850  0.60830  1.0000 -0.0170215663
C   C40       1.0  0.32010  0.26850  0.89170  1.0000 -0.0170215663
C   C41       1.0  0.37881  0.83160  0.43200  1.0000 0.656647405
C   C42       1.0  0.62120  0.83160  0.06800  1.0000 0.656647405
C   C43       1.0  0.62120  0.16840  0.56800  1.0000 0.656647405
C   C44       1.0  0.37881  0.16840  0.93200  1.0000 0.656647405
C   C45       1.0  0.03580  0.21570  0.17270  1.0000 -0.1597670723
C   C46       1.0  0.96420  0.21570  0.32730  1.0000 -0.1597670723
C   C47       1.0  0.96420  0.78430  0.82730  1.0000 -0.1597670723
C   C48       1.0  0.03580  0.78430  0.67270  1.0000 -0.1597670723
C   C49       1.0  0.26781  0.20170  0.19500  1.0000 -0.1982482911
C   C50       1.0  0.73220  0.20170  0.30500  1.0000 -0.1982482911
C   C51       1.0  0.73220  0.79830  0.80500  1.0000 -0.1982482911
C   C52       1.0  0.26781  0.79830  0.69500  1.0000 -0.1982482911
C   C53       1.0  0.05171  0.32200  0.14060  1.0000 0.1108312368
C   C54       1.0  0.94829  0.32200  0.35940  1.0000 0.1108312368
C   C55       1.0  0.94829  0.67800  0.85940  1.0000 0.1108312368
C   C56       1.0  0.05170  0.67800  0.64060  1.0000 0.1108312368
C   C57       1.0  0.89621  0.18180  0.09060  1.0000 -0.0470162142
C   C58       1.0  0.10379  0.18180  0.40940  1.0000 -0.0470162142
C   C59       1.0  0.10379  0.81820  0.90940  1.0000 -0.0470162142
C   C60       1.0  0.89620  0.81820  0.59060  1.0000 -0.0470162142
C   C61       1.0  0.15931  0.42460  0.28580  1.0000 -0.1682535314
C   C62       1.0  0.84069  0.42460  0.21420  1.0000 -0.1682535314
C   C63       1.0  0.84069  0.57540  0.71420  1.0000 -0.1682535314
C   C64       1.0  0.15930  0.57540  0.78580  1.0000 -0.1682535314
C   C65       1.0  0.95930  0.14520  0.14840  1.0000 -0.080545142
C   C66       1.0  0.04070  0.14520  0.35160  1.0000 -0.080545142
C   C67       1.0  0.04070  0.85480  0.85160  1.0000 -0.080545142
C   C68       1.0  0.95930  0.85480  0.64840  1.0000 -0.080545142
C   C69       1.0  0.18911  0.60440  0.36690  1.0000 -0.1597670723
C   C70       1.0  0.81090  0.60440  0.13310  1.0000 -0.1597670723
C   C71       1.0  0.81090  0.39560  0.63310  1.0000 -0.1597670723
C   C72       1.0  0.18910  0.39560  0.86690  1.0000 -0.1597670723
C   C73       1.0  0.34610  0.03430  0.15160  1.0000 0.5684759825
C   C74       1.0  0.65390  0.03430  0.34840  1.0000 0.5684759825
C   C75       1.0  0.65389  0.96570  0.84840  1.0000 0.5684759825
C   C76       1.0  0.34610  0.96570  0.65160  1.0000 0.5684759825
C   C77       1.0  0.81561  0.10720  0.06280  1.0000 0.5984892457
C   C78       1.0  0.18440  0.10720  0.43720  1.0000 0.5984892457
C   C79       1.0  0.18440  0.89280  0.93720  1.0000 0.5984892457
C   C80       1.0  0.81561  0.89280  0.56280  1.0000 0.5984892457
C   C81       1.0  0.34551  0.66590  0.34430  1.0000 -0.080545142
C   C82       1.0  0.65450  0.66590  0.15570  1.0000 -0.080545142
C   C83       1.0  0.65450  0.33410  0.65570  1.0000 -0.080545142
C   C84       1.0  0.34551  0.33410  0.84430  1.0000 -0.080545142
C   C85       1.0  0.23951  0.70090  0.40250  1.0000 -0.0627174132
C   C86       1.0  0.76050  0.70090  0.09750  1.0000 -0.0627174132
C   C87       1.0  0.76050  0.29910  0.59750  1.0000 -0.0627174132
C   C88       1.0  0.23950  0.29910  0.90250  1.0000 -0.0627174132
C   C89       1.0  0.98640  0.36040  0.08320  1.0000 -0.1811573273
C   C90       1.0  0.01360  0.36040  0.41680  1.0000 -0.1811573273
C   C91       1.0  0.01359  0.63960  0.91680  1.0000 -0.1811573273
C   C92       1.0  0.98640  0.63960  0.58320  1.0000 -0.1811573273
C   C93       1.0  0.91021  0.29190  0.05870  1.0000 -0.086234396
C   C94       1.0  0.08979  0.29190  0.44130  1.0000 -0.086234396
C   C95       1.0  0.08979  0.70810  0.94130  1.0000 -0.086234396
C   C96       1.0  0.91021  0.70810  0.55870  1.0000 -0.086234396
N   N1        1.0  0.18810  0.36810  0.23280  1.0000 -0.0677421835
N   N2        1.0  0.81190  0.36810  0.26720  1.0000 -0.0677421835
N   N3        1.0  0.81190  0.63190  0.76720  1.0000 -0.0677421835
N   N4        1.0  0.18810  0.63190  0.73280  1.0000 -0.0677421835
O   O1        1.0  0.49540  0.07800  0.40700  1.0000 -0.6781196163
O   O2        1.0  0.50460  0.07800  0.09300  1.0000 -0.6781196163
O   O3        1.0  0.50460  0.92200  0.59300  1.0000 -0.6781196163
O   O4        1.0  0.49540  0.92200  0.90700  1.0000 -0.6781196163
O   O5        1.0  0.34570  0.91270  0.46140  1.0000 -0.6131580562
O   O6        1.0  0.65429  0.91270  0.03860  1.0000 -0.6131580562
O   O7        1.0  0.65429  0.08730  0.53860  1.0000 -0.6131580562
O   O8        1.0  0.34570  0.08730  0.96140  1.0000 -0.6131580562
O   O9        1.0  0.39050  0.17210  0.43970  1.0000 -0.6393051312
O   O10       1.0  0.60950  0.17210  0.06030  1.0000 -0.6393051312
O   O11       1.0  0.60950  0.82790  0.56030  1.0000 -0.6393051312
O   O12       1.0  0.39050  0.82790  0.93970  1.0000 -0.6393051312
O   O13       1.0  0.45831  0.82830  0.43500  1.0000 -0.6781196163
O   O14       1.0  0.54170  0.82830  0.06500  1.0000 -0.6781196163
O   O15       1.0  0.54170  0.17170  0.56500  1.0000 -0.6781196163
O   O16       1.0  0.45831  0.17170  0.93500  1.0000 -0.6781196163
O   O17       1.0  0.39300  0.93490  0.16310  1.0000 -0.6393051312
O   O18       1.0  0.60699  0.93490  0.33690  1.0000 -0.6393051312
O   O19       1.0  0.60699  0.06510  0.83690  1.0000 -0.6393051312
O   O20       1.0  0.39300  0.06510  0.66310  1.0000 -0.6393051312
O   O21       1.0  0.31050  0.07090  0.09360  1.0000 -0.5927368195
O   O22       1.0  0.68949  0.07090  0.40640  1.0000 -0.5927368195
O   O23       1.0  0.68949  0.92910  0.90640  1.0000 -0.5927368195
O   O24       1.0  0.31050  0.92910  0.59360  1.0000 -0.5927368195
O   O25       1.0  0.76080  0.13580  0.01040  1.0000 -0.6030448169
O   O26       1.0  0.23919  0.13580  0.48960  1.0000 -0.6030448169
O   O27       1.0  0.23920  0.86420  0.98960  1.0000 -0.6030448169
O   O28       1.0  0.76080  0.86420  0.51040  1.0000 -0.6030448169
O   O29       1.0  0.80590  0.01130  0.09930  1.0000 -0.5520185024
O   O30       1.0  0.19409  0.01130  0.40070  1.0000 -0.5520185024
O   O31       1.0  0.19409  0.98870  0.90070  1.0000 -0.5520185024
O   O32       1.0  0.80590  0.98870  0.59930  1.0000 -0.5520185024
