# DDEC6 charges by PACMAN v1.1 (https://github.com/mtap-research/PACMAN-charge/)
data_2017[Cu][nbo]3[ASR]6
_chemical_formula_sum              "Cu6 H36 C78 O30"
_cell_length_a       17.0556
_cell_length_b       17.0556
_cell_length_c       17.0556
_cell_angle_alpha    66.3469
_cell_angle_beta     66.3469
_cell_angle_gamma    66.3469

_symmetry_space_group_name_H-M    "P 1"
_symmetry_Int_Tables_number       1

loop_
  _symmetry_equiv_pos_as_xyz
  'x, y, z'

loop_
  _atom_site_type_symbol
  _atom_site_label
  _atom_site_symmetry_multiplicity
  _atom_site_fract_x
  _atom_site_fract_y
  _atom_site_fract_z
  _atom_site_occupancy
  _atom_site_charge
Cu  Cu1       1.0  0.50402  0.50402  0.07383  1.0000 0.8281293251
Cu  Cu2       1.0  0.50402  0.07383  0.50402  1.0000 0.8281293251
Cu  Cu3       1.0  0.07383  0.50402  0.50402  1.0000 0.8281293251
Cu  Cu4       1.0  0.49598  0.92617  0.49598  1.0000 0.8281293251
Cu  Cu5       1.0  0.49598  0.49598  0.92617  1.0000 0.8281293251
Cu  Cu6       1.0  0.92617  0.49598  0.49598  1.0000 0.8281293251
H   H1        1.0  0.21110  0.54080  0.99730  1.0000 0.1387274303
H   H2        1.0  0.54080  0.99730  0.21110  1.0000 0.1387274303
H   H3        1.0  0.99730  0.21110  0.54080  1.0000 0.1387274303
H   H4        1.0  0.78890  0.00270  0.45920  1.0000 0.1387274303
H   H5        1.0  0.45920  0.78890  0.00270  1.0000 0.1387274303
H   H6        1.0  0.00270  0.45920  0.78890  1.0000 0.1387274303
H   H7        1.0  0.78890  0.45920  0.00270  1.0000 0.1387274303
H   H8        1.0  0.45920  0.00270  0.78890  1.0000 0.1387274303
H   H9        1.0  0.00270  0.78890  0.45920  1.0000 0.1387274303
H   H10       1.0  0.21110  0.99730  0.54080  1.0000 0.1387274303
H   H11       1.0  0.54080  0.21110  0.99730  1.0000 0.1387274303
H   H12       1.0  0.99730  0.54080  0.21110  1.0000 0.1387274303
H   H13       1.0  0.02965  0.71300  0.02965  1.0000 0.3435315627
H   H14       1.0  0.22995  0.52630  0.22995  1.0000 0.1455219401
H   H15       1.0  0.10650  0.39880  0.10650  1.0000 0.109924648
H   H16       1.0  0.91145  0.72170  0.91145  1.0000 0.1346611965
H   H17       1.0  0.71300  0.02965  0.02965  1.0000 0.3435315627
H   H18       1.0  0.52630  0.22995  0.22995  1.0000 0.1455219401
H   H19       1.0  0.39880  0.10650  0.10650  1.0000 0.109924648
H   H20       1.0  0.72170  0.91145  0.91145  1.0000 0.1346611965
H   H21       1.0  0.02965  0.02965  0.71300  1.0000 0.3435315627
H   H22       1.0  0.22995  0.22995  0.52630  1.0000 0.1455219401
H   H23       1.0  0.10650  0.10650  0.39880  1.0000 0.109924648
H   H24       1.0  0.91145  0.91145  0.72170  1.0000 0.1346611965
H   H25       1.0  0.97035  0.97035  0.28700  1.0000 0.3435315627
H   H26       1.0  0.77005  0.77005  0.47370  1.0000 0.1455219401
H   H27       1.0  0.89350  0.89350  0.60120  1.0000 0.109924648
H   H28       1.0  0.08855  0.08855  0.27830  1.0000 0.1346611965
H   H29       1.0  0.28700  0.97035  0.97035  1.0000 0.3435315627
H   H30       1.0  0.47370  0.77005  0.77005  1.0000 0.1455219401
H   H31       1.0  0.60120  0.89350  0.89350  1.0000 0.109924648
H   H32       1.0  0.27830  0.08855  0.08855  1.0000 0.1346611965
H   H33       1.0  0.97035  0.28700  0.97035  1.0000 0.3435315627
H   H34       1.0  0.77005  0.47370  0.77005  1.0000 0.1455219401
H   H35       1.0  0.89350  0.60120  0.89350  1.0000 0.109924648
H   H36       1.0  0.08855  0.27830  0.08855  1.0000 0.1346611965
C   C1        1.0  0.33660  0.52050  0.06640  1.0000 0.5761420864
C   C2        1.0  0.23619  0.53229  0.10819  1.0000 -0.0008001973
C   C3        1.0  0.18380  0.54260  0.05610  1.0000 -0.1678988648
C   C4        1.0  0.52050  0.06640  0.33660  1.0000 0.5761420864
C   C5        1.0  0.53229  0.10819  0.23619  1.0000 -0.0008001973
C   C6        1.0  0.54260  0.05610  0.18380  1.0000 -0.1678988648
C   C7        1.0  0.06640  0.33660  0.52050  1.0000 0.5761420864
C   C8        1.0  0.10819  0.23619  0.53229  1.0000 -0.0008001973
C   C9        1.0  0.05610  0.18380  0.54260  1.0000 -0.1678988648
C   C10       1.0  0.66340  0.93360  0.47950  1.0000 0.5761420864
C   C11       1.0  0.76381  0.89181  0.46771  1.0000 -0.0008001973
C   C12       1.0  0.81620  0.94390  0.45740  1.0000 -0.1678988648
C   C13       1.0  0.47950  0.66340  0.93360  1.0000 0.5761420864
C   C14       1.0  0.46771  0.76381  0.89181  1.0000 -0.0008001973
C   C15       1.0  0.45740  0.81620  0.94390  1.0000 -0.1678988648
C   C16       1.0  0.93360  0.47950  0.66340  1.0000 0.5761420864
C   C17       1.0  0.89181  0.46771  0.76381  1.0000 -0.0008001973
C   C18       1.0  0.94390  0.45740  0.81620  1.0000 -0.1678988648
C   C19       1.0  0.66340  0.47950  0.93360  1.0000 0.5761420864
C   C20       1.0  0.76381  0.46771  0.89181  1.0000 -0.0008001973
C   C21       1.0  0.81620  0.45740  0.94390  1.0000 -0.1678988648
C   C22       1.0  0.47950  0.93360  0.66340  1.0000 0.5761420864
C   C23       1.0  0.46771  0.89181  0.76381  1.0000 -0.0008001973
C   C24       1.0  0.45740  0.94390  0.81620  1.0000 -0.1678988648
C   C25       1.0  0.93360  0.66340  0.47950  1.0000 0.5761420864
C   C26       1.0  0.89181  0.76381  0.46771  1.0000 -0.0008001973
C   C27       1.0  0.94390  0.81620  0.45740  1.0000 -0.1678988648
C   C28       1.0  0.33660  0.06640  0.52050  1.0000 0.5761420864
C   C29       1.0  0.23619  0.10819  0.53229  1.0000 -0.0008001973
C   C30       1.0  0.18380  0.05610  0.54260  1.0000 -0.1678988648
C   C31       1.0  0.52050  0.33660  0.06640  1.0000 0.5761420864
C   C32       1.0  0.53229  0.23619  0.10819  1.0000 -0.0008001973
C   C33       1.0  0.54260  0.18380  0.05610  1.0000 -0.1678988648
C   C34       1.0  0.06640  0.52050  0.33660  1.0000 0.5761420864
C   C35       1.0  0.10819  0.53229  0.23619  1.0000 -0.0008001973
C   C36       1.0  0.05610  0.54260  0.18380  1.0000 -0.1678988648
C   C37       1.0  0.19645  0.52970  0.19645  1.0000 -0.1127345934
C   C38       1.0  0.09180  0.55570  0.09180  1.0000 0.0795221863
C   C39       1.0  0.07175  0.40770  0.07175  1.0000 -0.1441326928
C   C40       1.0  0.02525  0.49740  0.02525  1.0000 0.0453368302
C   C41       1.0  0.03255  0.57130  0.03255  1.0000 -0.0901435166
C   C42       1.0  0.99190  0.64870  0.99190  1.0000 0.2061143779
C   C43       1.0  0.93940  0.66340  0.93940  1.0000 -0.1920455781
C   C44       1.0  0.52970  0.19645  0.19645  1.0000 -0.1127345934
C   C45       1.0  0.55570  0.09180  0.09180  1.0000 0.0795221863
C   C46       1.0  0.40770  0.07175  0.07175  1.0000 -0.1441326928
C   C47       1.0  0.49740  0.02525  0.02525  1.0000 0.0453368302
C   C48       1.0  0.57130  0.03255  0.03255  1.0000 -0.0901435166
C   C49       1.0  0.64870  0.99190  0.99190  1.0000 0.2061143779
C   C50       1.0  0.66340  0.93940  0.93940  1.0000 -0.1920455781
C   C51       1.0  0.19645  0.19645  0.52970  1.0000 -0.1127345934
C   C52       1.0  0.09180  0.09180  0.55570  1.0000 0.0795221863
C   C53       1.0  0.07175  0.07175  0.40770  1.0000 -0.1441326928
C   C54       1.0  0.02525  0.02525  0.49740  1.0000 0.0453368302
C   C55       1.0  0.03255  0.03255  0.57130  1.0000 -0.0901435166
C   C56       1.0  0.99190  0.99190  0.64870  1.0000 0.2061143779
C   C57       1.0  0.93940  0.93940  0.66340  1.0000 -0.1920455781
C   C58       1.0  0.80355  0.80355  0.47030  1.0000 -0.1127345934
C   C59       1.0  0.90820  0.90820  0.44430  1.0000 0.0795221863
C   C60       1.0  0.92825  0.92825  0.59230  1.0000 -0.1441326928
C   C61       1.0  0.97475  0.97475  0.50260  1.0000 0.0446866739
C   C62       1.0  0.96745  0.96745  0.42870  1.0000 -0.0901435166
C   C63       1.0  0.00810  0.00810  0.35130  1.0000 0.2061143779
C   C64       1.0  0.06060  0.06060  0.33660  1.0000 -0.1920455781
C   C65       1.0  0.47030  0.80355  0.80355  1.0000 -0.1127345934
C   C66       1.0  0.44430  0.90820  0.90820  1.0000 0.0795221863
C   C67       1.0  0.59230  0.92825  0.92825  1.0000 -0.1463200015
C   C68       1.0  0.50260  0.97475  0.97475  1.0000 0.0453368302
C   C69       1.0  0.42870  0.96745  0.96745  1.0000 -0.0901435166
C   C70       1.0  0.35130  0.00810  0.00810  1.0000 0.2061143779
C   C71       1.0  0.33660  0.06060  0.06060  1.0000 -0.1920455781
C   C72       1.0  0.80355  0.47030  0.80355  1.0000 -0.1127345934
C   C73       1.0  0.90820  0.44430  0.90820  1.0000 0.0795221863
C   C74       1.0  0.92825  0.59230  0.92825  1.0000 -0.1441326928
C   C75       1.0  0.97475  0.50260  0.97475  1.0000 0.0446866739
C   C76       1.0  0.96745  0.42870  0.96745  1.0000 -0.0901435166
C   C77       1.0  0.00810  0.35130  0.00810  1.0000 0.2061143779
C   C78       1.0  0.06060  0.33660  0.06060  1.0000 -0.1920455781
O   O1        1.0  0.37438  0.52228  0.11258  1.0000 -0.4844473378
O   O2        1.0  0.36820  0.51680  0.98810  1.0000 -0.5091553243
O   O3        1.0  0.52228  0.11258  0.37438  1.0000 -0.4844473378
O   O4        1.0  0.51680  0.98810  0.36820  1.0000 -0.5091553243
O   O5        1.0  0.11258  0.37438  0.52228  1.0000 -0.4844473378
O   O6        1.0  0.98810  0.36820  0.51680  1.0000 -0.5091553243
O   O7        1.0  0.62562  0.88742  0.47772  1.0000 -0.4859765452
O   O8        1.0  0.63180  0.01190  0.48320  1.0000 -0.5091553243
O   O9        1.0  0.47772  0.62562  0.88742  1.0000 -0.4844473378
O   O10       1.0  0.48320  0.63180  0.01190  1.0000 -0.5091553243
O   O11       1.0  0.88742  0.47772  0.62562  1.0000 -0.4859765452
O   O12       1.0  0.01190  0.48320  0.63180  1.0000 -0.5091553243
O   O13       1.0  0.62562  0.47772  0.88742  1.0000 -0.4844473378
O   O14       1.0  0.63180  0.48320  0.01190  1.0000 -0.5091553243
O   O15       1.0  0.47772  0.88742  0.62562  1.0000 -0.4859765452
O   O16       1.0  0.48320  0.01190  0.63180  1.0000 -0.5091553243
O   O17       1.0  0.88742  0.62562  0.47772  1.0000 -0.4859765452
O   O18       1.0  0.01190  0.63180  0.48320  1.0000 -0.5091553243
O   O19       1.0  0.37438  0.11258  0.52228  1.0000 -0.4844473378
O   O20       1.0  0.36820  0.98810  0.51680  1.0000 -0.5091553243
O   O21       1.0  0.52228  0.37438  0.11258  1.0000 -0.4844473378
O   O22       1.0  0.51680  0.36820  0.98810  1.0000 -0.5091553243
O   O23       1.0  0.11258  0.52228  0.37438  1.0000 -0.4859765452
O   O24       1.0  0.98810  0.51680  0.36820  1.0000 -0.5091553243
O   O25       1.0  0.99785  0.72740  0.99785  1.0000 -0.4574176472
O   O26       1.0  0.72740  0.99785  0.99785  1.0000 -0.4574176472
O   O27       1.0  0.99785  0.99785  0.72740  1.0000 -0.4574176472
O   O28       1.0  0.00215  0.00215  0.27260  1.0000 -0.4574176472
O   O29       1.0  0.27260  0.00215  0.00215  1.0000 -0.4574176472
O   O30       1.0  0.00215  0.27260  0.00215  1.0000 -0.4547057313
