# DDEC6 charges by PACMAN v1.1 (https://github.com/mtap-research/PACMAN-charge/)
data_2017[Zn][sql]2[ASR]7
_chemical_formula_sum              "Zn4 H108 C148 N12 O24"
_cell_length_a       13.0893
_cell_length_b       8.9978
_cell_length_c       31.5216
_cell_angle_alpha    90
_cell_angle_beta     102.96
_cell_angle_gamma    90

_symmetry_space_group_name_H-M    "P 1"
_symmetry_Int_Tables_number       1

loop_
  _symmetry_equiv_pos_as_xyz
  'x, y, z'

loop_
  _atom_site_type_symbol
  _atom_site_label
  _atom_site_symmetry_multiplicity
  _atom_site_fract_x
  _atom_site_fract_y
  _atom_site_fract_z
  _atom_site_occupancy
  _atom_site_charge
Zn  Zn1       1.0  0.71691  0.12402  0.00716  1.0000 0.7393016105
Zn  Zn2       1.0  0.71691  0.87598  0.50716  1.0000 0.7393016105
Zn  Zn3       1.0  0.28309  0.12402  0.49284  1.0000 0.7393016105
Zn  Zn4       1.0  0.28309  0.87598  0.99284  1.0000 0.7393016105
H   H1        1.0  0.51970  0.87200  0.87740  1.0000 0.1110872065
H   H2        1.0  0.81680  0.98580  0.88350  1.0000 0.1186041495
H   H3        1.0  0.51850  0.72710  0.81760  1.0000 0.1186041495
H   H4        1.0  0.81660  0.84770  0.82220  1.0000 0.1186041495
H   H5        1.0  0.63180  0.48190  0.79990  1.0000 0.1186041495
H   H6        1.0  0.72190  0.68350  0.67860  1.0000 0.1186041495
H   H7        1.0  0.84130  0.48970  0.66450  1.0000 0.1186041495
H   H8        1.0  0.87160  0.34610  0.60770  1.0000 0.1110872065
H   H9        1.0  0.60490  0.12420  0.60350  1.0000 0.1186041495
H   H10       1.0  0.57330  0.26940  0.65950  1.0000 0.1110872065
H   H11       1.0  0.67420  0.91680  0.67500  1.0000 0.1186041495
H   H12       1.0  0.71970  0.05870  0.70140  1.0000 0.1295736554
H   H13       1.0  0.79520  0.93070  0.69410  1.0000 0.1295736554
H   H14       1.0  0.57070  0.24850  0.79000  1.0000 0.1186041495
H   H15       1.0  0.63350  0.10900  0.78040  1.0000 0.1295736554
H   H16       1.0  0.69300  0.24420  0.80600  1.0000 0.1186041495
H   H17       1.0  0.68240  0.32860  0.07840  1.0000 0.0999707633
H   H18       1.0  0.49560  0.22620  0.96780  1.0000 0.1110872065
H   H19       1.0  0.35680  0.32680  0.98900  1.0000 0.1295736554
H   H20       1.0  0.54880  0.44100  0.10160  1.0000 0.1295736554
H   H21       1.0  0.41690  0.61750  0.10060  1.0000 0.0999707633
H   H22       1.0  0.23530  0.30680  0.03120  1.0000 0.1295736554
H   H23       1.0  0.12660  0.59320  0.10700  1.0000 0.1110872065
H   H24       1.0  0.10200  0.16810  0.04110  1.0000 0.1470704263
H   H25       1.0  0.97020  0.55720  0.05680  1.0000 0.137461893
H   H26       1.0  0.80800  0.44680  0.03450  1.0000 0.0999707633
H   H27       1.0  0.93790  0.06590  0.02190  1.0000 0.1186041495
H   H28       1.0  0.51970  0.12800  0.37740  1.0000 0.1110872065
H   H29       1.0  0.81680  0.01420  0.38350  1.0000 0.1186041495
H   H30       1.0  0.51850  0.27290  0.31760  1.0000 0.1186041495
H   H31       1.0  0.81660  0.15230  0.32220  1.0000 0.1186041495
H   H32       1.0  0.63180  0.51810  0.29990  1.0000 0.1186041495
H   H33       1.0  0.72190  0.31650  0.17860  1.0000 0.1186041495
H   H34       1.0  0.84130  0.51030  0.16450  1.0000 0.1186041495
H   H35       1.0  0.87160  0.65390  0.10770  1.0000 0.1110872065
H   H36       1.0  0.60490  0.87580  0.10350  1.0000 0.1186041495
H   H37       1.0  0.57330  0.73060  0.15950  1.0000 0.1110872065
H   H38       1.0  0.67420  0.08320  0.17500  1.0000 0.1186041495
H   H39       1.0  0.71970  0.94130  0.20140  1.0000 0.1295736554
H   H40       1.0  0.79520  0.06930  0.19410  1.0000 0.1295736554
H   H41       1.0  0.57070  0.75150  0.29000  1.0000 0.1186041495
H   H42       1.0  0.63350  0.89100  0.28040  1.0000 0.1295736554
H   H43       1.0  0.69300  0.75580  0.30600  1.0000 0.1186041495
H   H44       1.0  0.68240  0.67140  0.57840  1.0000 0.0999707633
H   H45       1.0  0.49560  0.77380  0.46780  1.0000 0.1110872065
H   H46       1.0  0.35680  0.67320  0.48900  1.0000 0.1295736554
H   H47       1.0  0.54880  0.55900  0.60160  1.0000 0.1295736554
H   H48       1.0  0.41690  0.38250  0.60060  1.0000 0.0999707633
H   H49       1.0  0.23530  0.69320  0.53120  1.0000 0.1295736554
H   H50       1.0  0.12660  0.40680  0.60700  1.0000 0.1110872065
H   H51       1.0  0.10200  0.83190  0.54110  1.0000 0.1470704263
H   H52       1.0  0.97020  0.44280  0.55680  1.0000 0.137461893
H   H53       1.0  0.80800  0.55320  0.53450  1.0000 0.0999707633
H   H54       1.0  0.93790  0.93410  0.52190  1.0000 0.1186041495
H   H55       1.0  0.48030  0.87200  0.62260  1.0000 0.1110872065
H   H56       1.0  0.18320  0.98580  0.61650  1.0000 0.1186041495
H   H57       1.0  0.48150  0.72710  0.68240  1.0000 0.1186041495
H   H58       1.0  0.18340  0.84770  0.67780  1.0000 0.1186041495
H   H59       1.0  0.36820  0.48190  0.70010  1.0000 0.1186041495
H   H60       1.0  0.27810  0.68350  0.82140  1.0000 0.1186041495
H   H61       1.0  0.15870  0.48970  0.83550  1.0000 0.1186041495
H   H62       1.0  0.12840  0.34610  0.89230  1.0000 0.1110872065
H   H63       1.0  0.39510  0.12420  0.89650  1.0000 0.1186041495
H   H64       1.0  0.42670  0.26940  0.84050  1.0000 0.1110872065
H   H65       1.0  0.32580  0.91680  0.82500  1.0000 0.1186041495
H   H66       1.0  0.28030  0.05870  0.79860  1.0000 0.1295736554
H   H67       1.0  0.20480  0.93070  0.80590  1.0000 0.1295736554
H   H68       1.0  0.42930  0.24850  0.71000  1.0000 0.1186041495
H   H69       1.0  0.36650  0.10900  0.71960  1.0000 0.1295736554
H   H70       1.0  0.30700  0.24420  0.69400  1.0000 0.1186041495
H   H71       1.0  0.31760  0.32860  0.42160  1.0000 0.0999707633
H   H72       1.0  0.50440  0.22620  0.53220  1.0000 0.1110872065
H   H73       1.0  0.64320  0.32680  0.51100  1.0000 0.1295736554
H   H74       1.0  0.45120  0.44100  0.39840  1.0000 0.1295736554
H   H75       1.0  0.58310  0.61750  0.39940  1.0000 0.0999707633
H   H76       1.0  0.76470  0.30680  0.46880  1.0000 0.1295736554
H   H77       1.0  0.87340  0.59320  0.39300  1.0000 0.1110872065
H   H78       1.0  0.89800  0.16810  0.45890  1.0000 0.1470704263
H   H79       1.0  0.02980  0.55720  0.44320  1.0000 0.137461893
H   H80       1.0  0.19200  0.44680  0.46550  1.0000 0.0999707633
H   H81       1.0  0.06210  0.06590  0.47810  1.0000 0.1186041495
H   H82       1.0  0.48030  0.12800  0.12260  1.0000 0.1110872065
H   H83       1.0  0.18320  0.01420  0.11650  1.0000 0.1186041495
H   H84       1.0  0.48150  0.27290  0.18240  1.0000 0.1186041495
H   H85       1.0  0.18340  0.15230  0.17780  1.0000 0.1186041495
H   H86       1.0  0.36820  0.51810  0.20010  1.0000 0.1186041495
H   H87       1.0  0.27810  0.31650  0.32140  1.0000 0.1186041495
H   H88       1.0  0.15870  0.51030  0.33550  1.0000 0.1186041495
H   H89       1.0  0.12840  0.65390  0.39230  1.0000 0.1110872065
H   H90       1.0  0.39510  0.87580  0.39650  1.0000 0.1186041495
H   H91       1.0  0.42670  0.73060  0.34050  1.0000 0.1110872065
H   H92       1.0  0.32580  0.08320  0.32500  1.0000 0.1186041495
H   H93       1.0  0.28030  0.94130  0.29860  1.0000 0.1295736554
H   H94       1.0  0.20480  0.06930  0.30590  1.0000 0.1295736554
H   H95       1.0  0.42930  0.75150  0.21000  1.0000 0.1186041495
H   H96       1.0  0.36650  0.89100  0.21960  1.0000 0.1295736554
H   H97       1.0  0.30700  0.75580  0.19400  1.0000 0.1186041495
H   H98       1.0  0.31760  0.67140  0.92160  1.0000 0.0999707633
H   H99       1.0  0.50440  0.77380  0.03220  1.0000 0.1110872065
H   H100      1.0  0.64320  0.67320  0.01100  1.0000 0.1295736554
H   H101      1.0  0.45120  0.55900  0.89840  1.0000 0.1295736554
H   H102      1.0  0.58310  0.38250  0.89940  1.0000 0.0999707633
H   H103      1.0  0.76470  0.69320  0.96880  1.0000 0.1295736554
H   H104      1.0  0.87340  0.40680  0.89300  1.0000 0.1110872065
H   H105      1.0  0.89800  0.83190  0.95890  1.0000 0.1470704263
H   H106      1.0  0.02980  0.44280  0.94320  1.0000 0.137461893
H   H107      1.0  0.19200  0.55320  0.96550  1.0000 0.0999707633
H   H108      1.0  0.06210  0.93410  0.97810  1.0000 0.1186041495
C   C1        1.0  0.67260  0.01600  0.93012  1.0000 0.5193785166
C   C2        1.0  0.66870  0.93890  0.88793  1.0000 -0.0277149605
C   C3        1.0  0.58040  0.86430  0.86684  1.0000 -0.1190965184
C   C4        1.0  0.75700  0.93300  0.87031  1.0000 -0.1127023513
C   C5        1.0  0.57890  0.77880  0.83065  1.0000 -0.1583303476
C   C6        1.0  0.75700  0.85000  0.83360  1.0000 -0.1475167587
C   C7        1.0  0.66870  0.76960  0.81346  1.0000 0.0999707633
C   C8        1.0  0.67200  0.67480  0.77486  1.0000 -0.0277149605
C   C9        1.0  0.69770  0.73460  0.73811  1.0000 0.1892851328
C   C10       1.0  0.65130  0.52230  0.77576  1.0000 -0.26909275
C   C11       1.0  0.70490  0.64250  0.70326  1.0000 -0.291287374
C   C12       1.0  0.65930  0.43070  0.74162  1.0000 0.1892851328
C   C13       1.0  0.68710  0.49000  0.70480  1.0000 -0.0277149605
C   C14       1.0  0.70490  0.39580  0.66841  1.0000 0.0810968911
C   C15       1.0  0.79320  0.41680  0.65241  1.0000 -0.1583303476
C   C16       1.0  0.81160  0.32990  0.61817  1.0000 -0.1190965184
C   C17       1.0  0.74190  0.22020  0.59972  1.0000 -0.0277149605
C   C18       1.0  0.65250  0.19770  0.61554  1.0000 -0.1190965184
C   C19       1.0  0.63390  0.28480  0.64934  1.0000 -0.1700527037
C   C20       1.0  0.76380  0.12570  0.56327  1.0000 0.5445823556
C   C21       1.0  0.72700  0.95310  0.69900  1.0000 -0.2324088021
C   C22       1.0  0.63480  0.21520  0.78320  1.0000 -0.2324088021
C   C23       1.0  0.61590  0.32890  0.06008  1.0000 0.068776462
C   C24       1.0  0.50620  0.26780  0.99542  1.0000 0.089101631
C   C25       1.0  0.42250  0.32820  0.00789  1.0000 -0.1700527037
C   C26       1.0  0.53580  0.39460  0.07456  1.0000 -0.200341318
C   C27       1.0  0.43450  0.39170  0.04855  1.0000 0.1186041495
C   C28       1.0  0.34380  0.45060  0.06402  1.0000 0.0223138305
C   C29       1.0  0.35200  0.57110  0.09233  1.0000 0.0223138305
C   C30       1.0  0.24520  0.38570  0.05075  1.0000 -0.1408223134
C   C31       1.0  0.18180  0.55800  0.09570  1.0000 0.0223138305
C   C32       1.0  0.16170  0.43880  0.06675  1.0000 0.0306423416
C   C33       1.0  0.05590  0.37060  0.05320  1.0000 0.1186041495
C   C34       1.0  0.04360  0.22670  0.04140  1.0000 -0.1700527037
C   C35       1.0  0.96520  0.45640  0.05020  1.0000 -0.200341318
C   C36       1.0  0.86780  0.38860  0.03719  1.0000 0.0593595437
C   C37       1.0  0.94380  0.16600  0.02950  1.0000 0.0999707633
C   C38       1.0  0.67260  0.98400  0.43012  1.0000 0.5193785166
C   C39       1.0  0.66870  0.06110  0.38793  1.0000 -0.0277149605
C   C40       1.0  0.58040  0.13570  0.36684  1.0000 -0.1190965184
C   C41       1.0  0.75700  0.06700  0.37031  1.0000 -0.1127023513
C   C42       1.0  0.57890  0.22120  0.33065  1.0000 -0.1583303476
C   C43       1.0  0.75700  0.15000  0.33360  1.0000 -0.1475167587
C   C44       1.0  0.66870  0.23040  0.31346  1.0000 0.0999707633
C   C45       1.0  0.67200  0.32520  0.27486  1.0000 -0.0277149605
C   C46       1.0  0.69770  0.26540  0.23811  1.0000 0.1892851328
C   C47       1.0  0.65130  0.47770  0.27576  1.0000 -0.26909275
C   C48       1.0  0.70490  0.35750  0.20326  1.0000 -0.291287374
C   C49       1.0  0.65930  0.56930  0.24162  1.0000 0.1892851328
C   C50       1.0  0.68710  0.51000  0.20480  1.0000 -0.0277149605
C   C51       1.0  0.70490  0.60420  0.16841  1.0000 0.0810968911
C   C52       1.0  0.79320  0.58320  0.15241  1.0000 -0.1583303476
C   C53       1.0  0.81160  0.67010  0.11817  1.0000 -0.1190965184
C   C54       1.0  0.74190  0.77980  0.09972  1.0000 -0.0277149605
C   C55       1.0  0.65250  0.80230  0.11554  1.0000 -0.1190965184
C   C56       1.0  0.63390  0.71520  0.14934  1.0000 -0.1700527037
C   C57       1.0  0.76380  0.87430  0.06327  1.0000 0.5445823556
C   C58       1.0  0.72700  0.04690  0.19900  1.0000 -0.2324088021
C   C59       1.0  0.63480  0.78480  0.28320  1.0000 -0.2324088021
C   C60       1.0  0.61590  0.67110  0.56008  1.0000 0.068776462
C   C61       1.0  0.50620  0.73220  0.49542  1.0000 0.089101631
C   C62       1.0  0.42250  0.67180  0.50789  1.0000 -0.1700527037
C   C63       1.0  0.53580  0.60540  0.57456  1.0000 -0.200341318
C   C64       1.0  0.43450  0.60830  0.54855  1.0000 0.1186041495
C   C65       1.0  0.34380  0.54940  0.56402  1.0000 0.0223138305
C   C66       1.0  0.35200  0.42890  0.59233  1.0000 0.0223138305
C   C67       1.0  0.24520  0.61430  0.55075  1.0000 -0.1475167587
C   C68       1.0  0.18180  0.44200  0.59570  1.0000 0.0223138305
C   C69       1.0  0.16170  0.56120  0.56675  1.0000 0.0306423416
C   C70       1.0  0.05590  0.62940  0.55320  1.0000 0.1186041495
C   C71       1.0  0.04360  0.77330  0.54140  1.0000 -0.1700527037
C   C72       1.0  0.96520  0.54360  0.55020  1.0000 -0.200341318
C   C73       1.0  0.86780  0.61140  0.53719  1.0000 0.0593595437
C   C74       1.0  0.94380  0.83400  0.52950  1.0000 0.0999707633
C   C75       1.0  0.32740  0.01600  0.56988  1.0000 0.5193785166
C   C76       1.0  0.33130  0.93890  0.61207  1.0000 -0.0277149605
C   C77       1.0  0.41960  0.86430  0.63316  1.0000 -0.1190965184
C   C78       1.0  0.24300  0.93300  0.62969  1.0000 -0.1127023513
C   C79       1.0  0.42110  0.77880  0.66935  1.0000 -0.1583303476
C   C80       1.0  0.24300  0.85000  0.66640  1.0000 -0.1475167587
C   C81       1.0  0.33130  0.76960  0.68654  1.0000 0.0999707633
C   C82       1.0  0.32800  0.67480  0.72514  1.0000 -0.0277149605
C   C83       1.0  0.30230  0.73460  0.76189  1.0000 0.1892851328
C   C84       1.0  0.34870  0.52230  0.72424  1.0000 -0.26909275
C   C85       1.0  0.29510  0.64250  0.79674  1.0000 -0.291287374
C   C86       1.0  0.34070  0.43070  0.75838  1.0000 0.1892851328
C   C87       1.0  0.31290  0.49000  0.79520  1.0000 -0.0277149605
C   C88       1.0  0.29510  0.39580  0.83159  1.0000 0.0810968911
C   C89       1.0  0.20680  0.41680  0.84759  1.0000 -0.1583303476
C   C90       1.0  0.18840  0.32990  0.88183  1.0000 -0.1190965184
C   C91       1.0  0.25810  0.22020  0.90028  1.0000 -0.0277149605
C   C92       1.0  0.34750  0.19770  0.88446  1.0000 -0.1190965184
C   C93       1.0  0.36610  0.28480  0.85066  1.0000 -0.1700527037
C   C94       1.0  0.23620  0.12570  0.93673  1.0000 0.5445823556
C   C95       1.0  0.27300  0.95310  0.80100  1.0000 -0.2324088021
C   C96       1.0  0.36520  0.21520  0.71680  1.0000 -0.2324088021
C   C97       1.0  0.38410  0.32890  0.43992  1.0000 0.068776462
C   C98       1.0  0.49380  0.26780  0.50458  1.0000 0.089101631
C   C99       1.0  0.57750  0.32820  0.49211  1.0000 -0.1700527037
C   C100      1.0  0.46420  0.39460  0.42544  1.0000 -0.200341318
C   C101      1.0  0.56550  0.39170  0.45145  1.0000 0.1186041495
C   C102      1.0  0.65620  0.45060  0.43598  1.0000 0.0223138305
C   C103      1.0  0.64800  0.57110  0.40767  1.0000 0.0223138305
C   C104      1.0  0.75480  0.38570  0.44925  1.0000 -0.1408223134
C   C105      1.0  0.81820  0.55800  0.40430  1.0000 0.0223138305
C   C106      1.0  0.83830  0.43880  0.43325  1.0000 0.0306423416
C   C107      1.0  0.94410  0.37060  0.44680  1.0000 0.1186041495
C   C108      1.0  0.95640  0.22670  0.45860  1.0000 -0.1700527037
C   C109      1.0  0.03480  0.45640  0.44980  1.0000 -0.200341318
C   C110      1.0  0.13220  0.38860  0.46281  1.0000 0.0593595437
C   C111      1.0  0.05620  0.16600  0.47050  1.0000 0.0999707633
C   C112      1.0  0.32740  0.98400  0.06988  1.0000 0.5193785166
C   C113      1.0  0.33130  0.06110  0.11207  1.0000 -0.0277149605
C   C114      1.0  0.41960  0.13570  0.13316  1.0000 -0.1190965184
C   C115      1.0  0.24300  0.06700  0.12969  1.0000 -0.1127023513
C   C116      1.0  0.42110  0.22120  0.16935  1.0000 -0.1583303476
C   C117      1.0  0.24300  0.15000  0.16640  1.0000 -0.1475167587
C   C118      1.0  0.33130  0.23040  0.18654  1.0000 0.0999707633
C   C119      1.0  0.32800  0.32520  0.22514  1.0000 -0.0277149605
C   C120      1.0  0.30230  0.26540  0.26189  1.0000 0.1892851328
C   C121      1.0  0.34870  0.47770  0.22424  1.0000 -0.26909275
C   C122      1.0  0.29510  0.35750  0.29674  1.0000 -0.291287374
C   C123      1.0  0.34070  0.56930  0.25838  1.0000 0.1892851328
C   C124      1.0  0.31290  0.51000  0.29520  1.0000 -0.0277149605
C   C125      1.0  0.29510  0.60420  0.33159  1.0000 0.0810968911
C   C126      1.0  0.20680  0.58320  0.34759  1.0000 -0.1583303476
C   C127      1.0  0.18840  0.67010  0.38183  1.0000 -0.1190965184
C   C128      1.0  0.25810  0.77980  0.40028  1.0000 -0.0277149605
C   C129      1.0  0.34750  0.80230  0.38446  1.0000 -0.1190965184
C   C130      1.0  0.36610  0.71520  0.35066  1.0000 -0.1700527037
C   C131      1.0  0.23620  0.87430  0.43673  1.0000 0.5445823556
C   C132      1.0  0.27300  0.04690  0.30100  1.0000 -0.2324088021
C   C133      1.0  0.36520  0.78480  0.21680  1.0000 -0.2324088021
C   C134      1.0  0.38410  0.67110  0.93992  1.0000 0.068776462
C   C135      1.0  0.49380  0.73220  0.00458  1.0000 0.089101631
C   C136      1.0  0.57750  0.67180  0.99211  1.0000 -0.1700527037
C   C137      1.0  0.46420  0.60540  0.92544  1.0000 -0.200341318
C   C138      1.0  0.56550  0.60830  0.95145  1.0000 0.1186041495
C   C139      1.0  0.65620  0.54940  0.93598  1.0000 0.0223138305
C   C140      1.0  0.64800  0.42890  0.90767  1.0000 0.0223138305
C   C141      1.0  0.75480  0.61430  0.94925  1.0000 -0.1408223134
C   C142      1.0  0.81820  0.44200  0.90430  1.0000 0.0223138305
C   C143      1.0  0.83830  0.56120  0.93325  1.0000 0.0306423416
C   C144      1.0  0.94410  0.62940  0.94680  1.0000 0.1186041495
C   C145      1.0  0.95640  0.77330  0.95860  1.0000 -0.1700527037
C   C146      1.0  0.03480  0.54360  0.94980  1.0000 -0.200341318
C   C147      1.0  0.13220  0.61140  0.96281  1.0000 0.0593595437
C   C148      1.0  0.05620  0.83400  0.97050  1.0000 0.0999707633
N   N1        1.0  0.60340  0.26490  0.02071  1.0000 -0.2368489519
N   N2        1.0  0.27370  0.62450  0.10831  1.0000 -0.2324088021
N   N3        1.0  0.85620  0.24210  0.02826  1.0000 -0.2324088021
N   N4        1.0  0.60340  0.73510  0.52071  1.0000 -0.2368489519
N   N5        1.0  0.27370  0.37550  0.60831  1.0000 -0.2324088021
N   N6        1.0  0.85620  0.75790  0.52826  1.0000 -0.2368489519
N   N7        1.0  0.39660  0.26490  0.47929  1.0000 -0.2368489519
N   N8        1.0  0.72630  0.62450  0.39169  1.0000 -0.2324088021
N   N9        1.0  0.14380  0.24210  0.47174  1.0000 -0.2324088021
N   N10       1.0  0.39660  0.73510  0.97929  1.0000 -0.2368489519
N   N11       1.0  0.72630  0.37550  0.89169  1.0000 -0.2324088021
N   N12       1.0  0.14380  0.75790  0.97174  1.0000 -0.2368489519
O   O1        1.0  0.59280  0.03970  0.94277  1.0000 -0.5017295594
O   O2        1.0  0.76020  0.05120  0.95322  1.0000 -0.5053297991
O   O3        1.0  0.83170  0.16570  0.54375  1.0000 -0.5710455889
O   O4        1.0  0.70610  0.01170  0.55389  1.0000 -0.5429749007
O   O5        1.0  0.64550  0.28080  0.74301  1.0000 -0.1475167587
O   O6        1.0  0.71520  0.88420  0.73767  1.0000 -0.1408223134
O   O7        1.0  0.59280  0.96030  0.44277  1.0000 -0.5017295594
O   O8        1.0  0.76020  0.94880  0.45322  1.0000 -0.5053297991
O   O9        1.0  0.83170  0.83430  0.04375  1.0000 -0.5710455889
O   O10       1.0  0.70610  0.98830  0.05389  1.0000 -0.5429749007
O   O11       1.0  0.64550  0.71920  0.24301  1.0000 -0.1475167587
O   O12       1.0  0.71520  0.11580  0.23767  1.0000 -0.1408223134
O   O13       1.0  0.40720  0.03970  0.55723  1.0000 -0.5017295594
O   O14       1.0  0.23980  0.05120  0.54678  1.0000 -0.5053297991
O   O15       1.0  0.16830  0.16570  0.95625  1.0000 -0.5710455889
O   O16       1.0  0.29390  0.01170  0.94611  1.0000 -0.5429749007
O   O17       1.0  0.35450  0.28080  0.75699  1.0000 -0.1475167587
O   O18       1.0  0.28480  0.88420  0.76233  1.0000 -0.1408223134
O   O19       1.0  0.40720  0.96030  0.05723  1.0000 -0.5017295594
O   O20       1.0  0.23980  0.94880  0.04678  1.0000 -0.5053297991
O   O21       1.0  0.16830  0.83430  0.45625  1.0000 -0.5710455889
O   O22       1.0  0.29390  0.98830  0.44611  1.0000 -0.5429749007
O   O23       1.0  0.35450  0.71920  0.25699  1.0000 -0.1475167587
O   O24       1.0  0.28480  0.11580  0.26233  1.0000 -0.1408223134
