# DDEC6 charges by PACMAN v1.1 (https://github.com/mtap-research/PACMAN-charge/)
data_2017[Zr][scu]3[ASR]4
_chemical_formula_sum              "Zr12 H104 C168 O56"
_cell_length_a       15.7268
_cell_length_b       19.7752
_cell_length_c       35.2146
_cell_angle_alpha    90
_cell_angle_beta     90
_cell_angle_gamma    90

_symmetry_space_group_name_H-M    "P 1"
_symmetry_Int_Tables_number       1

loop_
  _symmetry_equiv_pos_as_xyz
  'x, y, z'

loop_
  _atom_site_type_symbol
  _atom_site_label
  _atom_site_symmetry_multiplicity
  _atom_site_fract_x
  _atom_site_fract_y
  _atom_site_fract_z
  _atom_site_occupancy
  _atom_site_charge
Zr  Zr1       1.0  0.38714  0.41038  0.50214  1.0000 2.4815318685
Zr  Zr2       1.0  0.38714  0.58962  0.49786  1.0000 2.4815318685
Zr  Zr3       1.0  0.61286  0.91038  0.99786  1.0000 2.4815318685
Zr  Zr4       1.0  0.61286  0.08962  0.00214  1.0000 2.4815318685
Zr  Zr5       1.0  0.61286  0.58962  0.49786  1.0000 2.4815318685
Zr  Zr6       1.0  0.61286  0.41038  0.50214  1.0000 2.4815318685
Zr  Zr7       1.0  0.38714  0.08962  0.00214  1.0000 2.4815318685
Zr  Zr8       1.0  0.38714  0.91038  0.99786  1.0000 2.4815318685
Zr  Zr9       1.0  0.50000  0.50460  0.56894  1.0000 2.33233882
Zr  Zr10      1.0  0.50000  0.49540  0.43106  1.0000 2.33233882
Zr  Zr11      1.0  0.50000  0.00460  0.93106  1.0000 2.33233882
Zr  Zr12      1.0  0.50000  0.99540  0.06894  1.0000 2.33233882
H   H1        1.0  0.76330  0.70790  0.58870  1.0000 0.1102358632
H   H2        1.0  0.93430  0.72310  0.69310  1.0000 0.1102358632
H   H3        1.0  0.93600  0.80310  0.79750  1.0000 0.1102358632
H   H4        1.0  0.76230  0.80270  0.90320  1.0000 0.1102358632
H   H5        1.0  0.83130  0.75610  0.85080  1.0000 0.1197245122
H   H6        1.0  0.83430  0.76270  0.63910  1.0000 0.1102358632
H   H7        1.0  0.63250  0.93130  0.83390  1.0000 0.1197245122
H   H8        1.0  0.70150  0.88150  0.78170  1.0000 0.1102358632
H   H9        1.0  0.63050  0.59120  0.66240  1.0000 0.1197245122
H   H10       1.0  0.70050  0.64430  0.71260  1.0000 0.1197245122
H   H11       1.0  0.69590  0.84830  0.70980  1.0000 0.1102358632
H   H12       1.0  0.60440  0.84170  0.72940  1.0000 0.1197245122
H   H13       1.0  0.62910  0.79380  0.69450  1.0000 0.1262380879
H   H14       1.0  0.76330  0.29210  0.41130  1.0000 0.1102358632
H   H15       1.0  0.93430  0.27690  0.30690  1.0000 0.1102358632
H   H16       1.0  0.93600  0.19690  0.20250  1.0000 0.1102358632
H   H17       1.0  0.76230  0.19730  0.09680  1.0000 0.1102358632
H   H18       1.0  0.83130  0.24390  0.14920  1.0000 0.1197245122
H   H19       1.0  0.83430  0.23730  0.36090  1.0000 0.1102358632
H   H20       1.0  0.63250  0.06870  0.16610  1.0000 0.1197245122
H   H21       1.0  0.70150  0.11850  0.21830  1.0000 0.1102358632
H   H22       1.0  0.63050  0.40880  0.33760  1.0000 0.1197245122
H   H23       1.0  0.70050  0.35570  0.28740  1.0000 0.1102358632
H   H24       1.0  0.69590  0.15170  0.29020  1.0000 0.1102358632
H   H25       1.0  0.60440  0.15830  0.27060  1.0000 0.1197245122
H   H26       1.0  0.62910  0.20620  0.30550  1.0000 0.1262380879
H   H27       1.0  0.23670  0.20790  0.91130  1.0000 0.1102358632
H   H28       1.0  0.06570  0.22310  0.80690  1.0000 0.1102358632
H   H29       1.0  0.06400  0.30310  0.70250  1.0000 0.1102358632
H   H30       1.0  0.23770  0.30270  0.59680  1.0000 0.1102358632
H   H31       1.0  0.16870  0.25610  0.64920  1.0000 0.1197245122
H   H32       1.0  0.16570  0.26270  0.86090  1.0000 0.1102358632
H   H33       1.0  0.36750  0.43130  0.66610  1.0000 0.1197245122
H   H34       1.0  0.29850  0.38150  0.71830  1.0000 0.1102358632
H   H35       1.0  0.36950  0.09120  0.83760  1.0000 0.1197245122
H   H36       1.0  0.29950  0.14430  0.78740  1.0000 0.1197245122
H   H37       1.0  0.30410  0.34830  0.79020  1.0000 0.1102358632
H   H38       1.0  0.39560  0.34170  0.77060  1.0000 0.1197245122
H   H39       1.0  0.37090  0.29380  0.80550  1.0000 0.1262380879
H   H40       1.0  0.23670  0.79210  0.08870  1.0000 0.1102358632
H   H41       1.0  0.06570  0.77690  0.19310  1.0000 0.1102358632
H   H42       1.0  0.06400  0.69690  0.29750  1.0000 0.1102358632
H   H43       1.0  0.23770  0.69730  0.40320  1.0000 0.1102358632
H   H44       1.0  0.16870  0.74390  0.35080  1.0000 0.1197245122
H   H45       1.0  0.16570  0.73730  0.13910  1.0000 0.1102358632
H   H46       1.0  0.36750  0.56870  0.33390  1.0000 0.1197245122
H   H47       1.0  0.29850  0.61850  0.28170  1.0000 0.1102358632
H   H48       1.0  0.36950  0.90880  0.16240  1.0000 0.1197245122
H   H49       1.0  0.29950  0.85570  0.21260  1.0000 0.1102358632
H   H50       1.0  0.30410  0.65170  0.20980  1.0000 0.1102358632
H   H51       1.0  0.39560  0.65830  0.22940  1.0000 0.1197245122
H   H52       1.0  0.37090  0.70620  0.19450  1.0000 0.1262380879
H   H53       1.0  0.23670  0.29210  0.41130  1.0000 0.1102358632
H   H54       1.0  0.06570  0.27690  0.30690  1.0000 0.1102358632
H   H55       1.0  0.06400  0.19690  0.20250  1.0000 0.1102358632
H   H56       1.0  0.23770  0.19730  0.09680  1.0000 0.1102358632
H   H57       1.0  0.16870  0.24390  0.14920  1.0000 0.1197245122
H   H58       1.0  0.16570  0.23730  0.36090  1.0000 0.1102358632
H   H59       1.0  0.36750  0.06870  0.16610  1.0000 0.1197245122
H   H60       1.0  0.29850  0.11850  0.21830  1.0000 0.1102358632
H   H61       1.0  0.36950  0.40880  0.33760  1.0000 0.1197245122
H   H62       1.0  0.29950  0.35570  0.28740  1.0000 0.1197245122
H   H63       1.0  0.30410  0.15170  0.29020  1.0000 0.1102358632
H   H64       1.0  0.39560  0.15830  0.27060  1.0000 0.1197245122
H   H65       1.0  0.37090  0.20620  0.30550  1.0000 0.1262380879
H   H66       1.0  0.23670  0.70790  0.58870  1.0000 0.1102358632
H   H67       1.0  0.06570  0.72310  0.69310  1.0000 0.1102358632
H   H68       1.0  0.06400  0.80310  0.79750  1.0000 0.1102358632
H   H69       1.0  0.23770  0.80270  0.90320  1.0000 0.1102358632
H   H70       1.0  0.16870  0.75610  0.85080  1.0000 0.1197245122
H   H71       1.0  0.16570  0.76270  0.63910  1.0000 0.1102358632
H   H72       1.0  0.36750  0.93130  0.83390  1.0000 0.1197245122
H   H73       1.0  0.29850  0.88150  0.78170  1.0000 0.1102358632
H   H74       1.0  0.36950  0.59120  0.66240  1.0000 0.1197245122
H   H75       1.0  0.29950  0.64430  0.71260  1.0000 0.1197245122
H   H76       1.0  0.30410  0.84830  0.70980  1.0000 0.1102358632
H   H77       1.0  0.39560  0.84170  0.72940  1.0000 0.1197245122
H   H78       1.0  0.37090  0.79380  0.69450  1.0000 0.1262380879
H   H79       1.0  0.76330  0.79210  0.08870  1.0000 0.1102358632
H   H80       1.0  0.93430  0.77690  0.19310  1.0000 0.1102358632
H   H81       1.0  0.93600  0.69690  0.29750  1.0000 0.1102358632
H   H82       1.0  0.76230  0.69730  0.40320  1.0000 0.1102358632
H   H83       1.0  0.83130  0.74390  0.35080  1.0000 0.1197245122
H   H84       1.0  0.83430  0.73730  0.13910  1.0000 0.1102358632
H   H85       1.0  0.63250  0.56870  0.33390  1.0000 0.1197245122
H   H86       1.0  0.70150  0.61850  0.28170  1.0000 0.1102358632
H   H87       1.0  0.63050  0.90880  0.16240  1.0000 0.1197245122
H   H88       1.0  0.70050  0.85570  0.21260  1.0000 0.1102358632
H   H89       1.0  0.69590  0.65170  0.20980  1.0000 0.1102358632
H   H90       1.0  0.60440  0.65830  0.22940  1.0000 0.1197245122
H   H91       1.0  0.62910  0.70620  0.19450  1.0000 0.1262380879
H   H92       1.0  0.76330  0.20790  0.91130  1.0000 0.1102358632
H   H93       1.0  0.93430  0.22310  0.80690  1.0000 0.1102358632
H   H94       1.0  0.93600  0.30310  0.70250  1.0000 0.1102358632
H   H95       1.0  0.76230  0.30270  0.59680  1.0000 0.1102358632
H   H96       1.0  0.83130  0.25610  0.64920  1.0000 0.1197245122
H   H97       1.0  0.83430  0.26270  0.86090  1.0000 0.1102358632
H   H98       1.0  0.63250  0.43130  0.66610  1.0000 0.1197245122
H   H99       1.0  0.70150  0.38150  0.71830  1.0000 0.1102358632
H   H100      1.0  0.63050  0.09120  0.83760  1.0000 0.1197245122
H   H101      1.0  0.70050  0.14430  0.78740  1.0000 0.1102358632
H   H102      1.0  0.69590  0.34830  0.79020  1.0000 0.1102358632
H   H103      1.0  0.60440  0.34170  0.77060  1.0000 0.1197245122
H   H104      1.0  0.62910  0.29380  0.80550  1.0000 0.1262380879
C   C1        1.0  0.63990  0.61260  0.58969  1.0000 0.6304910432
C   C2        1.0  0.95150  0.76160  0.74595  1.0000 0.0687593657
C   C3        1.0  0.63980  0.90000  0.90520  1.0000 0.6304910432
C   C4        1.0  0.68870  0.86670  0.87328  1.0000 -0.0235533846
C   C5        1.0  0.74940  0.69650  0.61418  1.0000 -0.0983981536
C   C6        1.0  0.90490  0.74000  0.71469  1.0000 -0.1888852401
C   C7        1.0  0.90600  0.78600  0.77615  1.0000 -0.1840966728
C   C8        1.0  0.74900  0.81810  0.87834  1.0000 -0.0983981536
C   C9        1.0  0.68790  0.64930  0.62052  1.0000 -0.0397527304
C   C10       1.0  0.79090  0.79130  0.84740  1.0000 -0.1614175218
C   C11       1.0  0.77560  0.76470  0.74503  1.0000 0.1413337465
C   C12       1.0  0.79290  0.72880  0.64385  1.0000 -0.1888852401
C   C13       1.0  0.81860  0.74230  0.71400  1.0000 -0.0260106963
C   C14       1.0  0.77330  0.81640  0.81080  1.0000 0.0879675884
C   C15       1.0  0.82030  0.78680  0.77663  1.0000 -0.0120269826
C   C16       1.0  0.77170  0.70810  0.68175  1.0000 0.0879675884
C   C17       1.0  0.67120  0.89490  0.83710  1.0000 -0.1059637584
C   C18       1.0  0.71410  0.86590  0.80660  1.0000 -0.1537158333
C   C19       1.0  0.67010  0.62660  0.65780  1.0000 -0.0983981536
C   C20       1.0  0.71270  0.65800  0.68730  1.0000 -0.1614175218
C   C21       1.0  0.65070  0.81670  0.71714  1.0000 -0.3364576373
C   C22       1.0  0.63990  0.38740  0.41031  1.0000 0.6304910432
C   C23       1.0  0.95150  0.23840  0.25405  1.0000 0.0687593657
C   C24       1.0  0.63980  0.10000  0.09480  1.0000 0.6304910432
C   C25       1.0  0.68870  0.13330  0.12672  1.0000 -0.0235533846
C   C26       1.0  0.74940  0.30350  0.38582  1.0000 -0.0983981536
C   C27       1.0  0.90490  0.26000  0.28531  1.0000 -0.1888852401
C   C28       1.0  0.90600  0.21400  0.22385  1.0000 -0.1840966728
C   C29       1.0  0.74900  0.18190  0.12166  1.0000 -0.0983981536
C   C30       1.0  0.68790  0.35070  0.37948  1.0000 -0.0397527304
C   C31       1.0  0.79090  0.20870  0.15260  1.0000 -0.1614175218
C   C32       1.0  0.77560  0.23530  0.25497  1.0000 0.1413337465
C   C33       1.0  0.79290  0.27120  0.35615  1.0000 -0.1888852401
C   C34       1.0  0.81860  0.25770  0.28600  1.0000 -0.0260106963
C   C35       1.0  0.77330  0.18360  0.18920  1.0000 0.0879675884
C   C36       1.0  0.82030  0.21320  0.22337  1.0000 -0.0120269826
C   C37       1.0  0.77170  0.29190  0.31825  1.0000 0.0879675884
C   C38       1.0  0.67120  0.10510  0.16290  1.0000 -0.1059637584
C   C39       1.0  0.71410  0.13410  0.19340  1.0000 -0.1537158333
C   C40       1.0  0.67010  0.37340  0.34220  1.0000 -0.0983981536
C   C41       1.0  0.71270  0.34200  0.31270  1.0000 -0.1614175218
C   C42       1.0  0.65070  0.18330  0.28286  1.0000 -0.3364576373
C   C43       1.0  0.36010  0.11260  0.91031  1.0000 0.6304910432
C   C44       1.0  0.04850  0.26160  0.75405  1.0000 0.0687593657
C   C45       1.0  0.36020  0.40000  0.59480  1.0000 0.6304910432
C   C46       1.0  0.31130  0.36670  0.62672  1.0000 -0.0235533846
C   C47       1.0  0.25060  0.19650  0.88582  1.0000 -0.0983981536
C   C48       1.0  0.09510  0.24000  0.78531  1.0000 -0.1888852401
C   C49       1.0  0.09400  0.28600  0.72385  1.0000 -0.1840966728
C   C50       1.0  0.25100  0.31810  0.62166  1.0000 -0.0983981536
C   C51       1.0  0.31210  0.14930  0.87948  1.0000 -0.0397527304
C   C52       1.0  0.20910  0.29130  0.65260  1.0000 -0.1614175218
C   C53       1.0  0.22440  0.26470  0.75497  1.0000 0.1413337465
C   C54       1.0  0.20710  0.22880  0.85615  1.0000 -0.1888852401
C   C55       1.0  0.18140  0.24230  0.78600  1.0000 -0.0235533846
C   C56       1.0  0.22670  0.31640  0.68920  1.0000 0.0879675884
C   C57       1.0  0.17970  0.28680  0.72337  1.0000 -0.0120269826
C   C58       1.0  0.22830  0.20810  0.81825  1.0000 0.0879675884
C   C59       1.0  0.32880  0.39490  0.66290  1.0000 -0.1059637584
C   C60       1.0  0.28590  0.36590  0.69340  1.0000 -0.1537158333
C   C61       1.0  0.32990  0.12660  0.84220  1.0000 -0.0983981536
C   C62       1.0  0.28730  0.15800  0.81270  1.0000 -0.1614175218
C   C63       1.0  0.34930  0.31670  0.78286  1.0000 -0.3364576373
C   C64       1.0  0.36010  0.88740  0.08969  1.0000 0.6304910432
C   C65       1.0  0.04850  0.73840  0.24595  1.0000 0.0687593657
C   C66       1.0  0.36020  0.60000  0.40520  1.0000 0.6304910432
C   C67       1.0  0.31130  0.63330  0.37328  1.0000 -0.0235533846
C   C68       1.0  0.25060  0.80350  0.11418  1.0000 -0.0983981536
C   C69       1.0  0.09510  0.76000  0.21469  1.0000 -0.1888852401
C   C70       1.0  0.09400  0.71400  0.27615  1.0000 -0.1840966728
C   C71       1.0  0.25100  0.68190  0.37834  1.0000 -0.0983981536
C   C72       1.0  0.31210  0.85070  0.12052  1.0000 -0.0397527304
C   C73       1.0  0.20910  0.70870  0.34740  1.0000 -0.1614175218
C   C74       1.0  0.22440  0.73530  0.24503  1.0000 0.1413337465
C   C75       1.0  0.20710  0.77120  0.14385  1.0000 -0.1888852401
C   C76       1.0  0.18140  0.75770  0.21400  1.0000 -0.0235533846
C   C77       1.0  0.22670  0.68360  0.31080  1.0000 0.0847689013
C   C78       1.0  0.17970  0.71320  0.27663  1.0000 -0.0120269826
C   C79       1.0  0.22830  0.79190  0.18175  1.0000 0.0879675884
C   C80       1.0  0.32880  0.60510  0.33710  1.0000 -0.1059637584
C   C81       1.0  0.28590  0.63410  0.30660  1.0000 -0.1537158333
C   C82       1.0  0.32990  0.87340  0.15780  1.0000 -0.0983981536
C   C83       1.0  0.28730  0.84200  0.18730  1.0000 -0.1614175218
C   C84       1.0  0.34930  0.68330  0.21714  1.0000 -0.3364576373
C   C85       1.0  0.36010  0.38740  0.41031  1.0000 0.6304910432
C   C86       1.0  0.04850  0.23840  0.25405  1.0000 0.0687593657
C   C87       1.0  0.36020  0.10000  0.09480  1.0000 0.6304910432
C   C88       1.0  0.31130  0.13330  0.12672  1.0000 -0.0235533846
C   C89       1.0  0.25060  0.30350  0.38582  1.0000 -0.0983981536
C   C90       1.0  0.09510  0.26000  0.28531  1.0000 -0.1888852401
C   C91       1.0  0.09400  0.21400  0.22385  1.0000 -0.1840966728
C   C92       1.0  0.25100  0.18190  0.12166  1.0000 -0.0983981536
C   C93       1.0  0.31210  0.35070  0.37948  1.0000 -0.0397527304
C   C94       1.0  0.20910  0.20870  0.15260  1.0000 -0.1614175218
C   C95       1.0  0.22440  0.23530  0.25497  1.0000 0.1413337465
C   C96       1.0  0.20710  0.27120  0.35615  1.0000 -0.1888852401
C   C97       1.0  0.18140  0.25770  0.28600  1.0000 -0.0235533846
C   C98       1.0  0.22670  0.18360  0.18920  1.0000 0.0847689013
C   C99       1.0  0.17970  0.21320  0.22337  1.0000 -0.0120269826
C   C100      1.0  0.22830  0.29190  0.31825  1.0000 0.0879675884
C   C101      1.0  0.32880  0.10510  0.16290  1.0000 -0.1059637584
C   C102      1.0  0.28590  0.13410  0.19340  1.0000 -0.1537158333
C   C103      1.0  0.32990  0.37340  0.34220  1.0000 -0.0983981536
C   C104      1.0  0.28730  0.34200  0.31270  1.0000 -0.1614175218
C   C105      1.0  0.34930  0.18330  0.28286  1.0000 -0.3364576373
C   C106      1.0  0.36010  0.61260  0.58969  1.0000 0.6304910432
C   C107      1.0  0.04850  0.76160  0.74595  1.0000 0.0687593657
C   C108      1.0  0.36020  0.90000  0.90520  1.0000 0.6304910432
C   C109      1.0  0.31130  0.86670  0.87328  1.0000 -0.0235533846
C   C110      1.0  0.25060  0.69650  0.61418  1.0000 -0.0983981536
C   C111      1.0  0.09510  0.74000  0.71469  1.0000 -0.1888852401
C   C112      1.0  0.09400  0.78600  0.77615  1.0000 -0.1840966728
C   C113      1.0  0.25100  0.81810  0.87834  1.0000 -0.0983981536
C   C114      1.0  0.31210  0.64930  0.62052  1.0000 -0.0397527304
C   C115      1.0  0.20910  0.79130  0.84740  1.0000 -0.1614175218
C   C116      1.0  0.22440  0.76470  0.74503  1.0000 0.1413337465
C   C117      1.0  0.20710  0.72880  0.64385  1.0000 -0.1888852401
C   C118      1.0  0.18140  0.74230  0.71400  1.0000 -0.0260106963
C   C119      1.0  0.22670  0.81640  0.81080  1.0000 0.0879675884
C   C120      1.0  0.17970  0.78680  0.77663  1.0000 -0.0120269826
C   C121      1.0  0.22830  0.70810  0.68175  1.0000 0.0879675884
C   C122      1.0  0.32880  0.89490  0.83710  1.0000 -0.1059637584
C   C123      1.0  0.28590  0.86590  0.80660  1.0000 -0.1537158333
C   C124      1.0  0.32990  0.62660  0.65780  1.0000 -0.0983981536
C   C125      1.0  0.28730  0.65800  0.68730  1.0000 -0.1614175218
C   C126      1.0  0.34930  0.81670  0.71714  1.0000 -0.3364576373
C   C127      1.0  0.63990  0.88740  0.08969  1.0000 0.6304910432
C   C128      1.0  0.95150  0.73840  0.24595  1.0000 0.0687593657
C   C129      1.0  0.63980  0.60000  0.40520  1.0000 0.6304910432
C   C130      1.0  0.68870  0.63330  0.37328  1.0000 -0.0235533846
C   C131      1.0  0.74940  0.80350  0.11418  1.0000 -0.0983981536
C   C132      1.0  0.90490  0.76000  0.21469  1.0000 -0.1888852401
C   C133      1.0  0.90600  0.71400  0.27615  1.0000 -0.1840966728
C   C134      1.0  0.74900  0.68190  0.37834  1.0000 -0.0983981536
C   C135      1.0  0.68790  0.85070  0.12052  1.0000 -0.0397527304
C   C136      1.0  0.79090  0.70870  0.34740  1.0000 -0.1614175218
C   C137      1.0  0.77560  0.73530  0.24503  1.0000 0.1413337465
C   C138      1.0  0.79290  0.77120  0.14385  1.0000 -0.1888852401
C   C139      1.0  0.81860  0.75770  0.21400  1.0000 -0.0260106963
C   C140      1.0  0.77330  0.68360  0.31080  1.0000 0.0879675884
C   C141      1.0  0.82030  0.71320  0.27663  1.0000 -0.0120269826
C   C142      1.0  0.77170  0.79190  0.18175  1.0000 0.0879675884
C   C143      1.0  0.67120  0.60510  0.33710  1.0000 -0.1059637584
C   C144      1.0  0.71410  0.63410  0.30660  1.0000 -0.1537158333
C   C145      1.0  0.67010  0.87340  0.15780  1.0000 -0.0983981536
C   C146      1.0  0.71270  0.84200  0.18730  1.0000 -0.1614175218
C   C147      1.0  0.65070  0.68330  0.21714  1.0000 -0.3364576373
C   C148      1.0  0.63990  0.11260  0.91031  1.0000 0.6304910432
C   C149      1.0  0.95150  0.26160  0.75405  1.0000 0.0687593657
C   C150      1.0  0.63980  0.40000  0.59480  1.0000 0.6304910432
C   C151      1.0  0.68870  0.36670  0.62672  1.0000 -0.0235533846
C   C152      1.0  0.74940  0.19650  0.88582  1.0000 -0.0983981536
C   C153      1.0  0.90490  0.24000  0.78531  1.0000 -0.1888852401
C   C154      1.0  0.90600  0.28600  0.72385  1.0000 -0.1840966728
C   C155      1.0  0.74900  0.31810  0.62166  1.0000 -0.0983981536
C   C156      1.0  0.68790  0.14930  0.87948  1.0000 -0.0397527304
C   C157      1.0  0.79090  0.29130  0.65260  1.0000 -0.1614175218
C   C158      1.0  0.77560  0.26470  0.75497  1.0000 0.1413337465
C   C159      1.0  0.79290  0.22880  0.85615  1.0000 -0.1888852401
C   C160      1.0  0.81860  0.24230  0.78600  1.0000 -0.0260106963
C   C161      1.0  0.77330  0.31640  0.68920  1.0000 0.0879675884
C   C162      1.0  0.82030  0.28680  0.72337  1.0000 -0.0120269826
C   C163      1.0  0.77170  0.20810  0.81825  1.0000 0.0879675884
C   C164      1.0  0.67120  0.39490  0.66290  1.0000 -0.1059637584
C   C165      1.0  0.71410  0.36590  0.69340  1.0000 -0.1537158333
C   C166      1.0  0.67010  0.12660  0.84220  1.0000 -0.0983981536
C   C167      1.0  0.71270  0.15800  0.81270  1.0000 -0.1614175218
C   C168      1.0  0.65070  0.31670  0.78286  1.0000 -0.3364576373
O   O1        1.0  0.58300  0.57260  0.59939  1.0000 -0.5581026387
O   O2        1.0  0.58370  0.94140  0.89721  1.0000 -0.5581026387
O   O3        1.0  0.38660  0.50280  0.53385  1.0000 -1.1790911018
O   O4        1.0  0.65920  0.87900  0.93911  1.0000 -0.6318987806
O   O5        1.0  0.65960  0.62920  0.55464  1.0000 -0.6407013435
O   O6        1.0  0.68840  0.76120  0.74656  1.0000 -0.1614175218
O   O7        1.0  0.58300  0.42740  0.40061  1.0000 -0.5581026387
O   O8        1.0  0.58370  0.05860  0.10279  1.0000 -0.5581026387
O   O9        1.0  0.38660  0.49720  0.46615  1.0000 -1.172110786
O   O10       1.0  0.65920  0.12100  0.06089  1.0000 -0.6318987806
O   O11       1.0  0.65960  0.37080  0.44536  1.0000 -0.6407013435
O   O12       1.0  0.68840  0.23880  0.25344  1.0000 -0.1659257163
O   O13       1.0  0.41700  0.07260  0.90061  1.0000 -0.5581026387
O   O14       1.0  0.41630  0.44140  0.60279  1.0000 -0.5581026387
O   O15       1.0  0.61340  0.00280  0.96615  1.0000 -1.1790911018
O   O16       1.0  0.34080  0.37900  0.56089  1.0000 -0.6318987806
O   O17       1.0  0.34040  0.12920  0.94536  1.0000 -0.6407013435
O   O18       1.0  0.31160  0.26120  0.75344  1.0000 -0.1659257163
O   O19       1.0  0.41700  0.92740  0.09939  1.0000 -0.5581026387
O   O20       1.0  0.41630  0.55860  0.39721  1.0000 -0.5581026387
O   O21       1.0  0.61340  0.99720  0.03385  1.0000 -1.1790911018
O   O22       1.0  0.34080  0.62100  0.43911  1.0000 -0.6318987806
O   O23       1.0  0.34040  0.87080  0.05464  1.0000 -0.6407013435
O   O24       1.0  0.31160  0.73880  0.24656  1.0000 -0.1614175218
O   O25       1.0  0.41700  0.42740  0.40061  1.0000 -0.5581026387
O   O26       1.0  0.41630  0.05860  0.10279  1.0000 -0.5581026387
O   O27       1.0  0.61340  0.49720  0.46615  1.0000 -1.1790911018
O   O28       1.0  0.34080  0.12100  0.06089  1.0000 -0.6318987806
O   O29       1.0  0.34040  0.37080  0.44536  1.0000 -0.6407013435
O   O30       1.0  0.31160  0.23880  0.25344  1.0000 -0.1659257163
O   O31       1.0  0.41700  0.57260  0.59939  1.0000 -0.5581026387
O   O32       1.0  0.41630  0.94140  0.89721  1.0000 -0.5581026387
O   O33       1.0  0.61340  0.50280  0.53385  1.0000 -1.1790911018
O   O34       1.0  0.34080  0.87900  0.93911  1.0000 -0.6318987806
O   O35       1.0  0.34040  0.62920  0.55464  1.0000 -0.6407013435
O   O36       1.0  0.31160  0.76120  0.74656  1.0000 -0.1614175218
O   O37       1.0  0.58300  0.92740  0.09939  1.0000 -0.5581026387
O   O38       1.0  0.58370  0.55860  0.39721  1.0000 -0.5581026387
O   O39       1.0  0.38660  0.99720  0.03385  1.0000 -1.1790911018
O   O40       1.0  0.65920  0.62100  0.43911  1.0000 -0.6318987806
O   O41       1.0  0.65960  0.87080  0.05464  1.0000 -0.6407013435
O   O42       1.0  0.68840  0.73880  0.24656  1.0000 -0.1614175218
O   O43       1.0  0.58300  0.07260  0.90061  1.0000 -0.5581026387
O   O44       1.0  0.58370  0.44140  0.60279  1.0000 -0.5581026387
O   O45       1.0  0.38660  0.00280  0.96615  1.0000 -1.1790911018
O   O46       1.0  0.65920  0.37900  0.56089  1.0000 -0.6318987806
O   O47       1.0  0.65960  0.12920  0.94536  1.0000 -0.6407013435
O   O48       1.0  0.68840  0.26120  0.75344  1.0000 -0.1614175218
O   O49       1.0  0.50000  0.40730  0.46824  1.0000 -1.1790911018
O   O50       1.0  0.50000  0.41290  0.53580  1.0000 -1.1790911018
O   O51       1.0  0.50000  0.59270  0.53176  1.0000 -1.1790911018
O   O52       1.0  0.50000  0.58710  0.46420  1.0000 -1.1790911018
O   O53       1.0  0.50000  0.90730  0.03176  1.0000 -1.1790911018
O   O54       1.0  0.50000  0.91290  0.96420  1.0000 -1.1790911018
O   O55       1.0  0.50000  0.09270  0.96824  1.0000 -1.1790911018
O   O56       1.0  0.50000  0.08710  0.03580  1.0000 -1.1790911018
