# DDEC6 charges by PACMAN v1.1 (https://github.com/mtap-research/PACMAN-charge/)
data_2017[Co][lvt]3[ASR]1
_chemical_formula_sum              "Co4 H36 C52 O16"
_cell_length_a       17.0796
_cell_length_b       17.0796
_cell_length_c       17.0796
_cell_angle_alpha    143.338
_cell_angle_beta     128.841
_cell_angle_gamma    64.5754

_symmetry_space_group_name_H-M    "P 1"
_symmetry_Int_Tables_number       1

loop_
  _symmetry_equiv_pos_as_xyz
  'x, y, z'

loop_
  _atom_site_type_symbol
  _atom_site_label
  _atom_site_symmetry_multiplicity
  _atom_site_fract_x
  _atom_site_fract_y
  _atom_site_fract_z
  _atom_site_occupancy
  _atom_site_charge
Co  Co1       1.0  0.96474  0.86862  0.90388  1.0000 0.9835729872
Co  Co2       1.0  0.46474  0.56086  0.09612  1.0000 0.9835729872
Co  Co3       1.0  0.03526  0.13138  0.09612  1.0000 0.9835729872
Co  Co4       1.0  0.53526  0.43914  0.90388  1.0000 0.9835729872
H   H1        1.0  0.72850  0.22850  0.00000  1.0000 0.1381168241
H   H2        1.0  0.77150  0.77150  0.50000  1.0000 0.1381168241
H   H3        1.0  0.27150  0.77150  0.00000  1.0000 0.1381168241
H   H4        1.0  0.22850  0.22850  0.50000  1.0000 0.1381168241
H   H5        1.0  0.70740  0.98060  0.97060  1.0000 0.1381168241
H   H6        1.0  0.51000  0.23680  0.02940  1.0000 0.1381168241
H   H7        1.0  0.99000  0.01940  0.72680  1.0000 0.1381168241
H   H8        1.0  0.79260  0.76320  0.27320  1.0000 0.1381168241
H   H9        1.0  0.29260  0.01940  0.02940  1.0000 0.1381168241
H   H10       1.0  0.49000  0.76320  0.97060  1.0000 0.1381168241
H   H11       1.0  0.01000  0.98060  0.27320  1.0000 0.1381168241
H   H12       1.0  0.20740  0.23680  0.72680  1.0000 0.1381168241
H   H13       1.0  0.39060  0.87390  0.65790  1.0000 0.1257029896
H   H14       1.0  0.71600  0.23270  0.34210  1.0000 0.1257029896
H   H15       1.0  0.78400  0.12610  0.51670  1.0000 0.1257029896
H   H16       1.0  0.10940  0.76730  0.48330  1.0000 0.1257029896
H   H17       1.0  0.60940  0.12610  0.34210  1.0000 0.1257029896
H   H18       1.0  0.28400  0.76730  0.65790  1.0000 0.1257029896
H   H19       1.0  0.21600  0.87390  0.48330  1.0000 0.1257029896
H   H20       1.0  0.89060  0.23270  0.51670  1.0000 0.1257029896
H   H21       1.0  0.44650  0.76320  0.63950  1.0000 0.1194875612
H   H22       1.0  0.62370  0.30700  0.36050  1.0000 0.1194875612
H   H23       1.0  0.87630  0.23680  0.68330  1.0000 0.1194875612
H   H24       1.0  0.05350  0.69300  0.31670  1.0000 0.1194875612
H   H25       1.0  0.55350  0.23680  0.36050  1.0000 0.1194875612
H   H26       1.0  0.37630  0.69300  0.63950  1.0000 0.1194875612
H   H27       1.0  0.12370  0.76320  0.31670  1.0000 0.1194875612
H   H28       1.0  0.94650  0.30700  0.68330  1.0000 0.1194875612
H   H29       1.0  0.50810  0.88080  0.72510  1.0000 0.1194875612
H   H30       1.0  0.65570  0.28300  0.27490  1.0000 0.1194875612
H   H31       1.0  0.84430  0.11920  0.62730  1.0000 0.1194875612
H   H32       1.0  0.99190  0.71700  0.37270  1.0000 0.1194875612
H   H33       1.0  0.49190  0.11920  0.27490  1.0000 0.1194875612
H   H34       1.0  0.34430  0.71700  0.72510  1.0000 0.1194875612
H   H35       1.0  0.15570  0.88080  0.37270  1.0000 0.1194875612
H   H36       1.0  0.00810  0.28300  0.62730  1.0000 0.1194875612
C   C1        1.0  0.69630  0.19630  0.00000  1.0000 -0.1165014977
C   C2        1.0  0.80370  0.80370  0.50000  1.0000 -0.1165014977
C   C3        1.0  0.30370  0.80370  0.00000  1.0000 -0.1165014977
C   C4        1.0  0.19630  0.19630  0.50000  1.0000 -0.1165014977
C   C5        1.0  0.73317  0.09877  0.98680  1.0000 -0.0161318868
C   C6        1.0  0.61197  0.24637  0.01320  1.0000 -0.0161318868
C   C7        1.0  0.88803  0.90123  0.63440  1.0000 -0.0161318868
C   C8        1.0  0.76683  0.75363  0.36560  1.0000 -0.0161318868
C   C9        1.0  0.26683  0.90123  0.01320  1.0000 -0.0161318868
C   C10       1.0  0.38803  0.75363  0.98680  1.0000 -0.0161318868
C   C11       1.0  0.11197  0.09877  0.36560  1.0000 -0.0161318868
C   C12       1.0  0.23317  0.24637  0.63440  1.0000 -0.0161318868
C   C13       1.0  0.82881  0.05081  0.98100  1.0000 0.5951715981
C   C14       1.0  0.56981  0.34781  0.01900  1.0000 0.5951715981
C   C15       1.0  0.93019  0.94919  0.77800  1.0000 0.5951715981
C   C16       1.0  0.67119  0.65219  0.22200  1.0000 0.5951715981
C   C17       1.0  0.17119  0.94919  0.01900  1.0000 0.5951715981
C   C18       1.0  0.43019  0.65219  0.98100  1.0000 0.5951715981
C   C19       1.0  0.06981  0.05081  0.22200  1.0000 0.5951715981
C   C20       1.0  0.32881  0.34781  0.77800  1.0000 0.5951715981
C   C21       1.0  0.68401  0.04901  0.98380  1.0000 -0.1423425103
C   C22       1.0  0.56521  0.20021  0.01620  1.0000 -0.1423425103
C   C23       1.0  0.93479  0.95099  0.63500  1.0000 -0.1423425103
C   C24       1.0  0.81599  0.79979  0.36500  1.0000 -0.1423425103
C   C25       1.0  0.31599  0.95099  0.01620  1.0000 -0.1423425103
C   C26       1.0  0.43479  0.79979  0.98380  1.0000 -0.1423425103
C   C27       1.0  0.06521  0.04901  0.36500  1.0000 -0.1423425103
C   C28       1.0  0.18401  0.20021  0.63500  1.0000 -0.1423425103
C   C29       1.0  0.60000  0.10000  0.00000  1.0000 0.0941134778
C   C30       1.0  0.90000  0.90000  0.50000  1.0000 0.0941134778
C   C31       1.0  0.40000  0.90000  0.00000  1.0000 0.0941134778
C   C32       1.0  0.10000  0.10000  0.50000  1.0000 0.0941134778
C   C33       1.0  0.54810  0.04810  0.00000  1.0000 -0.0938950057
C   C34       1.0  0.95190  0.95190  0.50000  1.0000 -0.0938950057
C   C35       1.0  0.45190  0.95190  0.00000  1.0000 -0.0938950057
C   C36       1.0  0.04810  0.04810  0.50000  1.0000 -0.0938950057
C   C37       1.0  0.47319  0.93919  0.86360  1.0000 0.0618755718
C   C38       1.0  0.57559  0.10959  0.13640  1.0000 0.0618755718
C   C39       1.0  0.92441  0.06081  0.53400  1.0000 0.0618755718
C   C40       1.0  0.02681  0.89041  0.46600  1.0000 0.0618755718
C   C41       1.0  0.52681  0.06081  0.13640  1.0000 0.0618755718
C   C42       1.0  0.42441  0.89041  0.86360  1.0000 0.0618755718
C   C43       1.0  0.07559  0.93919  0.46600  1.0000 0.0618755718
C   C44       1.0  0.97319  0.10959  0.53400  1.0000 0.0618755718
C   C45       1.0  0.45260  0.85610  0.70610  1.0000 -0.4253989185
C   C46       1.0  0.65000  0.24650  0.29390  1.0000 -0.4247768844
C   C47       1.0  0.85000  0.14390  0.59650  1.0000 -0.4247768844
C   C48       1.0  0.04740  0.75350  0.40350  1.0000 -0.4253989185
C   C49       1.0  0.54740  0.14390  0.29390  1.0000 -0.4253989185
C   C50       1.0  0.35000  0.75350  0.70610  1.0000 -0.4253989185
C   C51       1.0  0.15000  0.85610  0.40350  1.0000 -0.4253989185
C   C52       1.0  0.95260  0.24650  0.59650  1.0000 -0.4247768844
O   O1        1.0  0.83691  0.93281  0.90770  1.0000 -0.5321521039
O   O2        1.0  0.52511  0.42921  0.09230  1.0000 -0.5321521039
O   O3        1.0  0.97489  0.06719  0.90410  1.0000 -0.5321521039
O   O4        1.0  0.66309  0.57079  0.09590  1.0000 -0.5321521039
O   O5        1.0  0.16309  0.06719  0.09230  1.0000 -0.5321521039
O   O6        1.0  0.47489  0.57079  0.90770  1.0000 -0.5321521039
O   O7        1.0  0.02511  0.93281  0.09590  1.0000 -0.5321521039
O   O8        1.0  0.33691  0.42921  0.90410  1.0000 -0.5321521039
O   O9        1.0  0.89156  0.13066  0.04850  1.0000 -0.546753342
O   O10       1.0  0.58216  0.34306  0.95150  1.0000 -0.546753342
O   O11       1.0  0.91784  0.86934  0.76090  1.0000 -0.546753342
O   O12       1.0  0.60844  0.65694  0.23910  1.0000 -0.546753342
O   O13       1.0  0.10844  0.86934  0.95150  1.0000 -0.546753342
O   O14       1.0  0.41784  0.65694  0.04850  1.0000 -0.546753342
O   O15       1.0  0.08216  0.13066  0.23910  1.0000 -0.546753342
O   O16       1.0  0.39156  0.34306  0.76090  1.0000 -0.546753342
