# DDEC6 charges by PACMAN v1.1 (https://github.com/mtap-research/PACMAN-charge/)
data_2017[CoTb][nan]3[ASR]1
_chemical_formula_sum              "Tb4 Co4 H56 C96 N16 Cl4 O36"
_cell_length_a       15.6554
_cell_length_b       15.6554
_cell_length_c       22.4619
_cell_angle_alpha    81.6103
_cell_angle_beta     98.3897
_cell_angle_gamma    127.648

_symmetry_space_group_name_H-M    "P 1"
_symmetry_Int_Tables_number       1

loop_
  _symmetry_equiv_pos_as_xyz
  'x, y, z'

loop_
  _atom_site_type_symbol
  _atom_site_label
  _atom_site_symmetry_multiplicity
  _atom_site_fract_x
  _atom_site_fract_y
  _atom_site_fract_z
  _atom_site_occupancy
  _atom_site_charge
Tb  Tb1       1.0  0.59123  0.65763  0.95756  1.0000 2.099289446
Tb  Tb2       1.0  0.65763  0.59123  0.54244  1.0000 2.099289446
Tb  Tb3       1.0  0.40877  0.34237  0.04244  1.0000 2.099289446
Tb  Tb4       1.0  0.34237  0.40877  0.45756  1.0000 2.099289446
Co  Co1       1.0  0.12057  0.64579  0.14813  1.0000 0.6080127422
Co  Co2       1.0  0.64579  0.12057  0.35187  1.0000 0.6080127422
Co  Co3       1.0  0.87943  0.35421  0.85187  1.0000 0.6080127422
Co  Co4       1.0  0.35421  0.87943  0.64813  1.0000 0.6080127422
H   H1        1.0  0.30260  0.63500  0.11800  1.0000 0.1111673851
H   H2        1.0  0.63500  0.30260  0.38200  1.0000 0.1111673851
H   H3        1.0  0.69740  0.36500  0.88200  1.0000 0.1111673851
H   H4        1.0  0.36500  0.69740  0.61800  1.0000 0.1111673851
H   H5        1.0  0.29510  0.63670  0.93970  1.0000 0.1307420267
H   H6        1.0  0.63670  0.29510  0.56030  1.0000 0.1307420267
H   H7        1.0  0.70490  0.36330  0.06030  1.0000 0.1307420267
H   H8        1.0  0.36330  0.70490  0.43970  1.0000 0.1307420267
H   H9        1.0  0.85350  0.62990  0.93420  1.0000 0.1307420267
H   H10       1.0  0.62990  0.85350  0.56580  1.0000 0.1307420267
H   H11       1.0  0.14650  0.37010  0.06580  1.0000 0.1307420267
H   H12       1.0  0.37010  0.14650  0.43420  1.0000 0.1307420267
H   H13       1.0  0.17900  0.86200  0.07500  1.0000 0.1111673851
H   H14       1.0  0.86200  0.17900  0.42500  1.0000 0.1111673851
H   H15       1.0  0.82100  0.13800  0.92500  1.0000 0.1111673851
H   H16       1.0  0.13800  0.82100  0.57500  1.0000 0.1111673851
H   H17       1.0  0.00690  0.63910  0.92820  1.0000 0.1378817845
H   H18       1.0  0.63910  0.00690  0.57180  1.0000 0.1378817845
H   H19       1.0  0.99310  0.36090  0.07180  1.0000 0.1378817845
H   H20       1.0  0.36090  0.99310  0.42820  1.0000 0.1378817845
H   H21       1.0  0.18560  0.51660  0.23590  1.0000 0.1111673851
H   H22       1.0  0.51660  0.18560  0.26410  1.0000 0.1111673851
H   H23       1.0  0.81440  0.48340  0.76410  1.0000 0.1111673851
H   H24       1.0  0.48340  0.81440  0.73590  1.0000 0.1111673851
H   H25       1.0  0.91030  0.63130  0.11300  1.0000 0.1111673851
H   H26       1.0  0.63130  0.91030  0.38700  1.0000 0.1111673851
H   H27       1.0  0.08970  0.36870  0.88700  1.0000 0.1111673851
H   H28       1.0  0.36870  0.08970  0.61300  1.0000 0.1111673851
H   H29       1.0  0.14520  0.63680  0.93010  1.0000 0.1307420267
H   H30       1.0  0.63680  0.14520  0.56990  1.0000 0.1307420267
H   H31       1.0  0.85480  0.36320  0.06990  1.0000 0.1307420267
H   H32       1.0  0.36320  0.85480  0.43010  1.0000 0.1307420267
H   H33       1.0  0.45740  0.11100  0.14710  1.0000 0.1307420267
H   H34       1.0  0.11100  0.45740  0.35290  1.0000 0.1307420267
H   H35       1.0  0.54260  0.88900  0.85290  1.0000 0.1307420267
H   H36       1.0  0.88900  0.54260  0.64710  1.0000 0.1307420267
H   H37       1.0  0.47250  0.99110  0.21140  1.0000 0.1307420267
H   H38       1.0  0.99110  0.47250  0.28860  1.0000 0.1307420267
H   H39       1.0  0.52750  0.00890  0.78860  1.0000 0.1307420267
H   H40       1.0  0.00890  0.52750  0.71140  1.0000 0.1307420267
H   H41       1.0  0.46340  0.72600  0.32960  1.0000 0.1307420267
H   H42       1.0  0.72600  0.46340  0.17040  1.0000 0.1307420267
H   H43       1.0  0.53660  0.27400  0.67040  1.0000 0.1307420267
H   H44       1.0  0.27400  0.53660  0.82960  1.0000 0.1307420267
H   H45       1.0  0.47230  0.86770  0.27120  1.0000 0.1307420267
H   H46       1.0  0.86770  0.47230  0.22880  1.0000 0.1307420267
H   H47       1.0  0.52770  0.13230  0.72880  1.0000 0.1307420267
H   H48       1.0  0.13230  0.52770  0.77120  1.0000 0.1307420267
H   H49       1.0  0.40510  0.44490  0.92720  1.0000 0.3407104638
H   H50       1.0  0.44490  0.40510  0.57280  1.0000 0.3407104638
H   H51       1.0  0.59490  0.55510  0.07280  1.0000 0.3407104638
H   H52       1.0  0.55510  0.59490  0.42720  1.0000 0.3407104638
H   H53       1.0  0.47850  0.43750  0.91800  1.0000 0.3407104638
H   H54       1.0  0.43750  0.47850  0.58200  1.0000 0.3407104638
H   H55       1.0  0.52150  0.56250  0.08200  1.0000 0.3407104638
H   H56       1.0  0.56250  0.52150  0.41800  1.0000 0.3407104638
C   C1        1.0  0.27189  0.63691  0.07962  1.0000 0.0607465274
C   C2        1.0  0.63691  0.27189  0.42038  1.0000 0.0607465274
C   C3        1.0  0.72811  0.36309  0.92038  1.0000 0.0607465274
C   C4        1.0  0.36309  0.72811  0.57962  1.0000 0.0607465274
C   C5        1.0  0.31550  0.63590  0.03103  1.0000 -0.0587422635
C   C6        1.0  0.63590  0.31550  0.46897  1.0000 -0.0587422635
C   C7        1.0  0.68450  0.36410  0.96897  1.0000 -0.0587422635
C   C8        1.0  0.36410  0.68450  0.53103  1.0000 -0.0587422635
C   C9        1.0  0.04589  0.64051  0.01830  1.0000 0.1700937725
C   C10       1.0  0.64051  0.04589  0.48170  1.0000 0.1700937725
C   C11       1.0  0.95411  0.35949  0.98170  1.0000 0.1700937725
C   C12       1.0  0.35949  0.95411  0.51830  1.0000 0.1700937725
C   C13       1.0  0.14140  0.64080  0.01928  1.0000 0.1569473137
C   C14       1.0  0.64080  0.14140  0.48072  1.0000 0.1569473137
C   C15       1.0  0.85860  0.35920  0.98072  1.0000 0.1569473137
C   C16       1.0  0.35920  0.85860  0.51928  1.0000 0.1569473137
C   C17       1.0  0.26777  0.63683  0.97375  1.0000 -0.0512535937
C   C18       1.0  0.63683  0.26777  0.52625  1.0000 -0.0512535937
C   C19       1.0  0.73223  0.36317  0.02625  1.0000 -0.0512535937
C   C20       1.0  0.36317  0.73223  0.47375  1.0000 -0.0512535937
C   C21       1.0  0.89434  0.63106  0.96907  1.0000 -0.0301543573
C   C22       1.0  0.63106  0.89434  0.53093  1.0000 -0.0301543573
C   C23       1.0  0.10566  0.36894  0.03093  1.0000 -0.0301543573
C   C24       1.0  0.36894  0.10566  0.46907  1.0000 -0.0301543573
C   C25       1.0  0.76095  0.61125  0.03204  1.0000 0.6080127422
C   C26       1.0  0.61125  0.76095  0.46796  1.0000 0.6080127422
C   C27       1.0  0.23905  0.38875  0.96796  1.0000 0.6080127422
C   C28       1.0  0.38875  0.23905  0.53204  1.0000 0.6080127422
C   C29       1.0  0.23735  0.88845  0.10366  1.0000 0.0607465274
C   C30       1.0  0.88845  0.23735  0.39634  1.0000 0.0607465274
C   C31       1.0  0.76265  0.11155  0.89634  1.0000 0.0607465274
C   C32       1.0  0.11155  0.76265  0.60366  1.0000 0.0607465274
C   C33       1.0  0.98614  0.63726  0.96540  1.0000 -0.1579043529
C   C34       1.0  0.63726  0.98614  0.53460  1.0000 -0.1579043529
C   C35       1.0  0.01386  0.36274  0.03460  1.0000 -0.1579043529
C   C36       1.0  0.36274  0.01386  0.46540  1.0000 -0.1579043529
C   C37       1.0  0.40984  0.63096  0.04010  1.0000 0.6176106025
C   C38       1.0  0.63096  0.40984  0.45990  1.0000 0.6176106025
C   C39       1.0  0.59016  0.36904  0.95990  1.0000 0.6176106025
C   C40       1.0  0.36904  0.59016  0.54010  1.0000 0.6176106025
C   C41       1.0  0.86459  0.62661  0.02526  1.0000 -0.0690342124
C   C42       1.0  0.62661  0.86459  0.47474  1.0000 -0.0690342124
C   C43       1.0  0.13541  0.37339  0.97474  1.0000 -0.0690342124
C   C44       1.0  0.37339  0.13541  0.52526  1.0000 -0.0690342124
C   C45       1.0  0.24328  0.58752  0.24371  1.0000 0.0607465274
C   C46       1.0  0.58752  0.24328  0.25629  1.0000 0.0607465274
C   C47       1.0  0.75672  0.41248  0.75629  1.0000 0.0607465274
C   C48       1.0  0.41248  0.75672  0.74371  1.0000 0.0607465274
C   C49       1.0  0.92966  0.63294  0.07541  1.0000 0.0607465274
C   C50       1.0  0.63294  0.92966  0.42459  1.0000 0.0607465274
C   C51       1.0  0.07034  0.36706  0.92459  1.0000 0.0607465274
C   C52       1.0  0.36706  0.07034  0.57541  1.0000 0.0607465274
C   C53       1.0  0.32075  0.51105  0.31770  1.0000 0.5974651266
C   C54       1.0  0.51105  0.32075  0.18230  1.0000 0.5974651266
C   C55       1.0  0.67925  0.48895  0.68230  1.0000 0.5974651266
C   C56       1.0  0.48895  0.67925  0.81770  1.0000 0.5974651266
C   C57       1.0  0.17905  0.63795  0.96796  1.0000 -0.1579043529
C   C58       1.0  0.63795  0.17905  0.53204  1.0000 -0.1579043529
C   C59       1.0  0.82095  0.36205  0.03204  1.0000 -0.1579043529
C   C60       1.0  0.36205  0.82095  0.46796  1.0000 -0.1579043529
C   C61       1.0  0.30247  0.07433  0.06079  1.0000 0.6176106025
C   C62       1.0  0.07433  0.30247  0.43921  1.0000 0.6176106025
C   C63       1.0  0.69753  0.92567  0.93921  1.0000 0.6176106025
C   C64       1.0  0.92567  0.69753  0.56079  1.0000 0.6176106025
C   C65       1.0  0.40351  0.03709  0.14560  1.0000 -0.0239592811
C   C66       1.0  0.03709  0.40351  0.35440  1.0000 -0.0239592811
C   C67       1.0  0.59649  0.96291  0.85440  1.0000 -0.0239592811
C   C68       1.0  0.96291  0.59649  0.64560  1.0000 -0.0239592811
C   C69       1.0  0.32946  0.85574  0.18226  1.0000 0.1700937725
C   C70       1.0  0.85574  0.32946  0.31774  1.0000 0.1700937725
C   C71       1.0  0.67054  0.14426  0.81774  1.0000 0.1700937725
C   C72       1.0  0.14426  0.67054  0.68226  1.0000 0.1700937725
C   C73       1.0  0.41220  0.96600  0.18428  1.0000 -0.1579043529
C   C74       1.0  0.96600  0.41220  0.31572  1.0000 -0.1579043529
C   C75       1.0  0.58780  0.03400  0.81572  1.0000 -0.1579043529
C   C76       1.0  0.03400  0.58780  0.68428  1.0000 -0.1579043529
C   C77       1.0  0.31492  0.99928  0.10442  1.0000 -0.0512535937
C   C78       1.0  0.99928  0.31492  0.39558  1.0000 -0.0512535937
C   C79       1.0  0.68508  0.00072  0.89558  1.0000 -0.0512535937
C   C80       1.0  0.00072  0.68508  0.60442  1.0000 -0.0512535937
C   C81       1.0  0.32527  0.60573  0.28671  1.0000 -0.0512535937
C   C82       1.0  0.60573  0.32527  0.21329  1.0000 -0.0512535937
C   C83       1.0  0.67473  0.39427  0.71329  1.0000 -0.0512535937
C   C84       1.0  0.39427  0.67473  0.78671  1.0000 -0.0512535937
C   C85       1.0  0.32996  0.77144  0.22246  1.0000 0.1700937725
C   C86       1.0  0.77144  0.32996  0.27754  1.0000 0.1700937725
C   C87       1.0  0.67004  0.22856  0.77754  1.0000 0.1700937725
C   C88       1.0  0.22856  0.67004  0.72246  1.0000 0.1700937725
C   C89       1.0  0.41005  0.71155  0.29914  1.0000 -0.0301543573
C   C90       1.0  0.71155  0.41005  0.20086  1.0000 -0.0301543573
C   C91       1.0  0.58995  0.28845  0.70086  1.0000 -0.0301543573
C   C92       1.0  0.28845  0.58995  0.79914  1.0000 -0.0301543573
C   C93       1.0  0.41414  0.79606  0.26519  1.0000 -0.1683130126
C   C94       1.0  0.79606  0.41414  0.23481  1.0000 -0.1683130126
C   C95       1.0  0.58586  0.20394  0.73481  1.0000 -0.1683130126
C   C96       1.0  0.20394  0.58586  0.76519  1.0000 -0.1683130126
N   N1        1.0  0.18804  0.64056  0.07475  1.0000 -0.2360498171
N   N2        1.0  0.64056  0.18804  0.42525  1.0000 -0.2360498171
N   N3        1.0  0.81196  0.35944  0.92525  1.0000 -0.2360498171
N   N4        1.0  0.35944  0.81196  0.57475  1.0000 -0.2360498171
N   N5        1.0  0.24399  0.66841  0.21296  1.0000 -0.2523255595
N   N6        1.0  0.66841  0.24399  0.28704  1.0000 -0.2523255595
N   N7        1.0  0.75601  0.33159  0.78704  1.0000 -0.2523255595
N   N8        1.0  0.33159  0.75601  0.71296  1.0000 -0.2523255595
N   N9        1.0  0.01966  0.64114  0.07288  1.0000 -0.2523255595
N   N10       1.0  0.64114  0.01966  0.42712  1.0000 -0.2523255595
N   N11       1.0  0.98034  0.35886  0.92712  1.0000 -0.2523255595
N   N12       1.0  0.35886  0.98034  0.57288  1.0000 -0.2523255595
N   N13       1.0  0.24216  0.81744  0.14223  1.0000 -0.2523255595
N   N14       1.0  0.81744  0.24216  0.35777  1.0000 -0.2523255595
N   N15       1.0  0.75784  0.18256  0.85777  1.0000 -0.2523255595
N   N16       1.0  0.18256  0.75784  0.64223  1.0000 -0.2523255595
Cl  Cl1       1.0  0.00220  0.45354  0.16585  1.0000 -0.5779770922
Cl  Cl2       1.0  0.45354  0.00220  0.33415  1.0000 -0.5779770922
Cl  Cl3       1.0  0.99780  0.54646  0.83415  1.0000 -0.5779770922
Cl  Cl4       1.0  0.54646  0.99780  0.66585  1.0000 -0.5779770922
O   O1        1.0  0.46419  0.46213  0.94259  1.0000 -0.8294931661
O   O2        1.0  0.46213  0.46419  0.55741  1.0000 -0.8294931661
O   O3        1.0  0.53581  0.53787  0.05741  1.0000 -0.8294931661
O   O4        1.0  0.53787  0.53581  0.44259  1.0000 -0.8294931661
O   O5        1.0  0.43566  0.60936  0.09201  1.0000 -0.5229964118
O   O6        1.0  0.60936  0.43566  0.40799  1.0000 -0.5229964118
O   O7        1.0  0.56434  0.39064  0.90799  1.0000 -0.5229964118
O   O8        1.0  0.39064  0.56434  0.59201  1.0000 -0.5229964118
O   O9        1.0  0.36706  0.52334  0.36963  1.0000 -0.6521676194
O   O10       1.0  0.52334  0.36706  0.13037  1.0000 -0.6521676194
O   O11       1.0  0.63294  0.47666  0.63037  1.0000 -0.6521676194
O   O12       1.0  0.47666  0.63294  0.86963  1.0000 -0.6521676194
O   O13       1.0  0.27295  0.42909  0.28886  1.0000 -0.5126857768
O   O14       1.0  0.42909  0.27295  0.21114  1.0000 -0.5126857768
O   O15       1.0  0.72705  0.57091  0.71114  1.0000 -0.5126857768
O   O16       1.0  0.57091  0.72705  0.78886  1.0000 -0.5126857768
O   O17       1.0  0.45557  0.65003  0.99287  1.0000 -0.6830118607
O   O18       1.0  0.65003  0.45557  0.50713  1.0000 -0.6830118607
O   O19       1.0  0.54443  0.34997  0.00713  1.0000 -0.6830118607
O   O20       1.0  0.34997  0.54443  0.49287  1.0000 -0.6830118607
O   O21       1.0  0.70904  0.61244  0.98358  1.0000 -0.7061494302
O   O22       1.0  0.61244  0.70904  0.51642  1.0000 -0.7061494302
O   O23       1.0  0.29096  0.38756  0.01642  1.0000 -0.7061494302
O   O24       1.0  0.38756  0.29096  0.48358  1.0000 -0.7061494302
O   O25       1.0  0.24106  0.03794  0.01445  1.0000 -0.5385821026
O   O26       1.0  0.03794  0.24106  0.48555  1.0000 -0.5385821026
O   O27       1.0  0.75894  0.96206  0.98555  1.0000 -0.5385821026
O   O28       1.0  0.96206  0.75894  0.51445  1.0000 -0.5385821026
O   O29       1.0  0.35749  0.17049  0.07578  1.0000 -0.700775386
O   O30       1.0  0.17049  0.35749  0.42422  1.0000 -0.700775386
O   O31       1.0  0.64251  0.82951  0.92422  1.0000 -0.700775386
O   O32       1.0  0.82951  0.64251  0.57578  1.0000 -0.700775386
O   O33       1.0  0.73481  0.59787  0.08423  1.0000 -0.5126857768
O   O34       1.0  0.59787  0.73481  0.41577  1.0000 -0.5126857768
O   O35       1.0  0.26519  0.40213  0.91577  1.0000 -0.5126857768
O   O36       1.0  0.40213  0.26519  0.58423  1.0000 -0.5126857768
