# DDEC6 charges by PACMAN v1.1 (https://github.com/mtap-research/PACMAN-charge/)
data_2017[CuTb][nan]3[ASR]3
_chemical_formula_sum              "Tb4 Cu16 H48 C72 I16 N12 O24"
_cell_length_a       15.318
_cell_length_b       8.0546
_cell_length_c       30.7602
_cell_angle_alpha    90
_cell_angle_beta     109.456
_cell_angle_gamma    90

_symmetry_space_group_name_H-M    "P 1"
_symmetry_Int_Tables_number       1

loop_
  _symmetry_equiv_pos_as_xyz
  'x, y, z'

loop_
  _atom_site_type_symbol
  _atom_site_label
  _atom_site_symmetry_multiplicity
  _atom_site_fract_x
  _atom_site_fract_y
  _atom_site_fract_z
  _atom_site_occupancy
  _atom_site_charge
Tb  Tb1       1.0  0.53815  0.74556  0.49040  1.0000 2.1035995843
Tb  Tb2       1.0  0.46185  0.24556  0.00960  1.0000 2.1035995843
Tb  Tb3       1.0  0.46185  0.25444  0.50960  1.0000 2.1035995843
Tb  Tb4       1.0  0.53815  0.75444  0.99040  1.0000 2.1035995843
Cu  Cu1       1.0  0.81850  0.57790  0.24799  1.0000 0.1496559183
Cu  Cu2       1.0  0.18150  0.07790  0.25201  1.0000 0.1496559183
Cu  Cu3       1.0  0.18150  0.42210  0.75201  1.0000 0.1496559183
Cu  Cu4       1.0  0.81850  0.92210  0.74799  1.0000 0.1496559183
Cu  Cu5       1.0  0.92857  0.30580  0.28455  1.0000 0.1561831745
Cu  Cu6       1.0  0.07143  0.80580  0.21545  1.0000 0.1561831745
Cu  Cu7       1.0  0.07143  0.69420  0.71545  1.0000 0.1561831745
Cu  Cu8       1.0  0.92857  0.19420  0.78455  1.0000 0.1561831745
Cu  Cu9       1.0  0.82150  0.42770  0.32809  1.0000 0.1408747031
Cu  Cu10      1.0  0.17850  0.92770  0.17191  1.0000 0.1408747031
Cu  Cu11      1.0  0.17850  0.57230  0.67191  1.0000 0.1408747031
Cu  Cu12      1.0  0.82150  0.07230  0.82809  1.0000 0.1408747031
Cu  Cu13      1.0  0.96835  0.62310  0.31906  1.0000 0.1496559183
Cu  Cu14      1.0  0.03165  0.12310  0.18094  1.0000 0.1496559183
Cu  Cu15      1.0  0.03165  0.37690  0.68094  1.0000 0.1496559183
Cu  Cu16      1.0  0.96835  0.87690  0.81906  1.0000 0.1496559183
H   H1        1.0  0.26730  0.38100  0.40280  1.0000 0.1294767926
H   H2        1.0  0.73270  0.88100  0.09720  1.0000 0.1294767926
H   H3        1.0  0.73270  0.61900  0.59720  1.0000 0.1294767926
H   H4        1.0  0.26730  0.11900  0.90280  1.0000 0.1294767926
H   H5        1.0  0.36100  0.25720  0.27840  1.0000 0.0993934256
H   H6        1.0  0.63900  0.75720  0.22160  1.0000 0.0993934256
H   H7        1.0  0.63900  0.74280  0.72160  1.0000 0.0993934256
H   H8        1.0  0.36100  0.24280  0.77840  1.0000 0.0993934256
H   H9        1.0  0.45470  0.42230  0.33650  1.0000 0.1294767926
H   H10       1.0  0.54530  0.92230  0.16350  1.0000 0.1294767926
H   H11       1.0  0.54530  0.57770  0.66350  1.0000 0.1294767926
H   H12       1.0  0.45470  0.07770  0.83650  1.0000 0.1294767926
H   H13       1.0  0.79670  0.09670  0.36540  1.0000 0.0993934256
H   H14       1.0  0.20330  0.59670  0.13460  1.0000 0.0993934256
H   H15       1.0  0.20330  0.90330  0.63460  1.0000 0.0993934256
H   H16       1.0  0.79670  0.40330  0.86540  1.0000 0.0993934256
H   H17       1.0  0.17530  0.22700  0.34100  1.0000 0.0993934256
H   H18       1.0  0.82470  0.72700  0.15900  1.0000 0.0993934256
H   H19       1.0  0.82470  0.77300  0.65900  1.0000 0.0993934256
H   H20       1.0  0.17530  0.27300  0.84100  1.0000 0.0993934256
H   H21       1.0  0.71500  0.97060  0.40810  1.0000 0.1408747031
H   H22       1.0  0.28500  0.47060  0.09190  1.0000 0.1408747031
H   H23       1.0  0.28500  0.02940  0.59190  1.0000 0.1408747031
H   H24       1.0  0.71500  0.52940  0.90810  1.0000 0.1408747031
H   H25       1.0  0.67620  0.52320  0.36860  1.0000 0.1074863958
H   H26       1.0  0.32380  0.02320  0.13140  1.0000 0.1074863958
H   H27       1.0  0.32380  0.47680  0.63140  1.0000 0.1074863958
H   H28       1.0  0.67620  0.97680  0.86860  1.0000 0.1074863958
H   H29       1.0  0.16160  0.03480  0.43150  1.0000 0.1294767926
H   H30       1.0  0.83840  0.53480  0.06850  1.0000 0.1294767926
H   H31       1.0  0.83840  0.96520  0.56850  1.0000 0.1294767926
H   H32       1.0  0.16160  0.46520  0.93150  1.0000 0.1294767926
H   H33       1.0  0.02800  0.89970  0.38770  1.0000 0.1074863958
H   H34       1.0  0.97200  0.39970  0.11230  1.0000 0.1074863958
H   H35       1.0  0.97200  0.10030  0.61230  1.0000 0.1074863958
H   H36       1.0  0.02800  0.60030  0.88770  1.0000 0.1074863958
H   H37       1.0  0.59270  0.41020  0.41280  1.0000 0.1294767926
H   H38       1.0  0.40730  0.91020  0.08720  1.0000 0.1294767926
H   H39       1.0  0.40730  0.58980  0.58720  1.0000 0.1294767926
H   H40       1.0  0.59270  0.08980  0.91280  1.0000 0.1294767926
H   H41       1.0  0.30640  0.74590  0.37280  1.0000 0.1294767926
H   H42       1.0  0.69360  0.24590  0.12720  1.0000 0.1294767926
H   H43       1.0  0.69360  0.25410  0.62720  1.0000 0.1294767926
H   H44       1.0  0.30640  0.75410  0.87280  1.0000 0.1294767926
H   H45       1.0  0.16720  0.62580  0.32800  1.0000 0.0993934256
H   H46       1.0  0.83280  0.12580  0.17200  1.0000 0.0993934256
H   H47       1.0  0.83280  0.37420  0.67200  1.0000 0.0993934256
H   H48       1.0  0.16720  0.87420  0.82800  1.0000 0.0993934256
C   C1        1.0  0.43410  0.51780  0.41650  1.0000 0.5895888867
C   C2        1.0  0.56590  0.01780  0.08350  1.0000 0.5895888867
C   C3        1.0  0.56590  0.48220  0.58350  1.0000 0.5895888867
C   C4        1.0  0.43410  0.98220  0.91650  1.0000 0.5895888867
C   C5        1.0  0.24960  0.90350  0.40770  1.0000 0.0158941125
C   C6        1.0  0.75040  0.40350  0.09230  1.0000 0.0158941125
C   C7        1.0  0.75040  0.09650  0.59230  1.0000 0.0158941125
C   C8        1.0  0.24960  0.59650  0.90770  1.0000 0.0158941125
C   C9        1.0  0.37400  0.41630  0.37690  1.0000 0.0082320686
C   C10       1.0  0.62600  0.91630  0.12310  1.0000 0.0082320686
C   C11       1.0  0.62600  0.58370  0.62310  1.0000 0.0082320686
C   C12       1.0  0.37400  0.08370  0.87690  1.0000 0.0082320686
C   C13       1.0  0.28790  0.35730  0.37750  1.0000 -0.1420185277
C   C14       1.0  0.71210  0.85730  0.12250  1.0000 -0.1420185277
C   C15       1.0  0.71210  0.64270  0.62250  1.0000 -0.1420185277
C   C16       1.0  0.28790  0.14270  0.87750  1.0000 -0.1420185277
C   C17       1.0  0.33830  0.97980  0.43830  1.0000 0.6411358478
C   C18       1.0  0.66170  0.47980  0.06170  1.0000 0.6411358478
C   C19       1.0  0.66170  0.02020  0.56170  1.0000 0.6411358478
C   C20       1.0  0.33830  0.52020  0.93830  1.0000 0.6411358478
C   C21       1.0  0.34130  0.28310  0.30380  1.0000 0.0777074142
C   C22       1.0  0.65870  0.78310  0.19620  1.0000 0.0777074142
C   C23       1.0  0.65870  0.71690  0.69620  1.0000 0.0777074142
C   C24       1.0  0.34130  0.21690  0.80380  1.0000 0.0777074142
C   C25       1.0  0.64560  0.17760  0.41510  1.0000 0.0158941125
C   C26       1.0  0.35440  0.67760  0.08490  1.0000 0.0158941125
C   C27       1.0  0.35440  0.82240  0.58490  1.0000 0.0158941125
C   C28       1.0  0.64560  0.32240  0.91510  1.0000 0.0158941125
C   C29       1.0  0.39840  0.38030  0.33880  1.0000 -0.1420185277
C   C30       1.0  0.60160  0.88030  0.16120  1.0000 -0.1420185277
C   C31       1.0  0.60160  0.61970  0.66120  1.0000 -0.1493605611
C   C32       1.0  0.39840  0.11970  0.83880  1.0000 -0.1420185277
C   C33       1.0  0.75520  0.16170  0.37540  1.0000 0.0680305321
C   C34       1.0  0.24480  0.66170  0.12460  1.0000 0.0680305321
C   C35       1.0  0.24480  0.83830  0.62460  1.0000 0.0680305321
C   C36       1.0  0.75520  0.33830  0.87540  1.0000 0.0680305321
C   C37       1.0  0.23380  0.26430  0.34060  1.0000 0.0680305321
C   C38       1.0  0.76620  0.76430  0.15940  1.0000 0.0680305321
C   C39       1.0  0.76620  0.73570  0.65940  1.0000 0.0680305321
C   C40       1.0  0.23380  0.23570  0.84060  1.0000 0.0680305321
C   C41       1.0  0.70650  0.08530  0.40080  1.0000 -0.1420185277
C   C42       1.0  0.29350  0.58530  0.09920  1.0000 -0.1420185277
C   C43       1.0  0.29350  0.91470  0.59920  1.0000 -0.1420185277
C   C44       1.0  0.70650  0.41470  0.90080  1.0000 -0.1420185277
C   C45       1.0  0.68540  0.40980  0.37740  1.0000 0.0680305321
C   C46       1.0  0.31460  0.90980  0.12260  1.0000 0.0680305321
C   C47       1.0  0.31460  0.59020  0.62260  1.0000 0.0680305321
C   C48       1.0  0.68540  0.09020  0.87740  1.0000 0.0680305321
C   C49       1.0  0.16500  0.94860  0.41110  1.0000 -0.1493605611
C   C50       1.0  0.83500  0.44860  0.08890  1.0000 -0.1493605611
C   C51       1.0  0.83500  0.05140  0.58890  1.0000 -0.1493605611
C   C52       1.0  0.16500  0.55140  0.91110  1.0000 -0.1493605611
C   C53       1.0  0.08530  0.86790  0.38460  1.0000 0.0777074142
C   C54       1.0  0.91470  0.36790  0.11540  1.0000 0.0777074142
C   C55       1.0  0.91470  0.13210  0.61540  1.0000 0.0777074142
C   C56       1.0  0.08530  0.63210  0.88460  1.0000 0.0777074142
C   C57       1.0  0.63420  0.34300  0.40340  1.0000 -0.1420185277
C   C58       1.0  0.36580  0.84300  0.09660  1.0000 -0.1420185277
C   C59       1.0  0.36580  0.65700  0.59660  1.0000 -0.1420185277
C   C60       1.0  0.63420  0.15700  0.90340  1.0000 -0.1420185277
C   C61       1.0  0.59020  0.10030  0.44450  1.0000 0.64509604
C   C62       1.0  0.40980  0.60030  0.05550  1.0000 0.6411358478
C   C63       1.0  0.40980  0.89970  0.55550  1.0000 0.64509604
C   C64       1.0  0.59020  0.39970  0.94450  1.0000 0.64509604
C   C65       1.0  0.24990  0.78030  0.37640  1.0000 -0.1420185277
C   C66       1.0  0.75010  0.28030  0.12360  1.0000 -0.1420185277
C   C67       1.0  0.75010  0.21970  0.62360  1.0000 -0.1420185277
C   C68       1.0  0.24990  0.71970  0.87640  1.0000 -0.1420185277
C   C69       1.0  0.16660  0.70730  0.35020  1.0000 0.0680305321
C   C70       1.0  0.83340  0.20730  0.14980  1.0000 0.0680305321
C   C71       1.0  0.83340  0.29270  0.64980  1.0000 0.0680305321
C   C72       1.0  0.16660  0.79270  0.85020  1.0000 0.0680305321
I   I1        1.0  0.00148  0.33490  0.37490  1.0000 -0.2987511692
I   I2        1.0  0.99852  0.83490  0.12510  1.0000 -0.2987511692
I   I3        1.0  0.99852  0.66510  0.62510  1.0000 -0.2987511692
I   I4        1.0  0.00148  0.16510  0.87490  1.0000 -0.2987511692
I   I5        1.0  0.98807  0.54561  0.23856  1.0000 -0.2164366432
I   I6        1.0  0.01193  0.04561  0.26144  1.0000 -0.2164366432
I   I7        1.0  0.01193  0.45439  0.76144  1.0000 -0.2146882502
I   I8        1.0  0.98807  0.95439  0.73856  1.0000 -0.2164366432
I   I9        1.0  0.75020  0.27190  0.24757  1.0000 -0.2659465907
I   I10       1.0  0.24980  0.77190  0.25243  1.0000 -0.2646196026
I   I11       1.0  0.24980  0.72810  0.75243  1.0000 -0.2646196026
I   I12       1.0  0.75020  0.22810  0.74757  1.0000 -0.2646196026
I   I13       1.0  0.81542  0.75368  0.32475  1.0000 -0.2913539348
I   I14       1.0  0.18458  0.25368  0.17525  1.0000 -0.2913539348
I   I15       1.0  0.18458  0.24632  0.67525  1.0000 -0.2913539348
I   I16       1.0  0.81542  0.74632  0.82475  1.0000 -0.2913539348
N   N1        1.0  0.08590  0.74780  0.35520  1.0000 -0.1610141185
N   N2        1.0  0.91410  0.24780  0.14480  1.0000 -0.1493605611
N   N3        1.0  0.91410  0.25220  0.64480  1.0000 -0.1493605611
N   N4        1.0  0.08590  0.75220  0.85520  1.0000 -0.1610141185
N   N5        1.0  0.25910  0.22300  0.30380  1.0000 -0.1610141185
N   N6        1.0  0.74090  0.72300  0.19620  1.0000 -0.1610141185
N   N7        1.0  0.74090  0.77700  0.69620  1.0000 -0.1610141185
N   N8        1.0  0.25910  0.27700  0.80380  1.0000 -0.1610141185
N   N9        1.0  0.74620  0.32250  0.36450  1.0000 -0.1665369322
N   N10       1.0  0.25380  0.82250  0.13550  1.0000 -0.1665369322
N   N11       1.0  0.25380  0.67750  0.63550  1.0000 -0.1665369322
N   N12       1.0  0.74620  0.17750  0.86450  1.0000 -0.1665369322
O   O1        1.0  0.43120  0.49550  0.45730  1.0000 -0.743231946
O   O2        1.0  0.56880  0.99550  0.04270  1.0000 -0.743231946
O   O3        1.0  0.56880  0.50450  0.54270  1.0000 -0.743231946
O   O4        1.0  0.43120  0.00450  0.95730  1.0000 -0.743231946
O   O5        1.0  0.59890  0.94790  0.45230  1.0000 -0.6560954241
O   O6        1.0  0.40110  0.44790  0.04770  1.0000 -0.6560954241
O   O7        1.0  0.40110  0.05210  0.54770  1.0000 -0.6560954241
O   O8        1.0  0.59890  0.55210  0.95230  1.0000 -0.6560954241
O   O9        1.0  0.40970  0.88760  0.44860  1.0000 -0.7084189741
O   O10       1.0  0.59030  0.38760  0.05140  1.0000 -0.7084189741
O   O11       1.0  0.59030  0.11240  0.55140  1.0000 -0.7084189741
O   O12       1.0  0.40970  0.61240  0.94860  1.0000 -0.7084189741
O   O13       1.0  0.33760  0.12220  0.45260  1.0000 -0.6320104984
O   O14       1.0  0.66240  0.62220  0.04740  1.0000 -0.6320104984
O   O15       1.0  0.66240  0.87780  0.54740  1.0000 -0.6320104984
O   O16       1.0  0.33760  0.37780  0.95260  1.0000 -0.6320104984
O   O17       1.0  0.48780  0.62600  0.41010  1.0000 -0.6052378652
O   O18       1.0  0.51220  0.12600  0.08990  1.0000 -0.6044022081
O   O19       1.0  0.51220  0.37400  0.58990  1.0000 -0.6044022081
O   O20       1.0  0.48780  0.87400  0.91010  1.0000 -0.6044022081
O   O21       1.0  0.53860  0.20000  0.45650  1.0000 -0.6837113736
O   O22       1.0  0.46140  0.70000  0.04350  1.0000 -0.6837113736
O   O23       1.0  0.46140  0.80000  0.54350  1.0000 -0.6837113736
O   O24       1.0  0.53860  0.30000  0.95650  1.0000 -0.6837113736
