# DDEC6 charges by PACMAN v1.1 (https://github.com/mtap-research/PACMAN-charge/)
data_2017[Mn][eft]3[ASR]1
_chemical_formula_sum              "Mn6 H20 C32 N32 Cl4 O2"
_cell_length_a       11.788
_cell_length_b       10.907
_cell_length_c       12.073
_cell_angle_alpha    90
_cell_angle_beta     106.232
_cell_angle_gamma    90

_symmetry_space_group_name_H-M    "P 1"
_symmetry_Int_Tables_number       1

loop_
  _symmetry_equiv_pos_as_xyz
  'x, y, z'

loop_
  _atom_site_type_symbol
  _atom_site_label
  _atom_site_symmetry_multiplicity
  _atom_site_fract_x
  _atom_site_fract_y
  _atom_site_fract_z
  _atom_site_occupancy
  _atom_site_charge
Mn  Mn1       1.0  0.22110  0.50000  0.27721  1.0000 0.7077438882
Mn  Mn2       1.0  0.77890  0.50000  0.72279  1.0000 0.7077438882
Mn  Mn3       1.0  0.50000  0.00000  0.00000  1.0000 0.6473284117
Mn  Mn4       1.0  0.23670  0.00000  0.76108  1.0000 0.6565221003
Mn  Mn5       1.0  0.76330  0.00000  0.23892  1.0000 0.6565221003
Mn  Mn6       1.0  0.50000  0.50000  0.50000  1.0000 0.7787168375
H   H1        1.0  0.44170  0.56310  0.28700  1.0000 0.3045067466
H   H2        1.0  0.61120  0.75090  0.90390  1.0000 0.1103182287
H   H3        1.0  0.01270  0.88120  0.39350  1.0000 0.1103182287
H   H4        1.0  0.82610  0.76610  0.09230  1.0000 0.1237654141
H   H5        1.0  0.95910  0.61360  0.09700  1.0000 0.1103182287
H   H6        1.0  0.55830  0.56310  0.71300  1.0000 0.3045067466
H   H7        1.0  0.38880  0.75090  0.09610  1.0000 0.1103182287
H   H8        1.0  0.98730  0.88120  0.60650  1.0000 0.1103182287
H   H9        1.0  0.17390  0.76610  0.90770  1.0000 0.1237654141
H   H10       1.0  0.04090  0.61360  0.90300  1.0000 0.1103182287
H   H11       1.0  0.55830  0.43690  0.71300  1.0000 0.3045067466
H   H12       1.0  0.38880  0.24910  0.09610  1.0000 0.1103182287
H   H13       1.0  0.98730  0.11880  0.60650  1.0000 0.1103182287
H   H14       1.0  0.17390  0.23390  0.90770  1.0000 0.1237654141
H   H15       1.0  0.04090  0.38640  0.90300  1.0000 0.1103182287
H   H16       1.0  0.44170  0.43690  0.28700  1.0000 0.3045067466
H   H17       1.0  0.61120  0.24910  0.90390  1.0000 0.1103182287
H   H18       1.0  0.01270  0.11880  0.39350  1.0000 0.1103182287
H   H19       1.0  0.82610  0.23390  0.09230  1.0000 0.1237654141
H   H20       1.0  0.95910  0.38640  0.09700  1.0000 0.1103182287
C   C1        1.0  0.33095  0.73213  0.57875  1.0000 0.2385104871
C   C2        1.0  0.40316  0.76686  0.69449  1.0000 0.2305979556
C   C3        1.0  0.54160  0.76940  0.84751  1.0000 0.130377376
C   C4        1.0  0.00048  0.82757  0.33138  1.0000 -0.0063648089
C   C5        1.0  0.89164  0.75960  0.15624  1.0000 0.005398524
C   C6        1.0  0.19229  0.72119  0.42717  1.0000 0.2249615989
C   C7        1.0  0.08349  0.73556  0.33333  1.0000 0.130377376
C   C8        1.0  0.97214  0.66780  0.15882  1.0000 0.0355997099
C   C9        1.0  0.66905  0.73213  0.42125  1.0000 0.2385104871
C   C10       1.0  0.59684  0.76686  0.30551  1.0000 0.2305979556
C   C11       1.0  0.45840  0.76940  0.15249  1.0000 0.130377376
C   C12       1.0  0.99952  0.82757  0.66862  1.0000 -0.0063648089
C   C13       1.0  0.10836  0.75960  0.84376  1.0000 0.005398524
C   C14       1.0  0.80771  0.72119  0.57283  1.0000 0.2249615989
C   C15       1.0  0.91651  0.73556  0.66667  1.0000 0.130377376
C   C16       1.0  0.02786  0.66780  0.84118  1.0000 0.0355997099
C   C17       1.0  0.66905  0.26787  0.42125  1.0000 0.2385104871
C   C18       1.0  0.59684  0.23314  0.30551  1.0000 0.2305979556
C   C19       1.0  0.45840  0.23060  0.15249  1.0000 0.130377376
C   C20       1.0  0.99952  0.17243  0.66862  1.0000 -0.0063648089
C   C21       1.0  0.10836  0.24040  0.84376  1.0000 0.005398524
C   C22       1.0  0.80771  0.27881  0.57283  1.0000 0.2249615989
C   C23       1.0  0.91651  0.26444  0.66667  1.0000 0.130377376
C   C24       1.0  0.02786  0.33220  0.84118  1.0000 0.0355997099
C   C25       1.0  0.33095  0.26787  0.57875  1.0000 0.2385104871
C   C26       1.0  0.40316  0.23314  0.69449  1.0000 0.2305979556
C   C27       1.0  0.54160  0.23060  0.84751  1.0000 0.130377376
C   C28       1.0  0.00048  0.17243  0.33138  1.0000 -0.0063648089
C   C29       1.0  0.89164  0.24040  0.15624  1.0000 0.005398524
C   C30       1.0  0.19229  0.27881  0.42717  1.0000 0.2249615989
C   C31       1.0  0.08349  0.26444  0.33333  1.0000 0.130377376
C   C32       1.0  0.97214  0.33220  0.15882  1.0000 0.0355997099
N   N1        1.0  0.22643  0.78489  0.52631  1.0000 -0.4135074862
N   N2        1.0  0.36095  0.64295  0.51554  1.0000 -0.2108563413
N   N3        1.0  0.37714  0.85641  0.75896  1.0000 -0.2108563413
N   N4        1.0  0.46900  0.85708  0.85916  1.0000 -0.1896433705
N   N5        1.0  0.50583  0.70932  0.74667  1.0000 -0.3512982898
N   N6        1.0  0.90427  0.84037  0.24276  1.0000 -0.1595529565
N   N7        1.0  0.26931  0.63704  0.41742  1.0000 -0.2108563413
N   N8        1.0  0.06895  0.65411  0.24795  1.0000 -0.2108563413
N   N9        1.0  0.77357  0.78489  0.47369  1.0000 -0.4135074862
N   N10       1.0  0.63905  0.64295  0.48446  1.0000 -0.2108563413
N   N11       1.0  0.62286  0.85641  0.24104  1.0000 -0.2108563413
N   N12       1.0  0.53100  0.85708  0.14084  1.0000 -0.1896433705
N   N13       1.0  0.49417  0.70932  0.25333  1.0000 -0.3512982898
N   N14       1.0  0.09573  0.84037  0.75724  1.0000 -0.1595529565
N   N15       1.0  0.73069  0.63704  0.58258  1.0000 -0.2108563413
N   N16       1.0  0.93105  0.65411  0.75205  1.0000 -0.2108563413
N   N17       1.0  0.77357  0.21511  0.47369  1.0000 -0.4135074862
N   N18       1.0  0.63905  0.35705  0.48446  1.0000 -0.2108563413
N   N19       1.0  0.62286  0.14359  0.24104  1.0000 -0.2108563413
N   N20       1.0  0.53100  0.14292  0.14084  1.0000 -0.1896433705
N   N21       1.0  0.49417  0.29068  0.25333  1.0000 -0.3512982898
N   N22       1.0  0.09573  0.15963  0.75724  1.0000 -0.1595529565
N   N23       1.0  0.73069  0.36296  0.58258  1.0000 -0.2108563413
N   N24       1.0  0.93105  0.34589  0.75205  1.0000 -0.2108563413
N   N25       1.0  0.22643  0.21511  0.52631  1.0000 -0.4135074862
N   N26       1.0  0.36095  0.35705  0.51554  1.0000 -0.2108563413
N   N27       1.0  0.37714  0.14359  0.75896  1.0000 -0.2108563413
N   N28       1.0  0.46900  0.14292  0.85916  1.0000 -0.1896433705
N   N29       1.0  0.50583  0.29068  0.74667  1.0000 -0.3512982898
N   N30       1.0  0.90427  0.15963  0.24276  1.0000 -0.1595529565
N   N31       1.0  0.26931  0.36296  0.41742  1.0000 -0.2108563413
N   N32       1.0  0.06895  0.34589  0.24795  1.0000 -0.2108563413
Cl  Cl1       1.0  0.20844  0.50000  0.07639  1.0000 -0.5579699525
Cl  Cl2       1.0  0.79156  0.50000  0.92361  1.0000 -0.5579699525
Cl  Cl3       1.0  0.27954  0.00000  0.97397  1.0000 -0.465656484
Cl  Cl4       1.0  0.72046  0.00000  0.02603  1.0000 -0.4632462808
O   O1        1.0  0.41945  0.50000  0.31655  1.0000 -0.6373824724
O   O2        1.0  0.58055  0.50000  0.68345  1.0000 -0.6373824724
