# DDEC6 charges by PACMAN v1.1 (https://github.com/mtap-research/PACMAN-charge/)
data_2017[Zn][lvt]3[ASR]2
_chemical_formula_sum              "Zn4 H56 C64 N8 O16"
_cell_length_a       21.7113
_cell_length_b       19.4022
_cell_length_c       11.3685
_cell_angle_alpha    85.5394
_cell_angle_beta     62.9916
_cell_angle_gamma    31.469

_symmetry_space_group_name_H-M    "P 1"
_symmetry_Int_Tables_number       1

loop_
  _symmetry_equiv_pos_as_xyz
  'x, y, z'

loop_
  _atom_site_type_symbol
  _atom_site_label
  _atom_site_symmetry_multiplicity
  _atom_site_fract_x
  _atom_site_fract_y
  _atom_site_fract_z
  _atom_site_occupancy
  _atom_site_charge
Zn  Zn1       1.0  0.30121  0.90683  0.28377  1.0000 0.7316173132
Zn  Zn2       1.0  0.28377  0.50819  0.30121  1.0000 0.7316173132
Zn  Zn3       1.0  0.74181  0.96623  0.34317  1.0000 0.7316173132
Zn  Zn4       1.0  0.34317  0.94879  0.74181  1.0000 0.7316173132
H   H1        1.0  0.59300  0.62940  0.25720  1.0000 0.1128583516
H   H2        1.0  0.85440  0.44320  0.09920  1.0000 0.1477063785
H   H3        1.0  0.80560  0.59440  0.82160  1.0000 0.1477063785
H   H4        1.0  0.54730  0.77510  0.98630  1.0000 0.1202253951
H   H5        1.0  0.07490  0.32850  0.88150  1.0000 0.1262597333
H   H6        1.0  0.26470  0.30590  0.46150  1.0000 0.1410066116
H   H7        1.0  0.50350  0.15350  0.32390  1.0000 0.1202253951
H   H8        1.0  0.49960  0.08680  0.65700  1.0000 0.1202253951
H   H9        1.0  0.26530  0.23270  0.80150  1.0000 0.1410066116
H   H10       1.0  0.94930  0.10950  0.79470  1.0000 0.1128583516
H   H11       1.0  0.09300  0.97260  0.78740  1.0000 0.1262597333
H   H12       1.0  0.91150  0.26350  0.85730  1.0000 0.1202253951
H   H13       1.0  0.84860  0.27000  0.00940  1.0000 0.1202253951
H   H14       1.0  0.03800  0.43800  0.69600  1.0000 0.1202253951
H   H15       1.0  0.25720  0.52040  0.59300  1.0000 0.1128583516
H   H16       1.0  0.09920  0.60320  0.85440  1.0000 0.1477063785
H   H17       1.0  0.82160  0.77840  0.80560  1.0000 0.1477063785
H   H18       1.0  0.98630  0.69130  0.54730  1.0000 0.1202253951
H   H19       1.0  0.88150  0.71510  0.07490  1.0000 0.1262597333
H   H20       1.0  0.46150  0.96790  0.26470  1.0000 0.1410066116
H   H21       1.0  0.32390  0.01910  0.50350  1.0000 0.1202253951
H   H22       1.0  0.65700  0.75660  0.49960  1.0000 0.1202253951
H   H23       1.0  0.80150  0.70050  0.26530  1.0000 0.1410066116
H   H24       1.0  0.79470  0.14650  0.94930  1.0000 0.1128583516
H   H25       1.0  0.78740  0.14700  0.09300  1.0000 0.1262597333
H   H26       1.0  0.85730  0.96770  0.91150  1.0000 0.1202253951
H   H27       1.0  0.00940  0.87200  0.84860  1.0000 0.1202253951
H   H28       1.0  0.69600  0.82800  0.03800  1.0000 0.1202253951
H   H29       1.0  0.72960  0.99280  0.62060  1.0000 0.1128583516
H   H30       1.0  0.64680  0.15080  0.80680  1.0000 0.1477063785
H   H31       1.0  0.47160  0.42840  0.65560  1.0000 0.1477063785
H   H32       1.0  0.55870  0.26370  0.47490  1.0000 0.1202253951
H   H33       1.0  0.53490  0.36850  0.92150  1.0000 0.1262597333
H   H34       1.0  0.28210  0.78850  0.94410  1.0000 0.1410066116
H   H35       1.0  0.23090  0.92610  0.09650  1.0000 0.1202253951
H   H36       1.0  0.49340  0.59300  0.16320  1.0000 0.1202253951
H   H37       1.0  0.54950  0.44850  0.01730  1.0000 0.1410066116
H   H38       1.0  0.10350  0.45530  0.14050  1.0000 0.1128583516
H   H39       1.0  0.10300  0.46260  0.27740  1.0000 0.1262597333
H   H40       1.0  0.28230  0.39270  0.98650  1.0000 0.1202253951
H   H41       1.0  0.37800  0.24060  0.98000  1.0000 0.1202253951
H   H42       1.0  0.42200  0.55400  0.81200  1.0000 0.1202253951
H   H43       1.0  0.62060  0.65700  0.72960  1.0000 0.1128583516
H   H44       1.0  0.80680  0.39560  0.64680  1.0000 0.1477063785
H   H45       1.0  0.65560  0.44440  0.47160  1.0000 0.1477063785
H   H46       1.0  0.47490  0.70270  0.55870  1.0000 0.1202253951
H   H47       1.0  0.92150  0.17510  0.53490  1.0000 0.1262597333
H   H48       1.0  0.94410  0.98530  0.28210  1.0000 0.1410066116
H   H49       1.0  0.09650  0.74650  0.23090  1.0000 0.1202253951
H   H50       1.0  0.16320  0.75040  0.49340  1.0000 0.1202253951
H   H51       1.0  0.01730  0.98470  0.54950  1.0000 0.1410066116
H   H52       1.0  0.14050  0.30070  0.10350  1.0000 0.1128583516
H   H53       1.0  0.27740  0.15700  0.10300  1.0000 0.1262597333
H   H54       1.0  0.98650  0.33850  0.28230  1.0000 0.1202253951
H   H55       1.0  0.98000  0.40140  0.37800  1.0000 0.1202253951
H   H56       1.0  0.81200  0.21200  0.42200  1.0000 0.1202253951
C   C1        1.0  0.63562  0.62362  0.16978  1.0000 0.0859891664
C   C2        1.0  0.79319  0.51119  0.07521  1.0000 -0.1800632097
C   C3        1.0  0.85905  0.50065  0.94455  1.0000 0.1581037532
C   C4        1.0  0.76390  0.60090  0.91130  1.0000 -0.1800632097
C   C5        1.0  0.60876  0.70916  0.01084  1.0000 0.0773597325
C   C6        1.0  0.01724  0.39384  0.85356  1.0000 -0.1321384643
C   C7        1.0  0.08484  0.38324  0.73356  1.0000 -0.1489583139
C   C8        1.0  0.23691  0.28551  0.64789  1.0000 0.1581037532
C   C9        1.0  0.31105  0.26145  0.50295  1.0000 -0.1968960051
C   C10       1.0  0.45362  0.17102  0.42198  1.0000 0.0964835848
C   C11       1.0  0.45135  0.13155  0.61765  1.0000 0.0746188651
C   C12       1.0  0.31128  0.21828  0.70452  1.0000 -0.1800632097
C   C13       1.0  0.17678  0.94998  0.57582  1.0000 0.622175258
C   C14       1.0  0.03880  0.05320  0.76680  1.0000 -0.3054247086
C   C15       1.0  0.95118  0.19258  0.88842  1.0000 -0.2936986942
C   C16       1.0  0.08117  0.10597  0.87403  1.0000 0.6028351004
C   C17       1.0  0.16978  0.57098  0.63562  1.0000 0.0859891664
C   C18       1.0  0.07521  0.62041  0.79319  1.0000 -0.1800632097
C   C19       1.0  0.94455  0.69575  0.85905  1.0000 0.1581037532
C   C20       1.0  0.91130  0.72390  0.76390  1.0000 -0.1800632097
C   C21       1.0  0.01084  0.67124  0.60876  1.0000 0.0773597325
C   C22       1.0  0.85356  0.73536  0.01724  1.0000 -0.1321384643
C   C23       1.0  0.73356  0.79836  0.08484  1.0000 -0.1489583139
C   C24       1.0  0.64789  0.82969  0.23691  1.0000 0.1581037532
C   C25       1.0  0.50295  0.92455  0.31105  1.0000 -0.1968960051
C   C26       1.0  0.42198  0.95338  0.45362  1.0000 0.0964835848
C   C27       1.0  0.61765  0.79945  0.45135  1.0000 0.0746188651
C   C28       1.0  0.70452  0.76592  0.31128  1.0000 -0.1852872108
C   C29       1.0  0.57582  0.29742  0.17678  1.0000 0.622175258
C   C30       1.0  0.76680  0.14120  0.03880  1.0000 -0.3049687032
C   C31       1.0  0.88842  0.96782  0.95118  1.0000 -0.2936986942
C   C32       1.0  0.87403  0.93883  0.08117  1.0000 0.6028351004
C   C33       1.0  0.67902  0.08022  0.62638  1.0000 0.0859891664
C   C34       1.0  0.62959  0.17479  0.73881  1.0000 -0.1800632097
C   C35       1.0  0.55425  0.30545  0.74935  1.0000 0.1581037532
C   C36       1.0  0.52610  0.33870  0.64910  1.0000 -0.1800632097
C   C37       1.0  0.57876  0.23916  0.54084  1.0000 0.0773597325
C   C38       1.0  0.51464  0.39644  0.85616  1.0000 -0.1321384643
C   C39       1.0  0.45164  0.51644  0.86676  1.0000 -0.1489583139
C   C40       1.0  0.42031  0.60211  0.96449  1.0000 0.1581037532
C   C41       1.0  0.32545  0.74705  0.98855  1.0000 -0.1968960051
C   C42       1.0  0.29662  0.82802  0.07898  1.0000 0.0964835848
C   C43       1.0  0.45055  0.63235  0.11845  1.0000 0.0746188651
C   C44       1.0  0.48408  0.54548  0.03172  1.0000 -0.1852872108
C   C45       1.0  0.95258  0.67418  0.30002  1.0000 0.622175258
C   C46       1.0  0.10880  0.48320  0.19680  1.0000 -0.3054247086
C   C47       1.0  0.28218  0.36158  0.05742  1.0000 -0.2936986942
C   C48       1.0  0.31117  0.37597  0.14403  1.0000 0.6028351004
C   C49       1.0  0.62638  0.61438  0.67902  1.0000 0.0859891664
C   C50       1.0  0.73881  0.45681  0.62959  1.0000 -0.1800632097
C   C51       1.0  0.74935  0.39095  0.55425  1.0000 0.1581037532
C   C52       1.0  0.64910  0.48610  0.52610  1.0000 -0.1800632097
C   C53       1.0  0.54084  0.64124  0.57876  1.0000 0.0773597325
C   C54       1.0  0.85616  0.23276  0.51464  1.0000 -0.1321384643
C   C55       1.0  0.86676  0.16516  0.45164  1.0000 -0.1489583139
C   C56       1.0  0.96449  0.01309  0.42031  1.0000 0.1581037532
C   C57       1.0  0.98855  0.93895  0.32545  1.0000 -0.1968960051
C   C58       1.0  0.07898  0.79638  0.29662  1.0000 0.0964835848
C   C59       1.0  0.11845  0.79865  0.45055  1.0000 0.0746188651
C   C60       1.0  0.03172  0.93872  0.48408  1.0000 -0.1852872108
C   C61       1.0  0.30002  0.07322  0.95258  1.0000 0.622175258
C   C62       1.0  0.19680  0.21120  0.10880  1.0000 -0.3049687032
C   C63       1.0  0.05742  0.29882  0.28218  1.0000 -0.2936986942
C   C64       1.0  0.14403  0.16883  0.31117  1.0000 0.6028351004
N   N1        1.0  0.54215  0.72397  0.14143  1.0000 -0.231781352
N   N2        1.0  0.52256  0.10792  0.47848  1.0000 -0.2422133532
N   N3        1.0  0.14143  0.59245  0.54215  1.0000 -0.231781352
N   N4        1.0  0.47848  0.89104  0.52256  1.0000 -0.2422133532
N   N5        1.0  0.65755  0.10857  0.52603  1.0000 -0.231781352
N   N6        1.0  0.35896  0.77152  0.14208  1.0000 -0.2422133532
N   N7        1.0  0.52603  0.70785  0.65755  1.0000 -0.231781352
N   N8        1.0  0.14208  0.72744  0.35896  1.0000 -0.2422133532
O   O1        1.0  0.12200  0.04110  0.53030  1.0000 -0.563722748
O   O2        1.0  0.33482  0.78462  0.46738  1.0000 -0.6175370996
O   O3        1.0  0.18512  0.05492  0.74728  1.0000 -0.544327933
O   O4        1.0  0.08749  0.08209  0.97451  1.0000 -0.563722748
O   O5        1.0  0.53030  0.30660  0.12200  1.0000 -0.563722748
O   O6        1.0  0.46738  0.41318  0.33482  1.0000 -0.6175370996
O   O7        1.0  0.74728  0.01268  0.18512  1.0000 -0.544327933
O   O8        1.0  0.97451  0.85591  0.08749  1.0000 -0.563722748
O   O9        1.0  0.94340  0.71970  0.20890  1.0000 -0.563722748
O   O10       1.0  0.83682  0.78262  0.46538  1.0000 -0.6175370996
O   O11       1.0  0.23732  0.50272  0.19508  1.0000 -0.544327933
O   O12       1.0  0.39409  0.27549  0.16791  1.0000 -0.563722748
O   O13       1.0  0.20890  0.12800  0.94340  1.0000 -0.563722748
O   O14       1.0  0.46538  0.91518  0.83682  1.0000 -0.6175370996
O   O15       1.0  0.19508  0.06488  0.23732  1.0000 -0.544327933
O   O16       1.0  0.16791  0.16251  0.39409  1.0000 -0.563722748
