# DDEC6 charges by PACMAN v1.1 (https://github.com/mtap-research/PACMAN-charge/)
data_2017[Nd][kgd]2[ASR]1
_chemical_formula_sum              "Nd4 H60 C96 N24 O24"
_cell_length_a       14.3144
_cell_length_b       14.3144
_cell_length_c       22.6868
_cell_angle_alpha    83.7082
_cell_angle_beta     96.2918
_cell_angle_gamma    120.713

_symmetry_space_group_name_H-M    "P 1"
_symmetry_Int_Tables_number       1

loop_
  _symmetry_equiv_pos_as_xyz
  'x, y, z'

loop_
  _atom_site_type_symbol
  _atom_site_label
  _atom_site_symmetry_multiplicity
  _atom_site_fract_x
  _atom_site_fract_y
  _atom_site_fract_z
  _atom_site_occupancy
  _atom_site_charge
Nd  Nd1       1.0  0.17997  0.27619  0.94324  1.0000 2.02073778
Nd  Nd2       1.0  0.01453  0.08957  0.08050  1.0000 2.02073778
Nd  Nd3       1.0  0.72381  0.82003  0.44324  1.0000 2.02073778
Nd  Nd4       1.0  0.91043  0.98547  0.58050  1.0000 2.0114925433
H   H1        1.0  0.80980  0.68480  0.03430  1.0000 0.1098456378
H   H2        1.0  0.65520  0.52480  0.01000  1.0000 0.1098456378
H   H3        1.0  0.48690  0.50430  0.01340  1.0000 0.1303381956
H   H4        1.0  0.62490  0.80990  0.06160  1.0000 0.1303381956
H   H5        1.0  0.12970  0.47510  0.04740  1.0000 0.1394732449
H   H6        1.0  0.80920  0.28640  0.01100  1.0000 0.1098456378
H   H7        1.0  0.78560  0.43140  0.02380  1.0000 0.1098456378
H   H8        1.0  0.93260  0.59840  0.04300  1.0000 0.1219253767
H   H9        1.0  0.61750  0.16390  0.07270  1.0000 0.1219253767
H   H10       1.0  0.60220  0.31660  0.06810  1.0000 0.1098456378
H   H11       1.0  0.43240  0.30280  0.06170  1.0000 0.1219253767
H   H12       1.0  0.29230  0.97690  0.06880  1.0000 0.1303381956
H   H13       1.0  0.38170  0.67890  0.91570  1.0000 0.1098456378
H   H14       1.0  0.40120  0.85000  0.90590  1.0000 0.1039783139
H   H15       1.0  0.25360  0.87260  0.90070  1.0000 0.1219253767
H   H16       1.0  0.05800  0.54860  0.90390  1.0000 0.1303381956
H   H17       1.0  0.89730  0.87710  0.92030  1.0000 0.1394732449
H   H18       1.0  0.77250  0.07390  0.91460  1.0000 0.1303381956
H   H19       1.0  0.59980  0.92520  0.89180  1.0000 0.1098456378
H   H20       1.0  0.57830  0.76210  0.87700  1.0000 0.1303381956
H   H21       1.0  0.68020  0.19360  0.88760  1.0000 0.1219253767
H   H22       1.0  0.51600  0.04760  0.91260  1.0000 0.1098456378
H   H23       1.0  0.36910  0.06670  0.92040  1.0000 0.1098456378
H   H24       1.0  0.56110  0.39150  0.90200  1.0000 0.1303381956
H   H25       1.0  0.37930  0.56550  0.03490  1.0000 0.2898414571
H   H26       1.0  0.11230  0.70490  0.06920  1.0000 0.2898414571
H   H27       1.0  0.54240  0.98680  0.07310  1.0000 0.2898414571
H   H28       1.0  0.07300  0.80160  0.89920  1.0000 0.2898414571
H   H29       1.0  0.79080  0.37480  0.87740  1.0000 0.2838743556
H   H30       1.0  0.64520  0.64940  0.88110  1.0000 0.2898414571
H   H31       1.0  0.31520  0.19020  0.53430  1.0000 0.1098456378
H   H32       1.0  0.47520  0.34480  0.51000  1.0000 0.1098456378
H   H33       1.0  0.49570  0.51310  0.51340  1.0000 0.1303381956
H   H34       1.0  0.19010  0.37510  0.56160  1.0000 0.1303381956
H   H35       1.0  0.52490  0.87030  0.54740  1.0000 0.1394732449
H   H36       1.0  0.71360  0.19080  0.51100  1.0000 0.1098456378
H   H37       1.0  0.56860  0.21440  0.52380  1.0000 0.1098456378
H   H38       1.0  0.40160  0.06740  0.54300  1.0000 0.1219253767
H   H39       1.0  0.83610  0.38250  0.57270  1.0000 0.1219253767
H   H40       1.0  0.68340  0.39780  0.56810  1.0000 0.1098456378
H   H41       1.0  0.69720  0.56760  0.56170  1.0000 0.1219253767
H   H42       1.0  0.02310  0.70770  0.56880  1.0000 0.1303381956
H   H43       1.0  0.32110  0.61830  0.41570  1.0000 0.1098456378
H   H44       1.0  0.15000  0.59880  0.40590  1.0000 0.1039783139
H   H45       1.0  0.12740  0.74640  0.40070  1.0000 0.1219253767
H   H46       1.0  0.45140  0.94200  0.40390  1.0000 0.1303381956
H   H47       1.0  0.12290  0.10270  0.42030  1.0000 0.1394732449
H   H48       1.0  0.92610  0.22750  0.41460  1.0000 0.1303381956
H   H49       1.0  0.07480  0.40020  0.39180  1.0000 0.1098456378
H   H50       1.0  0.23790  0.42170  0.37700  1.0000 0.1303381956
H   H51       1.0  0.80640  0.31980  0.38760  1.0000 0.1219253767
H   H52       1.0  0.95240  0.48400  0.41260  1.0000 0.1098456378
H   H53       1.0  0.93330  0.63090  0.42040  1.0000 0.1098456378
H   H54       1.0  0.60850  0.43890  0.40200  1.0000 0.1303381956
H   H55       1.0  0.43450  0.62070  0.53490  1.0000 0.2898414571
H   H56       1.0  0.29510  0.88770  0.56920  1.0000 0.2898414571
H   H57       1.0  0.01320  0.45760  0.57310  1.0000 0.2898414571
H   H58       1.0  0.19840  0.92700  0.39920  1.0000 0.2898414571
H   H59       1.0  0.62520  0.20920  0.37740  1.0000 0.2838743556
H   H60       1.0  0.35060  0.35480  0.38110  1.0000 0.2898414571
C   C1        1.0  0.83060  0.86920  0.06220  1.0000 0.5587289859
C   C2        1.0  0.73200  0.76320  0.05010  1.0000 -0.0142612761
C   C3        1.0  0.74160  0.67760  0.03490  1.0000 -0.1308493491
C   C4        1.0  0.64930  0.58230  0.02090  1.0000 -0.1028985154
C   C5        1.0  0.54870  0.57010  0.02260  1.0000 -0.1803692401
C   C6        1.0  0.53830  0.65470  0.03790  1.0000 0.2195185204
C   C7        1.0  0.63090  0.75210  0.05150  1.0000 -0.1803692401
C   C8        1.0  0.39220  0.69820  0.05060  1.0000 0.5201080967
C   C9        1.0  0.40570  0.85770  0.06540  1.0000 0.5201080967
C   C10       1.0  0.24220  0.70700  0.05960  1.0000 0.5201080967
C   C11       1.0  0.04660  0.55440  0.04840  1.0000 0.2305790786
C   C12       1.0  0.06050  0.46650  0.04220  1.0000 -0.1803692401
C   C13       1.0  0.97280  0.36740  0.02850  1.0000 0.0089726911
C   C14       1.0  0.86870  0.35330  0.02070  1.0000 -0.1308493491
C   C15       1.0  0.85520  0.44060  0.02760  1.0000 -0.0928343183
C   C16       1.0  0.94270  0.53990  0.04010  1.0000 -0.1900692373
C   C17       1.0  0.98760  0.27240  0.02310  1.0000 0.5717240501
C   C18       1.0  0.45530  0.05410  0.06910  1.0000 0.2398731092
C   C19       1.0  0.54900  0.15720  0.07010  1.0000 -0.208272412
C   C20       1.0  0.53950  0.24830  0.06740  1.0000 -0.0801181044
C   C21       1.0  0.43800  0.24060  0.06370  1.0000 -0.1308493491
C   C22       1.0  0.34630  0.13890  0.06310  1.0000 -0.0156849451
C   C23       1.0  0.35490  0.04530  0.06730  1.0000 -0.1900692373
C   C24       1.0  0.23730  0.12770  0.06010  1.0000 0.6094837118
C   C25       1.0  0.20210  0.48570  0.92600  1.0000 0.5587289859
C   C26       1.0  0.21860  0.59960  0.91360  1.0000 0.0089726911
C   C27       1.0  0.32110  0.68730  0.91270  1.0000 -0.1393187713
C   C28       1.0  0.33190  0.78890  0.90710  1.0000 -0.0928343183
C   C29       1.0  0.24350  0.80270  0.90330  1.0000 -0.1999585649
C   C30       1.0  0.13800  0.71260  0.90320  1.0000 0.2305790786
C   C31       1.0  0.12690  0.61010  0.90650  1.0000 -0.1900692373
C   C32       1.0  0.94210  0.66667  0.89410  1.0000 0.5009572932
C   C33       1.0  0.79090  0.50690  0.88710  1.0000 0.5009572932
C   C34       1.0  0.78030  0.65490  0.89000  1.0000 0.5009572932
C   C35       1.0  0.73490  0.80130  0.89650  1.0000 0.2398731092
C   C36       1.0  0.83790  0.88750  0.91250  1.0000 -0.1900692373
C   C37       1.0  0.84900  0.98960  0.91650  1.0000 0.0157319386
C   C38       1.0  0.76350  0.00610  0.90990  1.0000 -0.1308493491
C   C39       1.0  0.66030  0.91650  0.89580  1.0000 -0.0801181044
C   C40       1.0  0.64700  0.81880  0.88810  1.0000 -0.1999585649
C   C41       1.0  0.96210  0.08670  0.92900  1.0000 0.604104631
C   C42       1.0  0.64100  0.31020  0.89540  1.0000 0.2398731092
C   C43       1.0  0.62400  0.20420  0.89580  1.0000 -0.208272412
C   C44       1.0  0.52440  0.11680  0.90830  1.0000 -0.0928343183
C   C45       1.0  0.43730  0.12790  0.91480  1.0000 -0.1308493491
C   C46       1.0  0.45090  0.23190  0.91280  1.0000 0.0089726911
C   C47       1.0  0.55200  0.32220  0.90320  1.0000 -0.1999585649
C   C48       1.0  0.35630  0.24730  0.92050  1.0000 0.5509733487
C   C49       1.0  0.13080  0.16940  0.56220  1.0000 0.5587289859
C   C50       1.0  0.23680  0.26800  0.55010  1.0000 -0.0142612761
C   C51       1.0  0.32240  0.25840  0.53490  1.0000 -0.1308493491
C   C52       1.0  0.41770  0.35070  0.52090  1.0000 -0.1028985154
C   C53       1.0  0.42990  0.45130  0.52260  1.0000 -0.1803692401
C   C54       1.0  0.34530  0.46170  0.53790  1.0000 0.2195185204
C   C55       1.0  0.24790  0.36910  0.55150  1.0000 -0.1803692401
C   C56       1.0  0.30180  0.60780  0.55060  1.0000 0.5201080967
C   C57       1.0  0.14230  0.59430  0.56540  1.0000 0.5201080967
C   C58       1.0  0.29300  0.75780  0.55960  1.0000 0.5201080967
C   C59       1.0  0.44560  0.95340  0.54840  1.0000 0.2305790786
C   C60       1.0  0.53350  0.93950  0.54220  1.0000 -0.1803692401
C   C61       1.0  0.63260  0.02720  0.52850  1.0000 0.0089726911
C   C62       1.0  0.64670  0.13130  0.52070  1.0000 -0.1308493491
C   C63       1.0  0.55940  0.14480  0.52760  1.0000 -0.0928343183
C   C64       1.0  0.46010  0.05730  0.54010  1.0000 -0.1900692373
C   C65       1.0  0.72760  0.01240  0.52310  1.0000 0.5717240501
C   C66       1.0  0.94590  0.54470  0.56910  1.0000 0.2398731092
C   C67       1.0  0.84280  0.45100  0.57010  1.0000 -0.208272412
C   C68       1.0  0.75170  0.46050  0.56740  1.0000 -0.0801181044
C   C69       1.0  0.75940  0.56200  0.56370  1.0000 -0.1308493491
C   C70       1.0  0.86110  0.65370  0.56310  1.0000 -0.0156849451
C   C71       1.0  0.95470  0.64510  0.56730  1.0000 -0.1900692373
C   C72       1.0  0.87230  0.76270  0.56010  1.0000 0.6094837118
C   C73       1.0  0.51430  0.79790  0.42600  1.0000 0.5587289859
C   C74       1.0  0.40040  0.78140  0.41360  1.0000 0.0089726911
C   C75       1.0  0.31270  0.67890  0.41270  1.0000 -0.1393187713
C   C76       1.0  0.21110  0.66810  0.40710  1.0000 -0.0928343183
C   C77       1.0  0.19730  0.75650  0.40330  1.0000 -0.1999585649
C   C78       1.0  0.28740  0.86200  0.40320  1.0000 0.2305790786
C   C79       1.0  0.38990  0.87310  0.40650  1.0000 -0.1900692373
C   C80       1.0  0.33333  0.05790  0.39410  1.0000 0.5009572932
C   C81       1.0  0.49310  0.20910  0.38710  1.0000 0.5009572932
C   C82       1.0  0.34510  0.21970  0.39000  1.0000 0.5009572932
C   C83       1.0  0.19870  0.26510  0.39650  1.0000 0.2398731092
C   C84       1.0  0.11250  0.16210  0.41250  1.0000 -0.1900692373
C   C85       1.0  0.01040  0.15100  0.41650  1.0000 0.0157319386
C   C86       1.0  0.99390  0.23650  0.40990  1.0000 -0.1308493491
C   C87       1.0  0.08350  0.33970  0.39580  1.0000 -0.0801181044
C   C88       1.0  0.18120  0.35300  0.38810  1.0000 -0.1999585649
C   C89       1.0  0.91330  0.03790  0.42900  1.0000 0.604104631
C   C90       1.0  0.68980  0.35900  0.39540  1.0000 0.2398731092
C   C91       1.0  0.79580  0.37600  0.39580  1.0000 -0.208272412
C   C92       1.0  0.88320  0.47560  0.40830  1.0000 -0.0928343183
C   C93       1.0  0.87210  0.56270  0.41480  1.0000 -0.1308493491
C   C94       1.0  0.76810  0.54910  0.41280  1.0000 0.0089726911
C   C95       1.0  0.67780  0.44800  0.40320  1.0000 -0.1999585649
C   C96       1.0  0.75270  0.64370  0.42050  1.0000 0.5509733487
N   N1        1.0  0.42900  0.63180  0.04060  1.0000 -0.359910525
N   N2        1.0  0.45770  0.80350  0.05830  1.0000 -0.5423052381
N   N3        1.0  0.29760  0.81460  0.06670  1.0000 -0.5423052381
N   N4        1.0  0.28250  0.64450  0.05300  1.0000 -0.5200951269
N   N5        1.0  0.13310  0.66190  0.06020  1.0000 -0.359910525
N   N6        1.0  0.47450  0.96750  0.06950  1.0000 -0.359910525
N   N7        1.0  0.05250  0.73370  0.89890  1.0000 -0.3521082174
N   N8        1.0  0.89980  0.56120  0.88720  1.0000 -0.5200951269
N   N9        1.0  0.88670  0.72050  0.89520  1.0000 -0.5284067761
N   N10       1.0  0.72670  0.54530  0.88690  1.0000 -0.5200951269
N   N11       1.0  0.74650  0.39470  0.88560  1.0000 -0.367078669
N   N12       1.0  0.71290  0.69590  0.88840  1.0000 -0.359910525
N   N13       1.0  0.36820  0.57100  0.54060  1.0000 -0.359910525
N   N14       1.0  0.19650  0.54230  0.55830  1.0000 -0.5423052381
N   N15       1.0  0.18540  0.70240  0.56670  1.0000 -0.5423052381
N   N16       1.0  0.35550  0.71750  0.55300  1.0000 -0.5200951269
N   N17       1.0  0.33810  0.86690  0.56020  1.0000 -0.359910525
N   N18       1.0  0.03250  0.52550  0.56950  1.0000 -0.359910525
N   N19       1.0  0.26630  0.94750  0.39890  1.0000 -0.3521082174
N   N20       1.0  0.43880  0.10020  0.38720  1.0000 -0.5200951269
N   N21       1.0  0.27950  0.11330  0.39520  1.0000 -0.5284067761
N   N22       1.0  0.45470  0.27330  0.38690  1.0000 -0.5200951269
N   N23       1.0  0.60530  0.25350  0.38560  1.0000 -0.367078669
N   N24       1.0  0.30410  0.28710  0.38840  1.0000 -0.359910525
O   O1        1.0  0.15800  0.04100  0.08020  1.0000 -0.6107853721
O   O2        1.0  0.22540  0.20700  0.03750  1.0000 -0.727847762
O   O3        1.0  0.08274  0.28546  0.02770  1.0000 -0.7038488012
O   O4        1.0  0.90740  0.17980  0.01930  1.0000 -0.5710546892
O   O5        1.0  0.92450  0.88470  0.06270  1.0000 -0.5833340954
O   O6        1.0  0.81830  0.94870  0.07360  1.0000 -0.6585981022
O   O7        1.0  0.27890  0.47450  0.95240  1.0000 -0.6443585824
O   O8        1.0  0.11390  0.40570  0.90930  1.0000 -0.5983520221
O   O9        1.0  0.02300  0.07900  0.97240  1.0000 -0.7038488012
O   O10       1.0  0.99440  0.16940  0.89530  1.0000 -0.5710546892
O   O11       1.0  0.26040  0.16700  0.91790  1.0000 -0.624395765
O   O12       1.0  0.37410  0.33850  0.93050  1.0000 -0.6107853721
O   O13       1.0  0.95900  0.84200  0.58020  1.0000 -0.6107853721
O   O14       1.0  0.79300  0.77460  0.53750  1.0000 -0.727847762
O   O15       1.0  0.71454  0.91726  0.52770  1.0000 -0.7038488012
O   O16       1.0  0.82020  0.09260  0.51930  1.0000 -0.5710546892
O   O17       1.0  0.11530  0.07550  0.56270  1.0000 -0.5833340954
O   O18       1.0  0.05130  0.18170  0.57360  1.0000 -0.6585981022
O   O19       1.0  0.52550  0.72110  0.45240  1.0000 -0.6443585824
O   O20       1.0  0.59430  0.88610  0.40930  1.0000 -0.5983520221
O   O21       1.0  0.92100  0.97700  0.47240  1.0000 -0.7038488012
O   O22       1.0  0.83060  0.00560  0.39530  1.0000 -0.5710546892
O   O23       1.0  0.83300  0.73960  0.41790  1.0000 -0.624395765
O   O24       1.0  0.66150  0.62590  0.43050  1.0000 -0.6107853721
