# DDEC6 charges by PACMAN v1.1 (https://github.com/mtap-research/PACMAN-charge/)
data_2017[Co][hcb]2[ASR]2
_chemical_formula_sum              "Co2 H36 C56 N6 O4"
_cell_length_a       7.5151
_cell_length_b       12.1755
_cell_length_c       19.2508
_cell_angle_alpha    105.672
_cell_angle_beta     95.291
_cell_angle_gamma    102.813

_symmetry_space_group_name_H-M    "P 1"
_symmetry_Int_Tables_number       1

loop_
  _symmetry_equiv_pos_as_xyz
  'x, y, z'

loop_
  _atom_site_type_symbol
  _atom_site_label
  _atom_site_symmetry_multiplicity
  _atom_site_fract_x
  _atom_site_fract_y
  _atom_site_fract_z
  _atom_site_occupancy
  _atom_site_charge
Co  Co1       1.0  0.90610  0.66667  0.43983  1.0000 0.5012380457
Co  Co2       1.0  0.09390  0.33333  0.56017  1.0000 0.5012380457
H   H1        1.0  0.62710  0.46640  0.44910  1.0000 0.1107159314
H   H2        1.0  0.43810  0.27990  0.38500  1.0000 0.1393273933
H   H3        1.0  0.63170  0.33900  0.20430  1.0000 0.1280343459
H   H4        1.0  0.79330  0.51600  0.27620  1.0000 0.0929917874
H   H5        1.0  0.43010  0.18280  0.14220  1.0000 0.1107159314
H   H6        1.0  0.13390  0.86560  0.14150  1.0000 0.1171974099
H   H7        1.0  0.16890  0.75730  0.21690  1.0000 0.1171974099
H   H8        1.0  0.05360  0.64240  0.29000  1.0000 0.1012225549
H   H9        1.0  0.05180  0.91290  0.44420  1.0000 0.1107159314
H   H10       1.0  0.15210  0.03750  0.37760  1.0000 0.1393273933
H   H11       1.0  0.28770  0.13560  0.03060  1.0000 0.1107159314
H   H12       1.0  0.22740  0.07060  0.90350  1.0000 0.1107159314
H   H13       1.0  0.13070  0.73550  0.90670  1.0000 0.1107159314
H   H14       1.0  0.19250  0.80000  0.03160  1.0000 0.1107159314
H   H15       1.0  0.27370  0.99250  0.78920  1.0000 0.1107159314
H   H16       1.0  0.21760  0.92230  0.66580  1.0000 0.1171974099
H   H17       1.0  0.86950  0.63040  0.67840  1.0000 0.1107159314
H   H18       1.0  0.94900  0.69320  0.80140  1.0000 0.1107159314
H   H19       1.0  0.37290  0.53360  0.55090  1.0000 0.1107159314
H   H20       1.0  0.56190  0.72010  0.61500  1.0000 0.1393273933
H   H21       1.0  0.36830  0.66100  0.79570  1.0000 0.1280343459
H   H22       1.0  0.20670  0.48400  0.72380  1.0000 0.0929917874
H   H23       1.0  0.56990  0.81720  0.85780  1.0000 0.1107159314
H   H24       1.0  0.86610  0.13440  0.85850  1.0000 0.1171974099
H   H25       1.0  0.83110  0.24270  0.78310  1.0000 0.1280343459
H   H26       1.0  0.94640  0.35760  0.71000  1.0000 0.1012225549
H   H27       1.0  0.94820  0.08710  0.55580  1.0000 0.1107159314
H   H28       1.0  0.84790  0.96250  0.62240  1.0000 0.1393273933
H   H29       1.0  0.71230  0.86440  0.96940  1.0000 0.1107159314
H   H30       1.0  0.77260  0.92940  0.09650  1.0000 0.1107159314
H   H31       1.0  0.86930  0.26450  0.09330  1.0000 0.1107159314
H   H32       1.0  0.80750  0.20000  0.96840  1.0000 0.1107159314
H   H33       1.0  0.72630  0.00750  0.21080  1.0000 0.1107159314
H   H34       1.0  0.78240  0.07770  0.33420  1.0000 0.1171974099
H   H35       1.0  0.13050  0.36960  0.32160  1.0000 0.1107159314
H   H36       1.0  0.05100  0.30680  0.19860  1.0000 0.1107159314
C   C1        1.0  0.62640  0.43900  0.39900  1.0000 0.1012225549
C   C2        1.0  0.50960  0.32560  0.36090  1.0000 -0.175438183
C   C3        1.0  0.50700  0.28550  0.28500  1.0000 0.1012225549
C   C4        1.0  0.62420  0.36150  0.25390  1.0000 -0.1923821443
C   C5        1.0  0.72280  0.46620  0.29820  1.0000 0.0359550989
C   C6        1.0  0.39510  0.16340  0.24120  1.0000 0.1979221044
C   C7        1.0  0.37570  0.13020  0.16610  1.0000 -0.2514976697
C   C8        1.0  0.27150  0.01500  0.12590  1.0000 0.1107159314
C   C9        1.0  0.20040  0.94290  0.16570  1.0000 -0.2399627292
C   C10       1.0  0.22650  0.98410  0.24350  1.0000 0.1979221044
C   C11       1.0  0.16060  0.91130  0.28690  1.0000 0.0635143606
C   C12       1.0  0.13780  0.79230  0.26180  1.0000 -0.1923821443
C   C13       1.0  0.06450  0.72320  0.30670  1.0000 0.0343936322
C   C14       1.0  0.06100  0.87890  0.39570  1.0000 0.0929917874
C   C15       1.0  0.12890  0.95640  0.35650  1.0000 -0.175438183
C   C16       1.0  0.24150  0.97470  0.04520  1.0000 0.065238831
C   C17       1.0  0.25450  0.05510  0.00600  1.0000 -0.1402753392
C   C18       1.0  0.21790  0.01590  0.92960  1.0000 -0.1402753392
C   C19       1.0  0.16740  0.89600  0.89230  1.0000 0.0635143606
C   C20       1.0  0.16040  0.81600  0.93110  1.0000 -0.1509037042
C   C21       1.0  0.19720  0.85510  0.00600  1.0000 -0.1509037042
C   C22       1.0  0.11900  0.85050  0.80890  1.0000 0.065238831
C   C23       1.0  0.19530  0.91780  0.76660  1.0000 -0.1509037042
C   C24       1.0  0.15830  0.87730  0.69310  1.0000 -0.0974088074
C   C25       1.0  0.03030  0.76690  0.65640  1.0000 -0.0490561543
C   C26       1.0  0.95470  0.70290  0.70030  1.0000 -0.0974088074
C   C27       1.0  0.99930  0.74100  0.77400  1.0000 -0.1597510004
C   C28       1.0  0.98430  0.72580  0.57720  1.0000 0.5143755352
C   C29       1.0  0.37360  0.56100  0.60100  1.0000 0.1012225549
C   C30       1.0  0.49040  0.67440  0.63910  1.0000 -0.175438183
C   C31       1.0  0.49300  0.71450  0.71500  1.0000 0.1012225549
C   C32       1.0  0.37580  0.63850  0.74610  1.0000 -0.1923821443
C   C33       1.0  0.27720  0.53380  0.70180  1.0000 0.0359550989
C   C34       1.0  0.60490  0.83660  0.75880  1.0000 0.1979221044
C   C35       1.0  0.62430  0.86980  0.83390  1.0000 -0.2514976697
C   C36       1.0  0.72850  0.98500  0.87410  1.0000 0.1107159314
C   C37       1.0  0.79960  0.05710  0.83430  1.0000 -0.2399627292
C   C38       1.0  0.77350  0.01590  0.75650  1.0000 0.1979221044
C   C39       1.0  0.83940  0.08870  0.71310  1.0000 0.0635143606
C   C40       1.0  0.86220  0.20770  0.73820  1.0000 -0.1923821443
C   C41       1.0  0.93550  0.27680  0.69330  1.0000 0.0343936322
C   C42       1.0  0.93900  0.12110  0.60430  1.0000 0.0929917874
C   C43       1.0  0.87110  0.04360  0.64350  1.0000 -0.1746795648
C   C44       1.0  0.75850  0.02530  0.95480  1.0000 0.065238831
C   C45       1.0  0.74550  0.94490  0.99400  1.0000 -0.1402753392
C   C46       1.0  0.78210  0.98410  0.07040  1.0000 -0.1402753392
C   C47       1.0  0.83260  0.10400  0.10770  1.0000 0.0635143606
C   C48       1.0  0.83960  0.18400  0.06890  1.0000 -0.1509037042
C   C49       1.0  0.80280  0.14490  0.99400  1.0000 -0.1509037042
C   C50       1.0  0.88100  0.14950  0.19110  1.0000 0.065238831
C   C51       1.0  0.80470  0.08220  0.23340  1.0000 -0.1509037042
C   C52       1.0  0.84170  0.12270  0.30690  1.0000 -0.0974088074
C   C53       1.0  0.96970  0.23310  0.34360  1.0000 -0.0490561543
C   C54       1.0  0.04530  0.29710  0.29970  1.0000 -0.0974088074
C   C55       1.0  0.00070  0.25900  0.22600  1.0000 -0.1597510004
C   C56       1.0  0.01570  0.27420  0.42280  1.0000 0.5143755352
N   N1        1.0  0.73220  0.50790  0.37030  1.0000 -0.2399627292
N   N2        1.0  0.32730  0.09440  0.27990  1.0000 -0.2976099277
N   N3        1.0  0.00990  0.76460  0.37120  1.0000 -0.2514976697
N   N4        1.0  0.26780  0.49210  0.62970  1.0000 -0.2399627292
N   N5        1.0  0.67270  0.90560  0.72010  1.0000 -0.2976099277
N   N6        1.0  0.99010  0.23540  0.62880  1.0000 -0.2514976697
O   O1        1.0  0.04480  0.79270  0.54020  1.0000 -0.5289302939
O   O2        1.0  0.88330  0.62470  0.54390  1.0000 -0.5289302939
O   O3        1.0  0.95520  0.20730  0.45980  1.0000 -0.5289302939
O   O4        1.0  0.11670  0.37530  0.45610  1.0000 -0.5289302939
