# DDEC6 charges by PACMAN v1.1 (https://github.com/mtap-research/PACMAN-charge/)
data_2017[Zr][flu]3[ASR]1
_chemical_formula_sum              "Zr6 H44 C80 O24"
_cell_length_a       23.6141
_cell_length_b       20.1066
_cell_length_c       18.7784
_cell_angle_alpha    74.6988
_cell_angle_beta     55.2132
_cell_angle_gamma    50.0881

_symmetry_space_group_name_H-M    "P 1"
_symmetry_Int_Tables_number       1

loop_
  _symmetry_equiv_pos_as_xyz
  'x, y, z'

loop_
  _atom_site_type_symbol
  _atom_site_label
  _atom_site_symmetry_multiplicity
  _atom_site_fract_x
  _atom_site_fract_y
  _atom_site_fract_z
  _atom_site_occupancy
  _atom_site_charge
Zr  Zr1       1.0  0.92998  0.92998  0.07002  1.0000 2.3289939076
Zr  Zr2       1.0  0.07002  0.07002  0.92998  1.0000 2.3289939076
Zr  Zr3       1.0  0.96755  0.03245  0.14433  1.0000 2.4710750491
Zr  Zr4       1.0  0.03245  0.96755  0.85567  1.0000 2.4710750491
Zr  Zr5       1.0  0.14433  0.85567  0.96755  1.0000 2.4710750491
Zr  Zr6       1.0  0.85567  0.14433  0.03245  1.0000 2.4710750491
H   H1        1.0  0.77920  0.88480  0.32980  1.0000 0.1259936676
H   H2        1.0  0.70960  0.86040  0.46180  1.0000 0.1079572835
H   H3        1.0  0.80450  0.91190  0.54670  1.0000 0.1152908732
H   H4        1.0  0.86060  0.95460  0.41480  1.0000 0.1017391804
H   H5        1.0  0.80970  0.79630  0.63210  1.0000 0.1079572835
H   H6        1.0  0.88480  0.77920  0.00620  1.0000 0.1259936676
H   H7        1.0  0.86040  0.70960  0.96820  1.0000 0.1079572835
H   H8        1.0  0.91190  0.80450  0.73690  1.0000 0.1152908732
H   H9        1.0  0.95460  0.86060  0.77000  1.0000 0.1017391804
H   H10       1.0  0.79630  0.80970  0.76190  1.0000 0.1079572835
H   H11       1.0  0.32980  0.00620  0.77920  1.0000 0.1259936676
H   H12       1.0  0.46180  0.96820  0.70960  1.0000 0.1079572835
H   H13       1.0  0.54670  0.73690  0.80450  1.0000 0.1152908732
H   H14       1.0  0.41480  0.77000  0.86060  1.0000 0.1017391804
H   H15       1.0  0.63210  0.76190  0.80970  1.0000 0.1079572835
H   H16       1.0  0.00620  0.32980  0.88480  1.0000 0.1259936676
H   H17       1.0  0.96820  0.46180  0.86040  1.0000 0.1079572835
H   H18       1.0  0.73690  0.54670  0.91190  1.0000 0.1152908732
H   H19       1.0  0.77000  0.41480  0.95460  1.0000 0.1017391804
H   H20       1.0  0.76190  0.63210  0.79630  1.0000 0.1079572835
H   H21       1.0  0.22080  0.11520  0.67020  1.0000 0.1259936676
H   H22       1.0  0.29040  0.13960  0.53820  1.0000 0.1079572835
H   H23       1.0  0.19550  0.08810  0.45330  1.0000 0.1152908732
H   H24       1.0  0.13940  0.04540  0.58520  1.0000 0.1017391804
H   H25       1.0  0.19030  0.20370  0.36790  1.0000 0.1079572835
H   H26       1.0  0.11520  0.22080  0.99380  1.0000 0.1259936676
H   H27       1.0  0.13960  0.29040  0.03180  1.0000 0.1079572835
H   H28       1.0  0.08810  0.19550  0.26310  1.0000 0.1152908732
H   H29       1.0  0.04540  0.13940  0.23000  1.0000 0.1017391804
H   H30       1.0  0.20370  0.19030  0.23810  1.0000 0.1079572835
H   H31       1.0  0.67020  0.99380  0.22080  1.0000 0.1259936676
H   H32       1.0  0.53820  0.03180  0.29040  1.0000 0.1079572835
H   H33       1.0  0.45330  0.26310  0.19550  1.0000 0.1152908732
H   H34       1.0  0.58520  0.23000  0.13940  1.0000 0.1017391804
H   H35       1.0  0.36790  0.23810  0.19030  1.0000 0.1079572835
H   H36       1.0  0.99380  0.67020  0.11520  1.0000 0.1259936676
H   H37       1.0  0.03180  0.53820  0.13960  1.0000 0.1079572835
H   H38       1.0  0.26310  0.45330  0.08810  1.0000 0.1152908732
H   H39       1.0  0.23000  0.58520  0.04540  1.0000 0.1017391804
H   H40       1.0  0.23810  0.36790  0.20370  1.0000 0.1079572835
H   H41       1.0  0.60960  0.89040  0.60960  1.0000 0.1017391804
H   H42       1.0  0.89040  0.60960  0.89040  1.0000 0.1017391804
H   H43       1.0  0.39040  0.10960  0.39040  1.0000 0.1017391804
H   H44       1.0  0.10960  0.39040  0.10960  1.0000 0.1017391804
C   C1        1.0  0.86800  0.94580  0.27020  1.0000 0.6277525336
C   C2        1.0  0.82486  0.92686  0.35774  1.0000 -0.0607342506
C   C3        1.0  0.78129  0.89369  0.37531  1.0000 -0.095188634
C   C4        1.0  0.74432  0.87552  0.45088  1.0000 -0.1380847297
C   C5        1.0  0.75350  0.87690  0.52250  1.0000 0.0691397031
C   C6        1.0  0.79753  0.90773  0.50347  1.0000 -0.1544860243
C   C7        1.0  0.83156  0.93256  0.42464  1.0000 -0.0842377111
C   C8        1.0  0.71642  0.84822  0.60418  1.0000 0.0691397031
C   C9        1.0  0.75819  0.80439  0.65221  1.0000 -0.2024092788
C   C10       1.0  0.94580  0.86800  0.91600  1.0000 0.6277525336
C   C11       1.0  0.92686  0.82486  0.89054  1.0000 -0.0607342506
C   C12       1.0  0.89369  0.78129  0.94971  1.0000 -0.095188634
C   C13       1.0  0.87552  0.74432  0.92928  1.0000 -0.1380847297
C   C14       1.0  0.87690  0.75350  0.84710  1.0000 0.0691397031
C   C15       1.0  0.90773  0.79753  0.79127  1.0000 -0.1544860243
C   C16       1.0  0.93256  0.83156  0.81124  1.0000 -0.0842377111
C   C17       1.0  0.84822  0.71642  0.83118  1.0000 0.0691397031
C   C18       1.0  0.80439  0.75819  0.78521  1.0000 -0.2024092788
C   C19       1.0  0.27020  0.91600  0.86800  1.0000 0.6277525336
C   C20       1.0  0.35774  0.89054  0.82486  1.0000 -0.0607342506
C   C21       1.0  0.37531  0.94971  0.78129  1.0000 -0.095188634
C   C22       1.0  0.45088  0.92928  0.74432  1.0000 -0.1380847297
C   C23       1.0  0.52250  0.84710  0.75350  1.0000 0.0691397031
C   C24       1.0  0.50347  0.79127  0.79753  1.0000 -0.1544860243
C   C25       1.0  0.42464  0.81124  0.83156  1.0000 -0.0842377111
C   C26       1.0  0.60418  0.83118  0.71642  1.0000 0.0691397031
C   C27       1.0  0.65221  0.78521  0.75819  1.0000 -0.2024092788
C   C28       1.0  0.91600  0.27020  0.94580  1.0000 0.6277525336
C   C29       1.0  0.89054  0.35774  0.92686  1.0000 -0.0607342506
C   C30       1.0  0.94971  0.37531  0.89369  1.0000 -0.0900040134
C   C31       1.0  0.92928  0.45088  0.87552  1.0000 -0.1380847297
C   C32       1.0  0.84710  0.52250  0.87690  1.0000 0.0691397031
C   C33       1.0  0.79127  0.50347  0.90773  1.0000 -0.1544860243
C   C34       1.0  0.81124  0.42464  0.93256  1.0000 -0.0842377111
C   C35       1.0  0.83118  0.60418  0.84822  1.0000 0.0691397031
C   C36       1.0  0.78521  0.65221  0.80439  1.0000 -0.2024092788
C   C37       1.0  0.13200  0.05420  0.72980  1.0000 0.6277525336
C   C38       1.0  0.17514  0.07314  0.64226  1.0000 -0.0607342506
C   C39       1.0  0.21871  0.10631  0.62469  1.0000 -0.095188634
C   C40       1.0  0.25568  0.12448  0.54912  1.0000 -0.1380847297
C   C41       1.0  0.24650  0.12310  0.47750  1.0000 0.0691397031
C   C42       1.0  0.20247  0.09227  0.49653  1.0000 -0.1544860243
C   C43       1.0  0.16844  0.06744  0.57536  1.0000 -0.0842377111
C   C44       1.0  0.28358  0.15178  0.39582  1.0000 0.0691397031
C   C45       1.0  0.24181  0.19561  0.34779  1.0000 -0.2024092788
C   C46       1.0  0.05420  0.13200  0.08400  1.0000 0.6277525336
C   C47       1.0  0.07314  0.17514  0.10946  1.0000 -0.0607342506
C   C48       1.0  0.10631  0.21871  0.05029  1.0000 -0.095188634
C   C49       1.0  0.12448  0.25568  0.07072  1.0000 -0.1380847297
C   C50       1.0  0.12310  0.24650  0.15290  1.0000 0.0691397031
C   C51       1.0  0.09227  0.20247  0.20873  1.0000 -0.1544860243
C   C52       1.0  0.06744  0.16844  0.18876  1.0000 -0.0900040134
C   C53       1.0  0.15178  0.28358  0.16882  1.0000 0.0691397031
C   C54       1.0  0.19561  0.24181  0.21479  1.0000 -0.2024092788
C   C55       1.0  0.72980  0.08400  0.13200  1.0000 0.6277525336
C   C56       1.0  0.64226  0.10946  0.17514  1.0000 -0.0607342506
C   C57       1.0  0.62469  0.05029  0.21871  1.0000 -0.0900040134
C   C58       1.0  0.54912  0.07072  0.25568  1.0000 -0.1380847297
C   C59       1.0  0.47750  0.15290  0.24650  1.0000 0.0691397031
C   C60       1.0  0.49653  0.20873  0.20247  1.0000 -0.1544860243
C   C61       1.0  0.57536  0.18876  0.16844  1.0000 -0.0842377111
C   C62       1.0  0.39582  0.16882  0.28358  1.0000 0.0691397031
C   C63       1.0  0.34779  0.21479  0.24181  1.0000 -0.2024092788
C   C64       1.0  0.08400  0.72980  0.05420  1.0000 0.6277525336
C   C65       1.0  0.10946  0.64226  0.07314  1.0000 -0.0607342506
C   C66       1.0  0.05029  0.62469  0.10631  1.0000 -0.095188634
C   C67       1.0  0.07072  0.54912  0.12448  1.0000 -0.1380847297
C   C68       1.0  0.15290  0.47750  0.12310  1.0000 0.0691397031
C   C69       1.0  0.20873  0.49653  0.09227  1.0000 -0.1552740126
C   C70       1.0  0.18876  0.57536  0.06744  1.0000 -0.0900040134
C   C71       1.0  0.16882  0.39582  0.15178  1.0000 0.0691397031
C   C72       1.0  0.21479  0.34779  0.19561  1.0000 -0.2024092788
C   C73       1.0  0.63950  0.86050  0.63950  1.0000 -0.2024092788
C   C74       1.0  0.72530  0.77470  0.72530  1.0000 0.085889189
C   C75       1.0  0.86050  0.63950  0.86050  1.0000 -0.2024092788
C   C76       1.0  0.77470  0.72530  0.77470  1.0000 0.085889189
C   C77       1.0  0.36050  0.13950  0.36050  1.0000 -0.2024092788
C   C78       1.0  0.27470  0.22530  0.27470  1.0000 0.0848055468
C   C79       1.0  0.13950  0.36050  0.13950  1.0000 -0.2024092788
C   C80       1.0  0.22530  0.27470  0.22530  1.0000 0.0848055468
O   O1        1.0  0.89965  0.98459  0.25801  1.0000 -0.6385579198
O   O2        1.0  0.87347  0.92253  0.20987  1.0000 -0.5737623587
O   O3        1.0  0.98459  0.89965  0.85775  1.0000 -0.6385579198
O   O4        1.0  0.92253  0.87347  0.99413  1.0000 -0.5737623587
O   O5        1.0  0.25801  0.85775  0.89965  1.0000 -0.6385579198
O   O6        1.0  0.20987  0.99413  0.87347  1.0000 -0.5737623587
O   O7        1.0  0.85775  0.25801  0.98459  1.0000 -0.6385579198
O   O8        1.0  0.99413  0.20987  0.92253  1.0000 -0.5737623587
O   O9        1.0  0.10035  0.01541  0.74199  1.0000 -0.6385579198
O   O10       1.0  0.12653  0.07747  0.79013  1.0000 -0.5737623587
O   O11       1.0  0.01541  0.10035  0.14225  1.0000 -0.6385579198
O   O12       1.0  0.07747  0.12653  0.00587  1.0000 -0.5737623587
O   O13       1.0  0.74199  0.14225  0.10035  1.0000 -0.6385579198
O   O14       1.0  0.79013  0.00587  0.12653  1.0000 -0.5737623587
O   O15       1.0  0.14225  0.74199  0.01541  1.0000 -0.6385579198
O   O16       1.0  0.00587  0.79013  0.07747  1.0000 -0.5737623587
O   O17       1.0  0.87480  0.05700  0.12520  1.0000 -1.1913343757
O   O18       1.0  0.05700  0.87480  0.94300  1.0000 -1.1913343757
O   O19       1.0  0.12520  0.94300  0.87480  1.0000 -1.1913343757
O   O20       1.0  0.94300  0.12520  0.05700  1.0000 -1.1913343757
O   O21       1.0  0.02370  0.90890  0.09110  1.0000 -1.1834457009
O   O22       1.0  0.90890  0.02370  0.97630  1.0000 -1.1834457009
O   O23       1.0  0.09110  0.97630  0.02370  1.0000 -1.1834457009
O   O24       1.0  0.97630  0.09110  0.90890  1.0000 -1.1834457009
