# DDEC6 charges by PACMAN v1.1 (https://github.com/mtap-research/PACMAN-charge/)
data_2017[Zn][hcb]2[ASR]7
_chemical_formula_sum              "Zn4 H68 C112 N12 O16"
_cell_length_a       8.5306
_cell_length_b       28.084
_cell_length_c       14.5986
_cell_angle_alpha    90
_cell_angle_beta     98.921
_cell_angle_gamma    90

_symmetry_space_group_name_H-M    "P 1"
_symmetry_Int_Tables_number       1

loop_
  _symmetry_equiv_pos_as_xyz
  'x, y, z'

loop_
  _atom_site_type_symbol
  _atom_site_label
  _atom_site_symmetry_multiplicity
  _atom_site_fract_x
  _atom_site_fract_y
  _atom_site_fract_z
  _atom_site_occupancy
  _atom_site_charge
Zn  Zn1       1.0  0.27056  0.87792  0.72625  1.0000 0.8274616594
Zn  Zn2       1.0  0.22944  0.37792  0.27375  1.0000 0.8274616594
Zn  Zn3       1.0  0.72944  0.12208  0.27375  1.0000 0.8274616594
Zn  Zn4       1.0  0.77056  0.62208  0.72625  1.0000 0.8274616594
H   H1        1.0  0.03810  0.85610  0.87580  1.0000 0.1331919464
H   H2        1.0  0.94380  0.73560  0.74330  1.0000 0.1331919464
H   H3        1.0  0.92650  0.70530  0.89520  1.0000 0.1200808112
H   H4        1.0  0.80980  0.67810  0.01720  1.0000 0.1114621136
H   H5        1.0  0.67300  0.81090  0.06610  1.0000 0.1200808112
H   H6        1.0  0.79210  0.83870  0.94450  1.0000 0.1331919464
H   H7        1.0  0.63080  0.65440  0.08890  1.0000 0.1114621136
H   H8        1.0  0.44880  0.67490  0.32190  1.0000 0.1200808112
H   H9        1.0  0.63970  0.78470  0.20190  1.0000 0.1114621136
H   H10       1.0  0.51690  0.59750  0.34740  1.0000 0.1200808112
H   H11       1.0  0.43050  0.51960  0.34930  1.0000 0.1331919464
H   H12       1.0  0.37160  0.51630  0.07120  1.0000 0.1200808112
H   H13       1.0  0.44560  0.59480  0.06850  1.0000 0.1114621136
H   H14       1.0  0.55470  0.72070  0.45460  1.0000 0.1200808112
H   H15       1.0  0.47060  0.76670  0.56770  1.0000 0.1200808112
H   H16       1.0  0.32310  0.86730  0.37920  1.0000 0.1114621136
H   H17       1.0  0.41970  0.82320  0.26710  1.0000 0.1114621136
H   H18       1.0  0.46190  0.35610  0.12420  1.0000 0.1331919464
H   H19       1.0  0.55620  0.23560  0.25670  1.0000 0.1331919464
H   H20       1.0  0.57350  0.20530  0.10480  1.0000 0.1200808112
H   H21       1.0  0.69020  0.17810  0.98280  1.0000 0.1114621136
H   H22       1.0  0.82700  0.31090  0.93390  1.0000 0.1200808112
H   H23       1.0  0.70790  0.33870  0.05550  1.0000 0.1331919464
H   H24       1.0  0.86920  0.15440  0.91110  1.0000 0.1114621136
H   H25       1.0  0.05120  0.17490  0.67810  1.0000 0.1200808112
H   H26       1.0  0.86030  0.28470  0.79810  1.0000 0.1114621136
H   H27       1.0  0.98310  0.09750  0.65260  1.0000 0.1200808112
H   H28       1.0  0.06950  0.01960  0.65070  1.0000 0.1331919464
H   H29       1.0  0.12840  0.01630  0.92880  1.0000 0.1200808112
H   H30       1.0  0.05440  0.09480  0.93150  1.0000 0.1114621136
H   H31       1.0  0.94530  0.22070  0.54540  1.0000 0.1200808112
H   H32       1.0  0.02940  0.26670  0.43230  1.0000 0.1200808112
H   H33       1.0  0.17690  0.36730  0.62080  1.0000 0.1114621136
H   H34       1.0  0.08030  0.32320  0.73290  1.0000 0.1114621136
H   H35       1.0  0.96190  0.14390  0.12420  1.0000 0.1331919464
H   H36       1.0  0.05620  0.26440  0.25670  1.0000 0.1331919464
H   H37       1.0  0.07350  0.29470  0.10480  1.0000 0.1200808112
H   H38       1.0  0.19020  0.32190  0.98280  1.0000 0.1114621136
H   H39       1.0  0.32700  0.18910  0.93390  1.0000 0.1200808112
H   H40       1.0  0.20790  0.16130  0.05550  1.0000 0.1331919464
H   H41       1.0  0.36920  0.34560  0.91110  1.0000 0.1114621136
H   H42       1.0  0.55120  0.32510  0.67810  1.0000 0.1200808112
H   H43       1.0  0.36030  0.21530  0.79810  1.0000 0.1114621136
H   H44       1.0  0.48310  0.40250  0.65260  1.0000 0.1200808112
H   H45       1.0  0.56950  0.48040  0.65070  1.0000 0.1331919464
H   H46       1.0  0.62840  0.48370  0.92880  1.0000 0.1200808112
H   H47       1.0  0.55440  0.40520  0.93150  1.0000 0.1114621136
H   H48       1.0  0.44530  0.27930  0.54540  1.0000 0.1200808112
H   H49       1.0  0.52940  0.23330  0.43230  1.0000 0.1200808112
H   H50       1.0  0.67690  0.13270  0.62080  1.0000 0.1114621136
H   H51       1.0  0.58030  0.17680  0.73290  1.0000 0.1114621136
H   H52       1.0  0.53810  0.64390  0.87580  1.0000 0.1331919464
H   H53       1.0  0.44380  0.76440  0.74330  1.0000 0.1331919464
H   H54       1.0  0.42650  0.79470  0.89520  1.0000 0.1200808112
H   H55       1.0  0.30980  0.82190  0.01720  1.0000 0.1114621136
H   H56       1.0  0.17300  0.68910  0.06610  1.0000 0.1200808112
H   H57       1.0  0.29210  0.66130  0.94450  1.0000 0.1331919464
H   H58       1.0  0.13080  0.84560  0.08890  1.0000 0.1114621136
H   H59       1.0  0.94880  0.82510  0.32190  1.0000 0.1200808112
H   H60       1.0  0.13970  0.71530  0.20190  1.0000 0.1114621136
H   H61       1.0  0.01690  0.90250  0.34740  1.0000 0.1200808112
H   H62       1.0  0.93050  0.98040  0.34930  1.0000 0.1331919464
H   H63       1.0  0.87160  0.98370  0.07120  1.0000 0.1200808112
H   H64       1.0  0.94560  0.90520  0.06850  1.0000 0.1114621136
H   H65       1.0  0.05470  0.77930  0.45460  1.0000 0.1200808112
H   H66       1.0  0.97060  0.73330  0.56770  1.0000 0.1200808112
H   H67       1.0  0.82310  0.63270  0.37920  1.0000 0.1114621136
H   H68       1.0  0.91970  0.67680  0.26710  1.0000 0.1114621136
C   C1        1.0  0.03510  0.83149  0.83290  1.0000 0.1114621136
C   C2        1.0  0.98460  0.76568  0.75980  1.0000 0.0994707788
C   C3        1.0  0.87120  0.77434  0.90860  1.0000 0.1523811961
C   C4        1.0  0.87610  0.72654  0.92990  1.0000 -0.1819518735
C   C5        1.0  0.80570  0.71039  0.00290  1.0000 -0.1412284379
C   C6        1.0  0.72840  0.74130  0.05600  1.0000 0.0670374826
C   C7        1.0  0.72450  0.78953  0.03220  1.0000 -0.1210737978
C   C8        1.0  0.79540  0.80645  0.95920  1.0000 -0.1924771178
C   C9        1.0  0.64890  0.72284  0.13210  1.0000 0.0827743108
C   C10       1.0  0.60780  0.67468  0.13540  1.0000 -0.2075651442
C   C11       1.0  0.53350  0.65616  0.20620  1.0000 0.0827743108
C   C12       1.0  0.49900  0.68683  0.27450  1.0000 -0.1819518735
C   C13       1.0  0.53740  0.73515  0.27440  1.0000 0.0889526042
C   C14       1.0  0.61300  0.75265  0.20260  1.0000 -0.1924771178
C   C15       1.0  0.48810  0.60522  0.20790  1.0000 0.0670374826
C   C16       1.0  0.48510  0.58155  0.29180  1.0000 -0.1412284379
C   C17       1.0  0.43520  0.53457  0.29300  1.0000 -0.083103471
C   C18       1.0  0.39180  0.50955  0.21020  1.0000 -0.0199440481
C   C19       1.0  0.39840  0.53277  0.12670  1.0000 -0.089291275
C   C20       1.0  0.44400  0.57973  0.12510  1.0000 -0.1575341528
C   C21       1.0  0.33610  0.45891  0.21060  1.0000 0.5585564073
C   C22       1.0  0.49390  0.76624  0.34800  1.0000 0.0670374826
C   C23       1.0  0.50870  0.75026  0.43910  1.0000 -0.1308740904
C   C24       1.0  0.45640  0.77751  0.50680  1.0000 -0.099663069
C   C25       1.0  0.38260  0.82097  0.48470  1.0000 -0.0199440481
C   C26       1.0  0.36990  0.83782  0.39440  1.0000 -0.099663069
C   C27       1.0  0.42650  0.81119  0.32690  1.0000 -0.1412284379
C   C28       1.0  0.31180  0.84831  0.55570  1.0000 0.5585564073
C   C29       1.0  0.46490  0.33149  0.16710  1.0000 0.1114621136
C   C30       1.0  0.51540  0.26568  0.24020  1.0000 0.0994707788
C   C31       1.0  0.62880  0.27434  0.09140  1.0000 0.1523811961
C   C32       1.0  0.62390  0.22654  0.07010  1.0000 -0.1819518735
C   C33       1.0  0.69430  0.21039  0.99710  1.0000 -0.1412284379
C   C34       1.0  0.77160  0.24130  0.94400  1.0000 0.0670374826
C   C35       1.0  0.77550  0.28953  0.96780  1.0000 -0.1210737978
C   C36       1.0  0.70460  0.30645  0.04080  1.0000 -0.1924771178
C   C37       1.0  0.85110  0.22284  0.86790  1.0000 0.0827743108
C   C38       1.0  0.89220  0.17468  0.86460  1.0000 -0.2075651442
C   C39       1.0  0.96650  0.15616  0.79380  1.0000 0.0827743108
C   C40       1.0  0.00100  0.18683  0.72550  1.0000 -0.1819518735
C   C41       1.0  0.96260  0.23515  0.72560  1.0000 0.0889526042
C   C42       1.0  0.88700  0.25265  0.79740  1.0000 -0.1924771178
C   C43       1.0  0.01190  0.10522  0.79210  1.0000 0.0670374826
C   C44       1.0  0.01490  0.08155  0.70820  1.0000 -0.1412284379
C   C45       1.0  0.06480  0.03457  0.70700  1.0000 -0.083103471
C   C46       1.0  0.10820  0.00955  0.78980  1.0000 -0.0199440481
C   C47       1.0  0.10160  0.03277  0.87330  1.0000 -0.089291275
C   C48       1.0  0.05600  0.07973  0.87490  1.0000 -0.1575341528
C   C49       1.0  0.16390  0.95891  0.78940  1.0000 0.5585564073
C   C50       1.0  0.00610  0.26624  0.65200  1.0000 0.0670374826
C   C51       1.0  0.99130  0.25026  0.56090  1.0000 -0.1308740904
C   C52       1.0  0.04360  0.27751  0.49320  1.0000 -0.099663069
C   C53       1.0  0.11740  0.32097  0.51530  1.0000 -0.0199440481
C   C54       1.0  0.13010  0.33782  0.60560  1.0000 -0.099663069
C   C55       1.0  0.07350  0.31119  0.67310  1.0000 -0.1412284379
C   C56       1.0  0.18820  0.34831  0.44430  1.0000 0.5585564073
C   C57       1.0  0.96490  0.16851  0.16710  1.0000 0.1114621136
C   C58       1.0  0.01540  0.23432  0.24020  1.0000 0.0994707788
C   C59       1.0  0.12880  0.22566  0.09140  1.0000 0.1523811961
C   C60       1.0  0.12390  0.27346  0.07010  1.0000 -0.1819518735
C   C61       1.0  0.19430  0.28961  0.99710  1.0000 -0.1412284379
C   C62       1.0  0.27160  0.25870  0.94400  1.0000 0.0670374826
C   C63       1.0  0.27550  0.21047  0.96780  1.0000 -0.1210737978
C   C64       1.0  0.20460  0.19355  0.04080  1.0000 -0.1924771178
C   C65       1.0  0.35110  0.27716  0.86790  1.0000 0.0827743108
C   C66       1.0  0.39220  0.32532  0.86460  1.0000 -0.2075651442
C   C67       1.0  0.46650  0.34384  0.79380  1.0000 0.0827743108
C   C68       1.0  0.50100  0.31317  0.72550  1.0000 -0.1819518735
C   C69       1.0  0.46260  0.26485  0.72560  1.0000 0.0889526042
C   C70       1.0  0.38700  0.24735  0.79740  1.0000 -0.1924771178
C   C71       1.0  0.51190  0.39478  0.79210  1.0000 0.0670374826
C   C72       1.0  0.51490  0.41845  0.70820  1.0000 -0.1412284379
C   C73       1.0  0.56480  0.46543  0.70700  1.0000 -0.083103471
C   C74       1.0  0.60820  0.49045  0.78980  1.0000 -0.0199440481
C   C75       1.0  0.60160  0.46723  0.87330  1.0000 -0.089291275
C   C76       1.0  0.55600  0.42027  0.87490  1.0000 -0.1575341528
C   C77       1.0  0.66390  0.54109  0.78940  1.0000 0.5585564073
C   C78       1.0  0.50610  0.23376  0.65200  1.0000 0.0670374826
C   C79       1.0  0.49130  0.24974  0.56090  1.0000 -0.1308740904
C   C80       1.0  0.54360  0.22249  0.49320  1.0000 -0.099663069
C   C81       1.0  0.61740  0.17903  0.51530  1.0000 -0.0199440481
C   C82       1.0  0.63010  0.16218  0.60560  1.0000 -0.099663069
C   C83       1.0  0.57350  0.18881  0.67310  1.0000 -0.1412284379
C   C84       1.0  0.68820  0.15169  0.44430  1.0000 0.5585564073
C   C85       1.0  0.53510  0.66851  0.83290  1.0000 0.1114621136
C   C86       1.0  0.48460  0.73432  0.75980  1.0000 0.0994707788
C   C87       1.0  0.37120  0.72566  0.90860  1.0000 0.1523811961
C   C88       1.0  0.37610  0.77346  0.92990  1.0000 -0.1819518735
C   C89       1.0  0.30570  0.78961  0.00290  1.0000 -0.1412284379
C   C90       1.0  0.22840  0.75870  0.05600  1.0000 0.0670374826
C   C91       1.0  0.22450  0.71047  0.03220  1.0000 -0.1210737978
C   C92       1.0  0.29540  0.69355  0.95920  1.0000 -0.1924771178
C   C93       1.0  0.14890  0.77716  0.13210  1.0000 0.0827743108
C   C94       1.0  0.10780  0.82532  0.13540  1.0000 -0.2075651442
C   C95       1.0  0.03350  0.84384  0.20620  1.0000 0.0827743108
C   C96       1.0  0.99900  0.81317  0.27450  1.0000 -0.1819518735
C   C97       1.0  0.03740  0.76485  0.27440  1.0000 0.0889526042
C   C98       1.0  0.11300  0.74735  0.20260  1.0000 -0.1924771178
C   C99       1.0  0.98810  0.89478  0.20790  1.0000 0.0670374826
C   C100      1.0  0.98510  0.91845  0.29180  1.0000 -0.1412284379
C   C101      1.0  0.93520  0.96543  0.29300  1.0000 -0.083103471
C   C102      1.0  0.89180  0.99045  0.21020  1.0000 -0.0199440481
C   C103      1.0  0.89840  0.96723  0.12670  1.0000 -0.089291275
C   C104      1.0  0.94400  0.92027  0.12510  1.0000 -0.1575341528
C   C105      1.0  0.83610  0.04109  0.21060  1.0000 0.5585564073
C   C106      1.0  0.99390  0.73376  0.34800  1.0000 0.0670374826
C   C107      1.0  0.00870  0.74974  0.43910  1.0000 -0.1308740904
C   C108      1.0  0.95640  0.72249  0.50680  1.0000 -0.099663069
C   C109      1.0  0.88260  0.67903  0.48470  1.0000 -0.0199440481
C   C110      1.0  0.86990  0.66218  0.39440  1.0000 -0.099663069
C   C111      1.0  0.92650  0.68881  0.32690  1.0000 -0.1412284379
C   C112      1.0  0.81180  0.65169  0.55570  1.0000 0.5585564073
N   N1        1.0  0.95420  0.79070  0.83618  1.0000 -0.0199440481
N   N2        1.0  0.10860  0.83183  0.76135  1.0000 -0.1924771178
N   N3        1.0  0.07680  0.78915  0.71420  1.0000 -0.1924771178
N   N4        1.0  0.54580  0.29070  0.16382  1.0000 -0.0199440481
N   N5        1.0  0.39140  0.33183  0.23865  1.0000 -0.1924771178
N   N6        1.0  0.42320  0.28915  0.28580  1.0000 -0.1924771178
N   N7        1.0  0.04580  0.20930  0.16382  1.0000 -0.0199440481
N   N8        1.0  0.89140  0.16817  0.23865  1.0000 -0.1924771178
N   N9        1.0  0.92320  0.21085  0.28580  1.0000 -0.1924771178
N   N10       1.0  0.45420  0.70930  0.83618  1.0000 -0.0199440481
N   N11       1.0  0.60860  0.66817  0.76135  1.0000 -0.1924771178
N   N12       1.0  0.57680  0.71085  0.71420  1.0000 -0.1924771178
O   O1        1.0  0.37440  0.84175  0.63989  1.0000 -0.5683446531
O   O2        1.0  0.19870  0.87535  0.53290  1.0000 -0.5272291605
O   O3        1.0  0.29300  0.44428  0.28574  1.0000 -0.5272291605
O   O4        1.0  0.33440  0.43394  0.14072  1.0000 -0.5767076616
O   O5        1.0  0.12560  0.34175  0.36011  1.0000 -0.5683446531
O   O6        1.0  0.30130  0.37535  0.46710  1.0000 -0.5272291605
O   O7        1.0  0.20700  0.94428  0.71426  1.0000 -0.5272291605
O   O8        1.0  0.16560  0.93394  0.85928  1.0000 -0.5767076616
O   O9        1.0  0.62560  0.15825  0.36011  1.0000 -0.5683446531
O   O10       1.0  0.80130  0.12465  0.46710  1.0000 -0.5272291605
O   O11       1.0  0.70700  0.55572  0.71426  1.0000 -0.5272291605
O   O12       1.0  0.66560  0.56606  0.85928  1.0000 -0.5767076616
O   O13       1.0  0.87440  0.65825  0.63989  1.0000 -0.5683446531
O   O14       1.0  0.69870  0.62465  0.53290  1.0000 -0.5272291605
O   O15       1.0  0.79300  0.05572  0.28574  1.0000 -0.5272291605
O   O16       1.0  0.83440  0.06606  0.14072  1.0000 -0.5767076616
