# DDEC6 charges by PACMAN v1.1 (https://github.com/mtap-research/PACMAN-charge/)
data_2017[Zn][sql]2[ASR]10
_chemical_formula_sum              "Zn4 H64 C80 N16"
_cell_length_a       13.0248
_cell_length_b       15.989
_cell_length_c       16.2992
_cell_angle_alpha    90
_cell_angle_beta     90
_cell_angle_gamma    90

_symmetry_space_group_name_H-M    "P 1"
_symmetry_Int_Tables_number       1

loop_
  _symmetry_equiv_pos_as_xyz
  'x, y, z'

loop_
  _atom_site_type_symbol
  _atom_site_label
  _atom_site_symmetry_multiplicity
  _atom_site_fract_x
  _atom_site_fract_y
  _atom_site_fract_z
  _atom_site_occupancy
  _atom_site_charge
Zn  Zn1       1.0  0.02632  0.50026  0.18565  1.0000 0.4107968462
Zn  Zn2       1.0  0.02632  0.99974  0.68565  1.0000 0.4107968462
Zn  Zn3       1.0  0.52632  0.49974  0.81435  1.0000 0.4107968462
Zn  Zn4       1.0  0.52632  0.00026  0.31435  1.0000 0.4107968462
H   H1        1.0  0.15280  0.34450  0.13280  1.0000 0.0883524061
H   H2        1.0  0.15660  0.24010  0.03500  1.0000 0.1171168221
H   H3        1.0  0.90550  0.34650  0.93080  1.0000 0.1171168221
H   H4        1.0  0.90830  0.44640  0.03310  1.0000 0.0834399303
H   H5        1.0  0.13570  0.13720  0.95470  1.0000 0.1171168221
H   H6        1.0  0.13110  0.03900  0.85160  1.0000 0.0883524061
H   H7        1.0  0.92760  0.16980  0.72920  1.0000 0.0883524061
H   H8        1.0  0.92610  0.27270  0.82880  1.0000 0.1171168221
H   H9        1.0  0.91030  0.55020  0.34130  1.0000 0.0883524061
H   H10       1.0  0.90630  0.65100  0.44300  1.0000 0.1171168221
H   H11       1.0  0.12860  0.77650  0.31960  1.0000 0.1171168221
H   H12       1.0  0.13000  0.67010  0.22360  1.0000 0.0883524061
H   H13       1.0  0.16140  0.83620  0.43810  1.0000 0.1171168221
H   H14       1.0  0.16060  0.93230  0.54350  1.0000 0.0883524061
H   H15       1.0  0.88050  0.86920  0.60620  1.0000 0.0883524061
H   H16       1.0  0.87160  0.77380  0.50000  1.0000 0.1171168221
H   H17       1.0  0.15280  0.15550  0.63280  1.0000 0.0883524061
H   H18       1.0  0.15660  0.25990  0.53500  1.0000 0.1171168221
H   H19       1.0  0.90550  0.15350  0.43080  1.0000 0.1171168221
H   H20       1.0  0.90830  0.05360  0.53310  1.0000 0.0834399303
H   H21       1.0  0.13570  0.36280  0.45470  1.0000 0.1171168221
H   H22       1.0  0.13110  0.46100  0.35160  1.0000 0.0883524061
H   H23       1.0  0.92760  0.33020  0.22920  1.0000 0.0883524061
H   H24       1.0  0.92610  0.22730  0.32880  1.0000 0.1171168221
H   H25       1.0  0.91030  0.94980  0.84130  1.0000 0.0883524061
H   H26       1.0  0.90630  0.84900  0.94300  1.0000 0.1171168221
H   H27       1.0  0.12860  0.72350  0.81960  1.0000 0.1171168221
H   H28       1.0  0.13000  0.82990  0.72360  1.0000 0.0883524061
H   H29       1.0  0.16140  0.66380  0.93810  1.0000 0.1171168221
H   H30       1.0  0.16060  0.56770  0.04350  1.0000 0.0883524061
H   H31       1.0  0.88050  0.63080  0.10620  1.0000 0.0883524061
H   H32       1.0  0.87160  0.72620  0.00000  1.0000 0.1171168221
H   H33       1.0  0.65280  0.65550  0.86720  1.0000 0.0883524061
H   H34       1.0  0.65660  0.75990  0.96500  1.0000 0.1171168221
H   H35       1.0  0.40550  0.65350  0.06920  1.0000 0.1171168221
H   H36       1.0  0.40830  0.55360  0.96690  1.0000 0.0834399303
H   H37       1.0  0.63570  0.86280  0.04530  1.0000 0.1171168221
H   H38       1.0  0.63110  0.96100  0.14840  1.0000 0.0883524061
H   H39       1.0  0.42760  0.83020  0.27080  1.0000 0.0883524061
H   H40       1.0  0.42610  0.72730  0.17120  1.0000 0.1171168221
H   H41       1.0  0.41030  0.44980  0.65870  1.0000 0.0883524061
H   H42       1.0  0.40630  0.34900  0.55700  1.0000 0.1171168221
H   H43       1.0  0.62860  0.22350  0.68040  1.0000 0.1171168221
H   H44       1.0  0.63000  0.32990  0.77640  1.0000 0.0883524061
H   H45       1.0  0.66140  0.16380  0.56190  1.0000 0.1171168221
H   H46       1.0  0.66060  0.06770  0.45650  1.0000 0.0883524061
H   H47       1.0  0.38050  0.13080  0.39380  1.0000 0.0883524061
H   H48       1.0  0.37160  0.22620  0.50000  1.0000 0.1171168221
H   H49       1.0  0.65280  0.84450  0.36720  1.0000 0.0883524061
H   H50       1.0  0.65660  0.74010  0.46500  1.0000 0.1171168221
H   H51       1.0  0.40550  0.84650  0.56920  1.0000 0.1171168221
H   H52       1.0  0.40830  0.94640  0.46690  1.0000 0.0834399303
H   H53       1.0  0.63570  0.63720  0.54530  1.0000 0.1171168221
H   H54       1.0  0.63110  0.53900  0.64840  1.0000 0.0883524061
H   H55       1.0  0.42760  0.66980  0.77080  1.0000 0.0883524061
H   H56       1.0  0.42610  0.77270  0.67120  1.0000 0.1171168221
H   H57       1.0  0.41030  0.05020  0.15870  1.0000 0.0883524061
H   H58       1.0  0.40630  0.15100  0.05700  1.0000 0.1171168221
H   H59       1.0  0.62860  0.27650  0.18040  1.0000 0.1171168221
H   H60       1.0  0.63000  0.17010  0.27640  1.0000 0.0883524061
H   H61       1.0  0.66140  0.33620  0.06190  1.0000 0.1171168221
H   H62       1.0  0.66060  0.43230  0.95650  1.0000 0.0883524061
H   H63       1.0  0.38050  0.36920  0.89380  1.0000 0.0883524061
H   H64       1.0  0.37160  0.27380  0.00000  1.0000 0.1171168221
C   C1        1.0  0.10160  0.34432  0.09139  1.0000 0.023654971
C   C2        1.0  0.10510  0.28210  0.03269  1.0000 -0.2210569918
C   C3        1.0  0.03170  0.28175  0.96956  1.0000 0.0883524061
C   C4        1.0  0.95740  0.34456  0.97170  1.0000 -0.2210569918
C   C5        1.0  0.95940  0.40401  0.03332  1.0000 0.0288082249
C   C6        1.0  0.03200  0.21689  0.90410  1.0000 0.0883524061
C   C7        1.0  0.09210  0.14571  0.90876  1.0000 -0.2129786798
C   C8        1.0  0.08880  0.08714  0.84695  1.0000 0.0288082249
C   C9        1.0  0.97060  0.16315  0.77585  1.0000 0.0395600828
C   C10       1.0  0.96920  0.22517  0.83502  1.0000 -0.2210569918
C   C11       1.0  0.95650  0.59612  0.33792  1.0000 0.0395600828
C   C12       1.0  0.95270  0.65647  0.39835  1.0000 -0.2210569918
C   C13       1.0  0.01800  0.72610  0.39317  1.0000 0.0883524061
C   C14       1.0  0.08390  0.73000  0.32600  1.0000 -0.2129786798
C   C15       1.0  0.08430  0.66639  0.26881  1.0000 0.0288082249
C   C16       1.0  0.01770  0.79116  0.45797  1.0000 0.0883524061
C   C17       1.0  0.10240  0.84120  0.47200  1.0000 -0.2129786798
C   C18       1.0  0.10140  0.89860  0.53533  1.0000 0.0288082249
C   C19       1.0  0.93850  0.86240  0.57150  1.0000 0.0288082249
C   C20       1.0  0.93310  0.80450  0.50860  1.0000 -0.2210569918
C   C21       1.0  0.10160  0.15568  0.59139  1.0000 0.023654971
C   C22       1.0  0.10510  0.21790  0.53269  1.0000 -0.2210569918
C   C23       1.0  0.03170  0.21825  0.46956  1.0000 0.0883524061
C   C24       1.0  0.95740  0.15544  0.47170  1.0000 -0.2210569918
C   C25       1.0  0.95940  0.09599  0.53332  1.0000 0.0288082249
C   C26       1.0  0.03200  0.28311  0.40410  1.0000 0.0883524061
C   C27       1.0  0.09210  0.35429  0.40876  1.0000 -0.2129786798
C   C28       1.0  0.08880  0.41286  0.34695  1.0000 0.0288082249
C   C29       1.0  0.97060  0.33685  0.27585  1.0000 0.0395600828
C   C30       1.0  0.96920  0.27483  0.33502  1.0000 -0.2210569918
C   C31       1.0  0.95650  0.90388  0.83792  1.0000 0.0395600828
C   C32       1.0  0.95270  0.84353  0.89835  1.0000 -0.2210569918
C   C33       1.0  0.01800  0.77390  0.89317  1.0000 0.0883524061
C   C34       1.0  0.08390  0.77000  0.82600  1.0000 -0.2129786798
C   C35       1.0  0.08430  0.83361  0.76881  1.0000 0.0288082249
C   C36       1.0  0.01770  0.70884  0.95797  1.0000 0.0883524061
C   C37       1.0  0.10240  0.65880  0.97200  1.0000 -0.2210569918
C   C38       1.0  0.10140  0.60140  0.03533  1.0000 0.0288082249
C   C39       1.0  0.93850  0.63760  0.07150  1.0000 0.0288082249
C   C40       1.0  0.93310  0.69550  0.00860  1.0000 -0.2210569918
C   C41       1.0  0.60160  0.65568  0.90861  1.0000 0.023654971
C   C42       1.0  0.60510  0.71790  0.96731  1.0000 -0.2210569918
C   C43       1.0  0.53170  0.71825  0.03044  1.0000 0.0883524061
C   C44       1.0  0.45740  0.65544  0.02830  1.0000 -0.2210569918
C   C45       1.0  0.45940  0.59599  0.96668  1.0000 0.0288082249
C   C46       1.0  0.53200  0.78311  0.09590  1.0000 0.0883524061
C   C47       1.0  0.59210  0.85429  0.09124  1.0000 -0.2129786798
C   C48       1.0  0.58880  0.91286  0.15305  1.0000 0.0288082249
C   C49       1.0  0.47060  0.83685  0.22415  1.0000 0.0395600828
C   C50       1.0  0.46920  0.77483  0.16498  1.0000 -0.2210569918
C   C51       1.0  0.45650  0.40388  0.66208  1.0000 0.0395600828
C   C52       1.0  0.45270  0.34353  0.60165  1.0000 -0.2210569918
C   C53       1.0  0.51800  0.27390  0.60683  1.0000 0.0883524061
C   C54       1.0  0.58390  0.27000  0.67400  1.0000 -0.2129786798
C   C55       1.0  0.58430  0.33361  0.73119  1.0000 0.0288082249
C   C56       1.0  0.51770  0.20884  0.54203  1.0000 0.0883524061
C   C57       1.0  0.60240  0.15880  0.52800  1.0000 -0.2210569918
C   C58       1.0  0.60140  0.10140  0.46467  1.0000 0.023654971
C   C59       1.0  0.43850  0.13760  0.42850  1.0000 0.0288082249
C   C60       1.0  0.43310  0.19550  0.49140  1.0000 -0.2210569918
C   C61       1.0  0.60160  0.84432  0.40861  1.0000 0.023654971
C   C62       1.0  0.60510  0.78210  0.46731  1.0000 -0.2210569918
C   C63       1.0  0.53170  0.78175  0.53044  1.0000 0.0883524061
C   C64       1.0  0.45740  0.84456  0.52830  1.0000 -0.2210569918
C   C65       1.0  0.45940  0.90401  0.46668  1.0000 0.0288082249
C   C66       1.0  0.53200  0.71689  0.59590  1.0000 0.0883524061
C   C67       1.0  0.59210  0.64571  0.59124  1.0000 -0.2129786798
C   C68       1.0  0.58880  0.58714  0.65305  1.0000 0.0288082249
C   C69       1.0  0.47060  0.66315  0.72415  1.0000 0.0395600828
C   C70       1.0  0.46920  0.72517  0.66498  1.0000 -0.2210569918
C   C71       1.0  0.45650  0.09612  0.16208  1.0000 0.0395600828
C   C72       1.0  0.45270  0.15647  0.10165  1.0000 -0.2210569918
C   C73       1.0  0.51800  0.22610  0.10683  1.0000 0.0883524061
C   C74       1.0  0.58390  0.23000  0.17400  1.0000 -0.2129786798
C   C75       1.0  0.58430  0.16639  0.23119  1.0000 0.0288082249
C   C76       1.0  0.51770  0.29116  0.04203  1.0000 0.0883524061
C   C77       1.0  0.60240  0.34120  0.02800  1.0000 -0.2210569918
C   C78       1.0  0.60140  0.39860  0.96467  1.0000 0.0288082249
C   C79       1.0  0.43850  0.36240  0.92850  1.0000 0.0288082249
C   C80       1.0  0.43310  0.30450  0.99140  1.0000 -0.2210569918
N   N1        1.0  0.02960  0.40482  0.09329  1.0000 -0.2290958884
N   N2        1.0  0.02860  0.09470  0.78027  1.0000 -0.2290958884
N   N3        1.0  0.02210  0.59914  0.27468  1.0000 -0.2210569918
N   N4        1.0  0.02170  0.90913  0.58557  1.0000 -0.2210569918
N   N5        1.0  0.02960  0.09518  0.59329  1.0000 -0.2290958884
N   N6        1.0  0.02860  0.40530  0.28027  1.0000 -0.2210569918
N   N7        1.0  0.02210  0.90086  0.77468  1.0000 -0.2210569918
N   N8        1.0  0.02170  0.59087  0.08557  1.0000 -0.2210569918
N   N9        1.0  0.52960  0.59518  0.90671  1.0000 -0.2290958884
N   N10       1.0  0.52860  0.90530  0.21973  1.0000 -0.2290958884
N   N11       1.0  0.52210  0.40086  0.72532  1.0000 -0.2210569918
N   N12       1.0  0.52170  0.09087  0.41443  1.0000 -0.2210569918
N   N13       1.0  0.52960  0.90482  0.40671  1.0000 -0.2290958884
N   N14       1.0  0.52860  0.59470  0.71973  1.0000 -0.2210569918
N   N15       1.0  0.52210  0.09914  0.22532  1.0000 -0.2290958884
N   N16       1.0  0.52170  0.40913  0.91443  1.0000 -0.2210569918
