# DDEC6 charges by PACMAN v1.1 (https://github.com/mtap-research/PACMAN-charge/)
data_2017[Zn][nbo]3[ASR]2
_chemical_formula_sum              "Zn6 H78 C90 O30"
_cell_length_a       16.7556
_cell_length_b       16.7556
_cell_length_c       16.7556
_cell_angle_alpha    68.9071
_cell_angle_beta     68.9071
_cell_angle_gamma    68.9071

_symmetry_space_group_name_H-M    "P 1"
_symmetry_Int_Tables_number       1

loop_
  _symmetry_equiv_pos_as_xyz
  'x, y, z'

loop_
  _atom_site_type_symbol
  _atom_site_label
  _atom_site_symmetry_multiplicity
  _atom_site_fract_x
  _atom_site_fract_y
  _atom_site_fract_z
  _atom_site_occupancy
  _atom_site_charge
Zn  Zn1       1.0  0.80836  0.80802  0.38350  1.0000 0.9456048168
Zn  Zn2       1.0  0.80802  0.38350  0.80836  1.0000 0.9456048168
Zn  Zn3       1.0  0.38350  0.80836  0.80802  1.0000 0.9456048168
Zn  Zn4       1.0  0.79320  0.79268  0.21792  1.0000 0.9456048168
Zn  Zn5       1.0  0.79268  0.21792  0.79320  1.0000 0.9456048168
Zn  Zn6       1.0  0.21792  0.79320  0.79268  1.0000 0.9456048168
H   H1        1.0  0.77790  0.06750  0.06760  1.0000 0.1416291363
H   H2        1.0  0.06750  0.06760  0.77790  1.0000 0.1416291363
H   H3        1.0  0.06760  0.77790  0.06750  1.0000 0.1416291363
H   H4        1.0  0.78850  0.29970  0.08220  1.0000 0.1314335386
H   H5        1.0  0.29970  0.08220  0.78850  1.0000 0.1314335386
H   H6        1.0  0.08220  0.78850  0.29970  1.0000 0.1314335386
H   H7        1.0  0.78450  0.08850  0.29860  1.0000 0.1416291363
H   H8        1.0  0.08850  0.29860  0.78450  1.0000 0.1416291363
H   H9        1.0  0.29860  0.78450  0.08850  1.0000 0.1416291363
H   H10       1.0  0.88930  0.38990  0.25030  1.0000 0.119682048
H   H11       1.0  0.38990  0.25030  0.88930  1.0000 0.119682048
H   H12       1.0  0.25030  0.88930  0.38990  1.0000 0.119682048
H   H13       1.0  0.67900  0.22660  0.36410  1.0000 0.1416291363
H   H14       1.0  0.22660  0.36410  0.67900  1.0000 0.1416291363
H   H15       1.0  0.36410  0.67900  0.22660  1.0000 0.1416291363
H   H16       1.0  0.70010  0.30760  0.58090  1.0000 0.0680113367
H   H17       1.0  0.30760  0.58090  0.70010  1.0000 0.0680113367
H   H18       1.0  0.58090  0.70010  0.30760  1.0000 0.0680113367
H   H19       1.0  0.53730  0.26300  0.65420  1.0000 0.098409208
H   H20       1.0  0.26300  0.65420  0.53730  1.0000 0.098409208
H   H21       1.0  0.65420  0.53730  0.26300  1.0000 0.098409208
H   H22       1.0  0.62550  0.18170  0.64400  1.0000 0.1109275711
H   H23       1.0  0.18170  0.64400  0.62550  1.0000 0.1109275711
H   H24       1.0  0.64400  0.62550  0.18170  1.0000 0.1109275711
H   H25       1.0  0.62310  0.19860  0.49480  1.0000 0.098409208
H   H26       1.0  0.19860  0.49480  0.62310  1.0000 0.098409208
H   H27       1.0  0.49480  0.62310  0.19860  1.0000 0.098409208
H   H28       1.0  0.52860  0.18660  0.55960  1.0000 0.1314335386
H   H29       1.0  0.18660  0.55960  0.52860  1.0000 0.1314335386
H   H30       1.0  0.55960  0.52860  0.18660  1.0000 0.1314335386
H   H31       1.0  0.53920  0.28330  0.50060  1.0000 0.1109275711
H   H32       1.0  0.28330  0.50060  0.53920  1.0000 0.1109275711
H   H33       1.0  0.50060  0.53920  0.28330  1.0000 0.1109275711
H   H34       1.0  0.53840  0.39560  0.51420  1.0000 0.1470216818
H   H35       1.0  0.39560  0.51420  0.53840  1.0000 0.1470216818
H   H36       1.0  0.51420  0.53840  0.39560  1.0000 0.1470216818
H   H37       1.0  0.52570  0.38310  0.61680  1.0000 0.1314335386
H   H38       1.0  0.38310  0.61680  0.52570  1.0000 0.1314335386
H   H39       1.0  0.61680  0.52570  0.38310  1.0000 0.1314335386
H   H40       1.0  0.58470  0.44600  0.54230  1.0000 0.1416291363
H   H41       1.0  0.44600  0.54230  0.58470  1.0000 0.1416291363
H   H42       1.0  0.54230  0.58470  0.44600  1.0000 0.1416291363
H   H43       1.0  0.90730  0.45790  0.07670  1.0000 0.0518446671
H   H44       1.0  0.45790  0.07670  0.90730  1.0000 0.0518446671
H   H45       1.0  0.07670  0.90730  0.45790  1.0000 0.0518446671
H   H46       1.0  0.00630  0.41760  0.93820  1.0000 0.091115343
H   H47       1.0  0.41760  0.93820  0.00630  1.0000 0.091115343
H   H48       1.0  0.93820  0.00630  0.41760  1.0000 0.091115343
H   H49       1.0  0.92000  0.38370  0.95940  1.0000 0.098409208
H   H50       1.0  0.38370  0.95940  0.92000  1.0000 0.098409208
H   H51       1.0  0.95940  0.92000  0.38370  1.0000 0.098409208
H   H52       1.0  0.00700  0.24760  0.98000  1.0000 0.119682048
H   H53       1.0  0.24760  0.98000  0.00700  1.0000 0.119682048
H   H54       1.0  0.98000  0.00700  0.24760  1.0000 0.119682048
H   H55       1.0  0.08700  0.28070  0.97640  1.0000 0.1109275711
H   H56       1.0  0.28070  0.97640  0.08700  1.0000 0.1109275711
H   H57       1.0  0.97640  0.08700  0.28070  1.0000 0.1109275711
H   H58       1.0  0.01330  0.25960  0.06790  1.0000 0.1109275711
H   H59       1.0  0.25960  0.06790  0.01330  1.0000 0.1109275711
H   H60       1.0  0.06790  0.01330  0.25960  1.0000 0.1109275711
H   H61       1.0  0.98680  0.28630  0.16880  1.0000 0.119682048
H   H62       1.0  0.28630  0.16880  0.98680  1.0000 0.119682048
H   H63       1.0  0.16880  0.98680  0.28630  1.0000 0.119682048
H   H64       1.0  0.06240  0.32670  0.09090  1.0000 0.119682048
H   H65       1.0  0.32670  0.09090  0.06240  1.0000 0.119682048
H   H66       1.0  0.09090  0.06240  0.32670  1.0000 0.119682048
H   H67       1.0  0.00150  0.37630  0.16670  1.0000 0.1109275711
H   H68       1.0  0.37630  0.16670  0.00150  1.0000 0.1109275711
H   H69       1.0  0.16670  0.00150  0.37630  1.0000 0.1109275711
H   H70       1.0  0.80790  0.52060  0.30510  1.0000 0.1314335386
H   H71       1.0  0.52060  0.30510  0.80790  1.0000 0.1314335386
H   H72       1.0  0.30510  0.80790  0.52060  1.0000 0.1314335386
H   H73       1.0  0.83750  0.53210  0.53010  1.0000 0.1416291363
H   H74       1.0  0.53210  0.53010  0.83750  1.0000 0.1416291363
H   H75       1.0  0.53010  0.83750  0.53210  1.0000 0.1416291363
H   H76       1.0  0.81870  0.30350  0.51530  1.0000 0.119682048
H   H77       1.0  0.30350  0.51530  0.81870  1.0000 0.119682048
H   H78       1.0  0.51530  0.81870  0.30350  1.0000 0.119682048
C   C1        1.0  0.78210  0.96310  0.22840  1.0000 0.5812949396
C   C2        1.0  0.96310  0.22840  0.78210  1.0000 0.5812949396
C   C3        1.0  0.22840  0.78210  0.96310  1.0000 0.5812949396
C   C4        1.0  0.78076  0.06416  0.18946  1.0000 -0.0001365398
C   C5        1.0  0.06416  0.18946  0.78076  1.0000 0.000654081
C   C6        1.0  0.18946  0.78076  0.06416  1.0000 0.000654081
C   C7        1.0  0.78021  0.10181  0.10091  1.0000 -0.1077322208
C   C8        1.0  0.10181  0.10091  0.78021  1.0000 -0.1077322208
C   C9        1.0  0.10091  0.78021  0.10181  1.0000 -0.1077322208
C   C10       1.0  0.78310  0.18960  0.06090  1.0000 -0.0290663558
C   C11       1.0  0.18960  0.06090  0.78310  1.0000 -0.0290663558
C   C12       1.0  0.06090  0.78310  0.18960  1.0000 -0.0290663558
C   C13       1.0  0.78644  0.23974  0.10954  1.0000 -0.1388733753
C   C14       1.0  0.23974  0.10954  0.78644  1.0000 -0.1388733753
C   C15       1.0  0.10954  0.78644  0.23974  1.0000 -0.1388733753
C   C16       1.0  0.78700  0.20210  0.19810  1.0000 0.091115343
C   C17       1.0  0.20210  0.19810  0.78700  1.0000 0.091115343
C   C18       1.0  0.19810  0.78700  0.20210  1.0000 0.091115343
C   C19       1.0  0.78410  0.11430  0.23810  1.0000 -0.1469731373
C   C20       1.0  0.11430  0.23810  0.78410  1.0000 -0.1469731373
C   C21       1.0  0.23810  0.78410  0.11430  1.0000 -0.1469731373
C   C22       1.0  0.77900  0.23410  0.96740  1.0000 0.5812949396
C   C23       1.0  0.23410  0.96740  0.77900  1.0000 0.5812949396
C   C24       1.0  0.96740  0.77900  0.23410  1.0000 0.5812949396
C   C25       1.0  0.77740  0.26300  0.25570  1.0000 0.0163202014
C   C26       1.0  0.26300  0.25570  0.77740  1.0000 0.0163202014
C   C27       1.0  0.25570  0.77740  0.26300  1.0000 0.0163202014
C   C28       1.0  0.83980  0.31150  0.22190  1.0000 0.1787753013
C   C29       1.0  0.31150  0.22190  0.83980  1.0000 0.1787753013
C   C30       1.0  0.22190  0.83980  0.31150  1.0000 0.1787753013
C   C31       1.0  0.84670  0.35670  0.27330  1.0000 -0.2428206645
C   C32       1.0  0.35670  0.27330  0.84670  1.0000 -0.2428206645
C   C33       1.0  0.27330  0.84670  0.35670  1.0000 -0.2428206645
C   C34       1.0  0.79110  0.35340  0.35860  1.0000 -0.0290663558
C   C35       1.0  0.35340  0.35860  0.79110  1.0000 -0.0290663558
C   C36       1.0  0.35860  0.79110  0.35340  1.0000 -0.0290663558
C   C37       1.0  0.72870  0.30490  0.39240  1.0000 0.223007024
C   C38       1.0  0.30490  0.39240  0.72870  1.0000 0.223007024
C   C39       1.0  0.39240  0.72870  0.30490  1.0000 0.223007024
C   C40       1.0  0.72180  0.25970  0.34100  1.0000 -0.2803759568
C   C41       1.0  0.25970  0.34100  0.72180  1.0000 -0.2803759568
C   C42       1.0  0.34100  0.72180  0.25970  1.0000 -0.2803759568
C   C43       1.0  0.65250  0.30950  0.55700  1.0000 0.223007024
C   C44       1.0  0.30950  0.55700  0.65250  1.0000 0.223007024
C   C45       1.0  0.55700  0.65250  0.30950  1.0000 0.223007024
C   C46       1.0  0.59160  0.23830  0.61170  1.0000 -0.1825066897
C   C47       1.0  0.23830  0.61170  0.59160  1.0000 -0.1825066897
C   C48       1.0  0.61170  0.59160  0.23830  1.0000 -0.1825066897
C   C49       1.0  0.56840  0.22550  0.53430  1.0000 -0.3666097465
C   C50       1.0  0.22550  0.53430  0.56840  1.0000 -0.3666097465
C   C51       1.0  0.53430  0.56840  0.22550  1.0000 -0.3666097465
C   C52       1.0  0.56720  0.39140  0.55770  1.0000 -0.5202845974
C   C53       1.0  0.39140  0.55770  0.56720  1.0000 -0.5202845974
C   C54       1.0  0.55770  0.56720  0.39140  1.0000 -0.5202845974
C   C55       1.0  0.93620  0.39480  0.07460  1.0000 0.1787753013
C   C56       1.0  0.39480  0.07460  0.93620  1.0000 0.1787753013
C   C57       1.0  0.07460  0.93620  0.39480  1.0000 0.1787753013
C   C58       1.0  0.96970  0.37760  0.98180  1.0000 -0.1687246341
C   C59       1.0  0.37760  0.98180  0.96970  1.0000 -0.1687246341
C   C60       1.0  0.98180  0.96970  0.37760  1.0000 -0.1687246341
C   C61       1.0  0.02390  0.28320  0.00340  1.0000 -0.387133543
C   C62       1.0  0.28320  0.00340  0.02390  1.0000 -0.387133543
C   C63       1.0  0.00340  0.02390  0.28320  1.0000 -0.387133543
C   C64       1.0  0.00280  0.34120  0.13030  1.0000 -0.4547538899
C   C65       1.0  0.34120  0.13030  0.00280  1.0000 -0.4547538899
C   C66       1.0  0.13030  0.00280  0.34120  1.0000 -0.4547538899
C   C67       1.0  0.81630  0.37330  0.63720  1.0000 0.5926309781
C   C68       1.0  0.37330  0.63720  0.81630  1.0000 0.5926309781
C   C69       1.0  0.63720  0.81630  0.37330  1.0000 0.5926309781
C   C70       1.0  0.81690  0.62860  0.37110  1.0000 0.5346093334
C   C71       1.0  0.62860  0.37110  0.81690  1.0000 0.5346093334
C   C72       1.0  0.37110  0.81690  0.62860  1.0000 0.5346093334
C   C73       1.0  0.81188  0.40458  0.40268  1.0000 0.091115343
C   C74       1.0  0.40458  0.40268  0.81188  1.0000 0.091115343
C   C75       1.0  0.40268  0.81188  0.40458  1.0000 0.091115343
C   C76       1.0  0.81340  0.49280  0.36400  1.0000 -0.1388733753
C   C77       1.0  0.49280  0.36400  0.81340  1.0000 -0.1388733753
C   C78       1.0  0.36400  0.81340  0.49280  1.0000 -0.1388733753
C   C79       1.0  0.82290  0.54030  0.41140  1.0000 -0.0977206372
C   C80       1.0  0.54030  0.41140  0.82290  1.0000 -0.0977206372
C   C81       1.0  0.41140  0.82290  0.54030  1.0000 -0.0977206372
C   C82       1.0  0.83088  0.49968  0.49768  1.0000 -0.0791318683
C   C83       1.0  0.49968  0.49768  0.83088  1.0000 -0.0791318683
C   C84       1.0  0.49768  0.83088  0.49968  1.0000 -0.0791318683
C   C85       1.0  0.82930  0.41140  0.53630  1.0000 -0.0135592774
C   C86       1.0  0.41140  0.53630  0.82930  1.0000 -0.0135592774
C   C87       1.0  0.53630  0.82930  0.41140  1.0000 -0.0135592774
C   C88       1.0  0.81980  0.36390  0.48890  1.0000 -0.1687246341
C   C89       1.0  0.36390  0.48890  0.81980  1.0000 -0.1648180329
C   C90       1.0  0.48890  0.81980  0.36390  1.0000 -0.1648180329
O   O1        1.0  0.77850  0.92410  0.18340  1.0000 -0.480473771
O   O2        1.0  0.92410  0.18340  0.77850  1.0000 -0.480473771
O   O3        1.0  0.18340  0.77850  0.92410  1.0000 -0.480473771
O   O4        1.0  0.78750  0.93530  0.30750  1.0000 -0.5574253244
O   O5        1.0  0.93530  0.30750  0.78750  1.0000 -0.5574253244
O   O6        1.0  0.30750  0.78750  0.93530  1.0000 -0.5574253244
O   O7        1.0  0.77050  0.18810  0.92740  1.0000 -0.5026039325
O   O8        1.0  0.18810  0.92740  0.77050  1.0000 -0.5026039325
O   O9        1.0  0.92740  0.77050  0.18810  1.0000 -0.5026039325
O   O10       1.0  0.78320  0.30740  0.93430  1.0000 -0.4637133621
O   O11       1.0  0.30740  0.93430  0.78320  1.0000 -0.4637133621
O   O12       1.0  0.93430  0.78320  0.30740  1.0000 -0.4637133621
O   O13       1.0  0.67100  0.31450  0.46990  1.0000 -0.1687246341
O   O14       1.0  0.31450  0.46990  0.67100  1.0000 -0.1687246341
O   O15       1.0  0.46990  0.67100  0.31450  1.0000 -0.1687246341
O   O16       1.0  0.87780  0.33020  0.12500  1.0000 -0.2803759568
O   O17       1.0  0.33020  0.12500  0.87780  1.0000 -0.2803759568
O   O18       1.0  0.12500  0.87780  0.33020  1.0000 -0.2803759568
O   O19       1.0  0.81240  0.28900  0.66390  1.0000 -0.5899979515
O   O20       1.0  0.28900  0.66390  0.81240  1.0000 -0.5899979515
O   O21       1.0  0.66390  0.81240  0.28900  1.0000 -0.5899979515
O   O22       1.0  0.81790  0.42420  0.67740  1.0000 -0.5386724316
O   O23       1.0  0.42420  0.67740  0.81790  1.0000 -0.5386724316
O   O24       1.0  0.67740  0.81790  0.42420  1.0000 -0.5386724316
O   O25       1.0  0.82230  0.67470  0.41860  1.0000 -0.5527081334
O   O26       1.0  0.67470  0.41860  0.82230  1.0000 -0.5527081334
O   O27       1.0  0.41860  0.82230  0.67470  1.0000 -0.5527081334
O   O28       1.0  0.81516  0.66576  0.29116  1.0000 -0.5386724316
O   O29       1.0  0.66576  0.29116  0.81516  1.0000 -0.5386724316
O   O30       1.0  0.29116  0.81516  0.66576  1.0000 -0.5386724316
