# DDEC6 charges by PACMAN v1.1 (https://github.com/mtap-research/PACMAN-charge/)
data_2017[Co][bnn]3[ASR]1
_chemical_formula_sum              "Co4 H76 C92 N12 O12"
_cell_length_a       10.2383
_cell_length_b       25.3354
_cell_length_c       11.4301
_cell_angle_alpha    90
_cell_angle_beta     91.2193
_cell_angle_gamma    90

_symmetry_space_group_name_H-M    "P 1"
_symmetry_Int_Tables_number       1

loop_
  _symmetry_equiv_pos_as_xyz
  'x, y, z'

loop_
  _atom_site_type_symbol
  _atom_site_label
  _atom_site_symmetry_multiplicity
  _atom_site_fract_x
  _atom_site_fract_y
  _atom_site_fract_z
  _atom_site_occupancy
  _atom_site_charge
Co  Co1       1.0  0.95520  0.46593  0.52610  1.0000 0.7426363312
Co  Co2       1.0  0.45722  0.55067  0.53094  1.0000 0.7297709368
Co  Co3       1.0  0.04480  0.96593  0.47390  1.0000 0.7426363312
Co  Co4       1.0  0.54278  0.05067  0.46906  1.0000 0.7297709368
H   H1        1.0  0.04600  0.55750  0.46200  1.0000 0.3391735039
H   H2        1.0  0.54200  0.46300  0.62100  1.0000 0.3391735039
H   H3        1.0  0.27190  0.53520  0.74040  1.0000 0.099295516
H   H4        1.0  0.64470  0.58480  0.94390  1.0000 0.125716158
H   H5        1.0  0.14180  0.48180  0.31900  1.0000 0.099295516
H   H6        1.0  0.14690  0.47770  0.11780  1.0000 0.1208386279
H   H7        1.0  0.63450  0.58550  0.74250  1.0000 0.099295516
H   H8        1.0  0.26820  0.53590  0.94170  1.0000 0.1208386279
H   H9        1.0  0.77370  0.48250  0.73410  1.0000 0.0906019379
H   H10       1.0  0.76690  0.48060  0.93430  1.0000 0.1208386279
H   H11       1.0  0.27080  0.57470  0.12280  1.0000 0.1208386279
H   H12       1.0  0.65070  0.53210  0.32120  1.0000 0.099295516
H   H13       1.0  0.76400  0.43930  0.11360  1.0000 0.1208386279
H   H14       1.0  0.76950  0.44300  0.31440  1.0000 0.099295516
H   H15       1.0  0.21420  0.61320  0.60040  1.0000 0.099295516
H   H16       1.0  0.28030  0.57000  0.32320  1.0000 0.0906019379
H   H17       1.0  0.36620  0.41510  0.62680  1.0000 0.0906019379
H   H18       1.0  0.65540  0.53790  0.12110  1.0000 0.1208386279
H   H19       1.0  0.14530  0.43620  0.94090  1.0000 0.1208386279
H   H20       1.0  0.38810  0.82260  0.48150  1.0000 0.1092900589
H   H21       1.0  0.14210  0.43920  0.73930  1.0000 0.0906019379
H   H22       1.0  0.30340  0.90620  0.47030  1.0000 0.099295516
H   H23       1.0  0.43840  0.74370  0.41140  1.0000 0.1208386279
H   H24       1.0  0.02170  0.76510  0.48530  1.0000 0.1208386279
H   H25       1.0  0.94490  0.85130  0.48160  1.0000 0.099295516
H   H26       1.0  0.87480  0.60670  0.46210  1.0000 0.0906019379
H   H27       1.0  0.52140  0.65930  0.42840  1.0000 0.099295516
H   H28       1.0  0.12140  0.69580  0.58460  1.0000 0.1208386279
H   H29       1.0  0.34760  0.26910  0.39880  1.0000 0.099295516
H   H30       1.0  0.31820  0.33120  0.54530  1.0000 0.1092900589
H   H31       1.0  0.00450  0.56900  0.73740  1.0000 0.1092900589
H   H32       1.0  0.91710  0.70340  0.90270  1.0000 0.1092900589
H   H33       1.0  0.77900  0.67740  0.57440  1.0000 0.1092900589
H   H34       1.0  0.02090  0.62280  0.90050  1.0000 0.1092900589
H   H35       1.0  0.79350  0.73060  0.73970  1.0000 0.099295516
H   H36       1.0  0.46280  0.44370  0.33290  1.0000 0.1092900589
H   H37       1.0  0.47380  0.38190  0.18120  1.0000 0.099295516
H   H38       1.0  0.42880  0.29360  0.22010  1.0000 0.1092900589
H   H39       1.0  0.95400  0.05750  0.53800  1.0000 0.3391735039
H   H40       1.0  0.45800  0.96300  0.37900  1.0000 0.3391735039
H   H41       1.0  0.72810  0.03520  0.25960  1.0000 0.099295516
H   H42       1.0  0.35530  0.08480  0.05610  1.0000 0.125716158
H   H43       1.0  0.85820  0.98180  0.68100  1.0000 0.099295516
H   H44       1.0  0.85310  0.97770  0.88220  1.0000 0.1208386279
H   H45       1.0  0.36550  0.08550  0.25750  1.0000 0.099295516
H   H46       1.0  0.73180  0.03590  0.05830  1.0000 0.1208386279
H   H47       1.0  0.22630  0.98250  0.26590  1.0000 0.0906019379
H   H48       1.0  0.23310  0.98060  0.06570  1.0000 0.1208386279
H   H49       1.0  0.72920  0.07470  0.87720  1.0000 0.1208386279
H   H50       1.0  0.34930  0.03210  0.67880  1.0000 0.099295516
H   H51       1.0  0.23600  0.93930  0.88640  1.0000 0.1208386279
H   H52       1.0  0.23050  0.94300  0.68560  1.0000 0.099295516
H   H53       1.0  0.78580  0.11320  0.39960  1.0000 0.099295516
H   H54       1.0  0.71970  0.07000  0.67680  1.0000 0.0906019379
H   H55       1.0  0.63380  0.91510  0.37320  1.0000 0.0906019379
H   H56       1.0  0.34460  0.03790  0.87890  1.0000 0.1208386279
H   H57       1.0  0.85470  0.93620  0.05910  1.0000 0.1208386279
H   H58       1.0  0.61190  0.32260  0.51850  1.0000 0.1092900589
H   H59       1.0  0.85790  0.93920  0.26070  1.0000 0.0906019379
H   H60       1.0  0.69660  0.40620  0.52970  1.0000 0.099295516
H   H61       1.0  0.56160  0.24370  0.58860  1.0000 0.1208386279
H   H62       1.0  0.97830  0.26510  0.51470  1.0000 0.1208386279
H   H63       1.0  0.05510  0.35130  0.51840  1.0000 0.099295516
H   H64       1.0  0.12520  0.10670  0.53790  1.0000 0.0906019379
H   H65       1.0  0.47860  0.15930  0.57160  1.0000 0.099295516
H   H66       1.0  0.87860  0.19580  0.41540  1.0000 0.1208386279
H   H67       1.0  0.65240  0.76910  0.60120  1.0000 0.099295516
H   H68       1.0  0.68180  0.83120  0.45470  1.0000 0.1092900589
H   H69       1.0  0.99550  0.06900  0.26260  1.0000 0.1092900589
H   H70       1.0  0.08290  0.20340  0.09730  1.0000 0.1092900589
H   H71       1.0  0.22100  0.17740  0.42560  1.0000 0.1092900589
H   H72       1.0  0.97910  0.12280  0.09950  1.0000 0.1092900589
H   H73       1.0  0.20650  0.23060  0.26030  1.0000 0.099295516
H   H74       1.0  0.53720  0.94370  0.66710  1.0000 0.1092900589
H   H75       1.0  0.52620  0.88190  0.81880  1.0000 0.099295516
H   H76       1.0  0.57120  0.79360  0.77990  1.0000 0.1092900589
C   C1        1.0  0.45810  0.55910  0.96680  1.0000 0.099295516
C   C2        1.0  0.34910  0.54500  0.78240  1.0000 0.0603418507
C   C3        1.0  0.56670  0.57430  0.90390  1.0000 -0.211277625
C   C4        1.0  0.25440  0.46860  0.53090  1.0000 0.5249968551
C   C5        1.0  0.06380  0.47280  0.27700  1.0000 0.0694113618
C   C6        1.0  0.06760  0.47080  0.15670  1.0000 -0.211277625
C   C7        1.0  0.56010  0.57420  0.78390  1.0000 0.0694113618
C   C8        1.0  0.95700  0.45920  0.96240  1.0000 0.099295516
C   C9        1.0  0.46110  0.55670  0.09640  1.0000 0.099295516
C   C10       1.0  0.34600  0.54530  0.90300  1.0000 -0.211277625
C   C11       1.0  0.85110  0.47360  0.77700  1.0000 0.0694113618
C   C12       1.0  0.84600  0.47230  0.89650  1.0000 -0.211277625
C   C13       1.0  0.35120  0.56600  0.16100  1.0000 -0.211277625
C   C14       1.0  0.95590  0.45890  0.09100  1.0000 0.099295516
C   C15       1.0  0.75560  0.54840  0.53060  1.0000 0.526161351
C   C16       1.0  0.57240  0.54100  0.27960  1.0000 0.0603418507
C   C17       1.0  0.84310  0.44820  0.15380  1.0000 -0.2171232917
C   C18       1.0  0.84750  0.45060  0.27410  1.0000 0.0694113618
C   C19       1.0  0.26030  0.64030  0.56130  1.0000 0.0694113618
C   C20       1.0  0.35700  0.56270  0.28070  1.0000 0.0694113618
C   C21       1.0  0.37490  0.43410  0.55080  1.0000 -0.0155749612
C   C22       1.0  0.57580  0.54420  0.15980  1.0000 -0.211277625
C   C23       1.0  0.06760  0.44660  0.90020  1.0000 -0.211277625
C   C24       1.0  0.29600  0.82750  0.48160  1.0000 -0.1994509541
C   C25       1.0  0.26960  0.73000  0.49540  1.0000 0.1092900589
C   C26       1.0  0.21500  0.78400  0.48730  1.0000 0.1092900589
C   C27       1.0  0.06510  0.44830  0.77950  1.0000 0.0603418507
C   C28       1.0  0.24440  0.87740  0.47420  1.0000 0.0694113618
C   C29       1.0  0.38970  0.71730  0.45020  1.0000 -0.211277625
C   C30       1.0  0.08200  0.79350  0.48420  1.0000 -0.211277625
C   C31       1.0  0.03650  0.84540  0.48060  1.0000 0.0906019379
C   C32       1.0  0.87910  0.58310  0.53220  1.0000 -0.0048335129
C   C33       1.0  0.43930  0.66680  0.46190  1.0000 0.0694113618
C   C34       1.0  0.20430  0.68940  0.55190  1.0000 -0.211277625
C   C35       1.0  0.38930  0.39400  0.45360  1.0000 0.0603418507
C   C36       1.0  0.36960  0.30500  0.38520  1.0000 -0.1187764781
C   C37       1.0  0.35380  0.34120  0.47250  1.0000 -0.1693563268
C   C38       1.0  0.96120  0.60220  0.73710  1.0000 -0.1521815129
C   C39       1.0  0.91160  0.68180  0.83490  1.0000 -0.11268695
C   C40       1.0  0.82720  0.66590  0.64150  1.0000 -0.1693563268
C   C41       1.0  0.97020  0.63400  0.83450  1.0000 -0.1187764781
C   C42       1.0  0.83660  0.69740  0.73990  1.0000 -0.1187764781
C   C43       1.0  0.88970  0.61760  0.64020  1.0000 0.0541790172
C   C44       1.0  0.43630  0.40830  0.34530  1.0000 -0.1521815129
C   C45       1.0  0.44800  0.37140  0.25710  1.0000 -0.11268695
C   C46       1.0  0.41560  0.31950  0.27870  1.0000 -0.1187764781
C   C47       1.0  0.54190  0.05910  0.03320  1.0000 0.099295516
C   C48       1.0  0.65090  0.04500  0.21760  1.0000 0.0603418507
C   C49       1.0  0.43330  0.07430  0.09610  1.0000 -0.211277625
C   C50       1.0  0.74560  0.96860  0.46910  1.0000 0.5249968551
C   C51       1.0  0.93620  0.97280  0.72300  1.0000 0.0694113618
C   C52       1.0  0.93240  0.97080  0.84330  1.0000 -0.211277625
C   C53       1.0  0.43990  0.07420  0.21610  1.0000 0.0694113618
C   C54       1.0  0.04300  0.95920  0.03760  1.0000 0.099295516
C   C55       1.0  0.53890  0.05670  0.90360  1.0000 0.099295516
C   C56       1.0  0.65400  0.04530  0.09700  1.0000 -0.211277625
C   C57       1.0  0.14890  0.97360  0.22300  1.0000 0.0694113618
C   C58       1.0  0.15400  0.97230  0.10350  1.0000 -0.211277625
C   C59       1.0  0.64880  0.06600  0.83900  1.0000 -0.211277625
C   C60       1.0  0.04410  0.95890  0.90900  1.0000 0.099295516
C   C61       1.0  0.24440  0.04840  0.46940  1.0000 0.526161351
C   C62       1.0  0.42760  0.04100  0.72040  1.0000 0.0603418507
C   C63       1.0  0.15690  0.94820  0.84620  1.0000 -0.2171232917
C   C64       1.0  0.15250  0.95060  0.72590  1.0000 0.0694113618
C   C65       1.0  0.73970  0.14030  0.43870  1.0000 0.0694113618
C   C66       1.0  0.64300  0.06270  0.71930  1.0000 0.0694113618
C   C67       1.0  0.62510  0.93410  0.44920  1.0000 -0.0155749612
C   C68       1.0  0.42420  0.04420  0.84020  1.0000 -0.211277625
C   C69       1.0  0.93240  0.94660  0.09980  1.0000 -0.211277625
C   C70       1.0  0.70400  0.32750  0.51840  1.0000 -0.1994509541
C   C71       1.0  0.73040  0.23000  0.50460  1.0000 0.1092900589
C   C72       1.0  0.78500  0.28400  0.51270  1.0000 0.1092900589
C   C73       1.0  0.93490  0.94830  0.22050  1.0000 0.0603418507
C   C74       1.0  0.75560  0.37740  0.52580  1.0000 0.0694113618
C   C75       1.0  0.61030  0.21730  0.54980  1.0000 -0.211277625
C   C76       1.0  0.91800  0.29350  0.51580  1.0000 -0.211277625
C   C77       1.0  0.96350  0.34540  0.51940  1.0000 0.0906019379
C   C78       1.0  0.12090  0.08310  0.46780  1.0000 -0.0048335129
C   C79       1.0  0.56070  0.16680  0.53810  1.0000 0.0694113618
C   C80       1.0  0.79570  0.18940  0.44810  1.0000 -0.211277625
C   C81       1.0  0.61070  0.89400  0.54640  1.0000 0.0603418507
C   C82       1.0  0.63040  0.80500  0.61480  1.0000 -0.1187764781
C   C83       1.0  0.64620  0.84120  0.52750  1.0000 -0.1693563268
C   C84       1.0  0.03880  0.10220  0.26290  1.0000 -0.1521815129
C   C85       1.0  0.08840  0.18180  0.16510  1.0000 -0.11268695
C   C86       1.0  0.17280  0.16590  0.35850  1.0000 -0.1693563268
C   C87       1.0  0.02980  0.13400  0.16550  1.0000 -0.1187764781
C   C88       1.0  0.16340  0.19740  0.26010  1.0000 -0.1187764781
C   C89       1.0  0.11030  0.11760  0.35980  1.0000 0.0541790172
C   C90       1.0  0.56370  0.90830  0.65470  1.0000 -0.1521815129
C   C91       1.0  0.55200  0.87140  0.74290  1.0000 -0.11268695
C   C92       1.0  0.58440  0.81950  0.72130  1.0000 -0.1187764781
N   N1        1.0  0.95870  0.46296  0.71600  1.0000 -0.2506931417
N   N2        1.0  0.46510  0.55005  0.34130  1.0000 -0.2388872572
N   N3        1.0  0.45500  0.55866  0.72100  1.0000 -0.2633012153
N   N4        1.0  0.95580  0.46270  0.33680  1.0000 -0.2506931417
N   N5        1.0  0.37750  0.62799  0.51780  1.0000 -0.2506931417
N   N6        1.0  0.11590  0.88707  0.47510  1.0000 -0.2506931417
N   N7        1.0  0.04130  0.96296  0.28400  1.0000 -0.2506931417
N   N8        1.0  0.53490  0.05005  0.65870  1.0000 -0.2388872572
N   N9        1.0  0.54500  0.05866  0.27900  1.0000 -0.2633012153
N   N10       1.0  0.04420  0.96270  0.66320  1.0000 -0.2506931417
N   N11       1.0  0.62250  0.12799  0.48220  1.0000 -0.2506931417
N   N12       1.0  0.88410  0.38707  0.52490  1.0000 -0.2506931417
O   O1        1.0  0.26900  0.51768  0.51890  1.0000 -0.5569598792
O   O2        1.0  0.76880  0.49908  0.52450  1.0000 -0.5569598792
O   O3        1.0  0.64980  0.57305  0.53460  1.0000 -0.5533189394
O   O4        1.0  0.14800  0.44409  0.52630  1.0000 -0.5569598792
O   O5        1.0  0.99090  0.54966  0.52270  1.0000 -0.4985719986
O   O6        1.0  0.48930  0.46678  0.55830  1.0000 -0.4910466291
O   O7        1.0  0.73100  0.01768  0.48110  1.0000 -0.5569598792
O   O8        1.0  0.23120  0.99908  0.47550  1.0000 -0.5569598792
O   O9        1.0  0.35020  0.07305  0.46540  1.0000 -0.5533189394
O   O10       1.0  0.85200  0.94409  0.47370  1.0000 -0.5569598792
O   O11       1.0  0.00910  0.04966  0.47730  1.0000 -0.4985719986
O   O12       1.0  0.51070  0.96678  0.44170  1.0000 -0.4910466291
