# DDEC6 charges by PACMAN v1.1 (https://github.com/mtap-research/PACMAN-charge/)
data_2017[Ag][hcb]2[ASR]16
_chemical_formula_sum              "Ag6 H126 C162 N18 O36"
_cell_length_a       16.6866
_cell_length_b       17.5702
_cell_length_c       19.8761
_cell_angle_alpha    95.477
_cell_angle_beta     96.376
_cell_angle_gamma    116.987

_symmetry_space_group_name_H-M    "P 1"
_symmetry_Int_Tables_number       1

loop_
  _symmetry_equiv_pos_as_xyz
  'x, y, z'

loop_
  _atom_site_type_symbol
  _atom_site_label
  _atom_site_symmetry_multiplicity
  _atom_site_fract_x
  _atom_site_fract_y
  _atom_site_fract_z
  _atom_site_occupancy
  _atom_site_charge
Ag  Ag1       1.0  0.68613  0.16176  0.43331  1.0000 0.2290285349
Ag  Ag2       1.0  0.27383  0.13667  0.23028  1.0000 0.2248904974
Ag  Ag3       1.0  0.72113  0.48882  0.14161  1.0000 0.2290285349
Ag  Ag4       1.0  0.31387  0.83824  0.56669  1.0000 0.2290285349
Ag  Ag5       1.0  0.72617  0.86333  0.76972  1.0000 0.2290285349
Ag  Ag6       1.0  0.27887  0.51118  0.85839  1.0000 0.2290285349
H   H1        1.0  0.62550  0.30920  0.43030  1.0000 0.0907292132
H   H2        1.0  0.50230  0.33490  0.42100  1.0000 0.1309020225
H   H3        1.0  0.33880  0.07720  0.40860  1.0000 0.1309020225
H   H4        1.0  0.46930  0.06120  0.42520  1.0000 0.0907292132
H   H5        1.0  0.22210  0.28970  0.37940  1.0000 0.1014566127
H   H6        1.0  0.24550  0.31170  0.46170  1.0000 0.1183073548
H   H7        1.0  0.79950  0.05480  0.44720  1.0000 0.1014566127
H   H8        1.0  0.78110  0.91740  0.44590  1.0000 0.1386320189
H   H9        1.0  0.50810  0.82700  0.39910  1.0000 0.1309020225
H   H10       1.0  0.53410  0.96680  0.39760  1.0000 0.0907292132
H   H11       1.0  0.54480  0.59900  0.37380  1.0000 0.1119299305
H   H12       1.0  0.56270  0.61800  0.45610  1.0000 0.1014566127
H   H13       1.0  0.88530  0.29400  0.50140  1.0000 0.0907292132
H   H14       1.0  0.01790  0.41000  0.48380  1.0000 0.1309020225
H   H15       1.0  0.87080  0.43640  0.32050  1.0000 0.1309020225
H   H16       1.0  0.74470  0.31450  0.33820  1.0000 0.0907292132
H   H17       1.0  0.19600  0.58420  0.35270  1.0000 0.1183073548
H   H18       1.0  0.22730  0.62760  0.43220  1.0000 0.1014566127
H   H19       1.0  0.18060  0.41180  0.40870  1.0000 0.1183073548
H   H20       1.0  0.44080  0.45500  0.41940  1.0000 0.1119299305
H   H21       1.0  0.38200  0.65270  0.40770  1.0000 0.1183073548
H   H22       1.0  0.32990  0.98490  0.23960  1.0000 0.1014566127
H   H23       1.0  0.45450  0.95930  0.24520  1.0000 0.1309020225
H   H24       1.0  0.61630  0.21690  0.25820  1.0000 0.1183073548
H   H25       1.0  0.48780  0.23450  0.25090  1.0000 0.0907292132
H   H26       1.0  0.71800  0.98940  0.20560  1.0000 0.1119299305
H   H27       1.0  0.73560  0.00610  0.28790  1.0000 0.1014566127
H   H28       1.0  0.16590  0.24310  0.22970  1.0000 0.1014566127
H   H29       1.0  0.17990  0.38000  0.22280  1.0000 0.1386320189
H   H30       1.0  0.45340  0.47330  0.25430  1.0000 0.1183073548
H   H31       1.0  0.43170  0.33480  0.26000  1.0000 0.0907292132
H   H32       1.0  0.39960  0.68060  0.19530  1.0000 0.1014566127
H   H33       1.0  0.41280  0.69450  0.27750  1.0000 0.1119299305
H   H34       1.0  0.09940  0.00600  0.12170  1.0000 0.1014566127
H   H35       1.0  0.95670  0.88750  0.11130  1.0000 0.1386320189
H   H36       1.0  0.00510  0.89420  0.31600  1.0000 0.1309020225
H   H37       1.0  0.14800  0.01160  0.32080  1.0000 0.1014566127
H   H38       1.0  0.74010  0.67470  0.23260  1.0000 0.1014566127
H   H39       1.0  0.75410  0.70370  0.31370  1.0000 0.1183073548
H   H40       1.0  0.57840  0.64290  0.25180  1.0000 0.1119299305
H   H41       1.0  0.51820  0.83940  0.23060  1.0000 0.1183073548
H   H42       1.0  0.78070  0.88570  0.26030  1.0000 0.1183073548
H   H43       1.0  0.82830  0.37820  0.13740  1.0000 0.1014566127
H   H44       1.0  0.80840  0.23830  0.12310  1.0000 0.1386320189
H   H45       1.0  0.53650  0.15080  0.09280  1.0000 0.1183073548
H   H46       1.0  0.56330  0.29310  0.10640  1.0000 0.0907292132
H   H47       1.0  0.56970  0.92930  0.03100  1.0000 0.1119299305
H   H48       1.0  0.58900  0.92960  0.11190  1.0000 0.1014566127
H   H49       1.0  0.66530  0.63120  0.10000  1.0000 0.1014566127
H   H50       1.0  0.53960  0.65360  0.07450  1.0000 0.1309020225
H   H51       1.0  0.37780  0.40200  0.08380  1.0000 0.1309020225
H   H52       1.0  0.50760  0.38950  0.11510  1.0000 0.0907292132
H   H53       1.0  0.26400  0.61000  0.00800  1.0000 0.1014566127
H   H54       1.0  0.26270  0.61350  0.08890  1.0000 0.1119299305
H   H55       1.0  0.84750  0.58510  0.04060  1.0000 0.1014566127
H   H56       1.0  0.98900  0.69790  0.03460  1.0000 0.1386320189
H   H57       1.0  0.05040  0.73480  0.24060  1.0000 0.1386320189
H   H58       1.0  0.90880  0.61930  0.24100  1.0000 0.1014566127
H   H59       1.0  0.22360  0.90810  0.02440  1.0000 0.1183073548
H   H60       1.0  0.24910  0.93470  0.10620  1.0000 0.1014566127
H   H61       1.0  0.40590  0.97090  0.07650  1.0000 0.1183073548
H   H62       1.0  0.46950  0.77430  0.06940  1.0000 0.1183073548
H   H63       1.0  0.20710  0.72300  0.05920  1.0000 0.1119299305
H   H64       1.0  0.37450  0.69080  0.56970  1.0000 0.0907292132
H   H65       1.0  0.49770  0.66510  0.57900  1.0000 0.1309020225
H   H66       1.0  0.66120  0.92280  0.59140  1.0000 0.1309020225
H   H67       1.0  0.53070  0.93880  0.57480  1.0000 0.0907292132
H   H68       1.0  0.77790  0.71030  0.62060  1.0000 0.1014566127
H   H69       1.0  0.75450  0.68830  0.53830  1.0000 0.1183073548
H   H70       1.0  0.20050  0.94520  0.55280  1.0000 0.1014566127
H   H71       1.0  0.21890  0.08260  0.55410  1.0000 0.1386320189
H   H72       1.0  0.49190  0.17300  0.60090  1.0000 0.1309020225
H   H73       1.0  0.46590  0.03320  0.60240  1.0000 0.0907292132
H   H74       1.0  0.45520  0.40100  0.62620  1.0000 0.1119299305
H   H75       1.0  0.43730  0.38200  0.54390  1.0000 0.1014566127
H   H76       1.0  0.11470  0.70600  0.49860  1.0000 0.0907292132
H   H77       1.0  0.98210  0.59000  0.51620  1.0000 0.1309020225
H   H78       1.0  0.12920  0.56360  0.67950  1.0000 0.1309020225
H   H79       1.0  0.25530  0.68550  0.66180  1.0000 0.0907292132
H   H80       1.0  0.80400  0.41580  0.64730  1.0000 0.1183073548
H   H81       1.0  0.77270  0.37240  0.56780  1.0000 0.1014566127
H   H82       1.0  0.81940  0.58820  0.59130  1.0000 0.1183073548
H   H83       1.0  0.55920  0.54500  0.58060  1.0000 0.1119299305
H   H84       1.0  0.61800  0.34730  0.59230  1.0000 0.1183073548
H   H85       1.0  0.67010  0.01510  0.76040  1.0000 0.1014566127
H   H86       1.0  0.54550  0.04070  0.75480  1.0000 0.1309020225
H   H87       1.0  0.38370  0.78310  0.74180  1.0000 0.1183073548
H   H88       1.0  0.51220  0.76550  0.74910  1.0000 0.0907292132
H   H89       1.0  0.28200  0.01060  0.79440  1.0000 0.1119299305
H   H90       1.0  0.26440  0.99390  0.71210  1.0000 0.1014566127
H   H91       1.0  0.83410  0.75690  0.77030  1.0000 0.1014566127
H   H92       1.0  0.82010  0.62000  0.77720  1.0000 0.1386320189
H   H93       1.0  0.54660  0.52670  0.74570  1.0000 0.1183073548
H   H94       1.0  0.56830  0.66520  0.74000  1.0000 0.0907292132
H   H95       1.0  0.60040  0.31940  0.80470  1.0000 0.1014566127
H   H96       1.0  0.58720  0.30550  0.72250  1.0000 0.1119299305
H   H97       1.0  0.90060  0.99400  0.87830  1.0000 0.1014566127
H   H98       1.0  0.04330  0.11250  0.88870  1.0000 0.1386320189
H   H99       1.0  0.99490  0.10580  0.68400  1.0000 0.1309020225
H   H100      1.0  0.85200  0.98840  0.67920  1.0000 0.1014566127
H   H101      1.0  0.25990  0.32530  0.76740  1.0000 0.1014566127
H   H102      1.0  0.24590  0.29630  0.68630  1.0000 0.1183073548
H   H103      1.0  0.42160  0.35710  0.74820  1.0000 0.1119299305
H   H104      1.0  0.48180  0.16060  0.76940  1.0000 0.1119299305
H   H105      1.0  0.21930  0.11430  0.73970  1.0000 0.1183073548
H   H106      1.0  0.17170  0.62180  0.86260  1.0000 0.1014566127
H   H107      1.0  0.19160  0.76170  0.87690  1.0000 0.1386320189
H   H108      1.0  0.46350  0.84920  0.90720  1.0000 0.1183073548
H   H109      1.0  0.43670  0.70690  0.89360  1.0000 0.0907292132
H   H110      1.0  0.43030  0.07070  0.96900  1.0000 0.1119299305
H   H111      1.0  0.41100  0.07040  0.88810  1.0000 0.1014566127
H   H112      1.0  0.33470  0.36880  0.90000  1.0000 0.1014566127
H   H113      1.0  0.46040  0.34640  0.92550  1.0000 0.1309020225
H   H114      1.0  0.62220  0.59800  0.91620  1.0000 0.1309020225
H   H115      1.0  0.49240  0.61050  0.88490  1.0000 0.0907292132
H   H116      1.0  0.73600  0.39000  0.99200  1.0000 0.1014566127
H   H117      1.0  0.73730  0.38650  0.91110  1.0000 0.1119299305
H   H118      1.0  0.15250  0.41490  0.95940  1.0000 0.1014566127
H   H119      1.0  0.01100  0.30210  0.96540  1.0000 0.1386320189
H   H120      1.0  0.94960  0.26520  0.75940  1.0000 0.1386320189
H   H121      1.0  0.09120  0.38070  0.75900  1.0000 0.1014566127
H   H122      1.0  0.77640  0.09190  0.97560  1.0000 0.1183073548
H   H123      1.0  0.75090  0.06530  0.89380  1.0000 0.1014566127
H   H124      1.0  0.59410  0.02910  0.92350  1.0000 0.1183073548
H   H125      1.0  0.53050  0.22570  0.93060  1.0000 0.1183073548
H   H126      1.0  0.79290  0.27700  0.94080  1.0000 0.1119299305
C   C1        1.0  0.56640  0.26160  0.42680  1.0000 0.0318626527
C   C2        1.0  0.49360  0.27750  0.42040  1.0000 -0.1772291822
C   C3        1.0  0.40690  0.20890  0.41290  1.0000 -0.0068324221
C   C4        1.0  0.39740  0.12610  0.41390  1.0000 -0.1772291822
C   C5        1.0  0.47550  0.11730  0.42290  1.0000 0.0406483268
C   C6        1.0  0.32300  0.22020  0.40680  1.0000 0.4816382697
C   C7        1.0  0.27110  0.32490  0.41920  1.0000 -0.0843288965
C   C8        1.0  0.73940  0.00770  0.43610  1.0000 0.0406483268
C   C9        1.0  0.72920  0.92630  0.43600  1.0000 -0.1699614423
C   C10       1.0  0.64220  0.85650  0.42130  1.0000 -0.0023690061
C   C11       1.0  0.56890  0.87310  0.40800  1.0000 -0.1699614423
C   C12       1.0  0.58510  0.95670  0.40790  1.0000 0.0318626527
C   C13       1.0  0.63200  0.76710  0.42240  1.0000 0.4910827051
C   C14       1.0  0.52630  0.62020  0.41420  1.0000 -0.0843288965
C   C15       1.0  0.88320  0.32170  0.46300  1.0000 0.0591183294
C   C16       1.0  0.95860  0.43430  0.39940  1.0000 0.0128959471
C   C17       1.0  0.96200  0.39160  0.45340  1.0000 -0.1699614423
C   C18       1.0  0.87590  0.40660  0.35680  1.0000 -0.1699614423
C   C19       1.0  0.80110  0.33480  0.36840  1.0000 0.0406483268
C   C20       1.0  0.04260  0.50970  0.38520  1.0000 0.4910827051
C   C21       1.0  0.20410  0.57260  0.40000  1.0000 -0.0899358645
C   C22       1.0  0.27060  0.53700  0.40810  1.0000 0.1014566127
C   C23       1.0  0.24340  0.45070  0.41050  1.0000 -0.2104902446
C   C24       1.0  0.30730  0.42010  0.41560  1.0000 0.1014566127
C   C25       1.0  0.39740  0.47600  0.41660  1.0000 -0.2206224273
C   C26       1.0  0.42610  0.56350  0.41370  1.0000 0.0907292132
C   C27       1.0  0.36280  0.59320  0.40960  1.0000 -0.2206224273
C   C28       1.0  0.38900  0.03250  0.24300  1.0000 0.0406483268
C   C29       1.0  0.46300  0.01670  0.24670  1.0000 -0.1772291822
C   C30       1.0  0.54950  0.08530  0.25280  1.0000 -0.0023690061
C   C31       1.0  0.55790  0.16800  0.25420  1.0000 -0.1863160759
C   C32       1.0  0.48100  0.17770  0.24970  1.0000 0.0406483268
C   C33       1.0  0.63310  0.07430  0.25550  1.0000 0.4816382697
C   C34       1.0  0.68920  0.97260  0.24640  1.0000 -0.0899358645
C   C35       1.0  0.22530  0.29060  0.23460  1.0000 0.0591183294
C   C36       1.0  0.23270  0.37210  0.23030  1.0000 -0.1624888844
C   C37       1.0  0.31880  0.44060  0.23720  1.0000 0.0128959471
C   C38       1.0  0.39330  0.42660  0.24870  1.0000 -0.1772291822
C   C39       1.0  0.37980  0.34400  0.25220  1.0000 0.0211170771
C   C40       1.0  0.32850  0.52940  0.23340  1.0000 0.4910827051
C   C41       1.0  0.43350  0.67570  0.23740  1.0000 -0.0843288965
C   C42       1.0  0.07990  0.98260  0.16160  1.0000 0.0406483268
C   C43       1.0  0.99470  0.91250  0.15510  1.0000 -0.1699614423
C   C44       1.0  0.96520  0.87900  0.21330  1.0000 -0.0068324221
C   C45       1.0  0.02320  0.91620  0.27530  1.0000 -0.1699614423
C   C46       1.0  0.10840  0.98620  0.27780  1.0000 0.0702885248
C   C47       1.0  0.87140  0.80500  0.20690  1.0000 0.4910827051
C   C48       1.0  0.75730  0.72460  0.26910  1.0000 -0.0899358645
C   C49       1.0  0.69070  0.75970  0.25760  1.0000 0.1014566127
C   C50       1.0  0.59790  0.70260  0.25050  1.0000 -0.2206224273
C   C51       1.0  0.53390  0.73190  0.24160  1.0000 0.1014566127
C   C52       1.0  0.56220  0.81950  0.23830  1.0000 -0.2301364496
C   C53       1.0  0.65500  0.87750  0.24620  1.0000 0.1014566127
C   C54       1.0  0.71750  0.84640  0.25540  1.0000 -0.2206224273
C   C55       1.0  0.76800  0.33140  0.12840  1.0000 0.0406483268
C   C56       1.0  0.75680  0.24830  0.11960  1.0000 -0.1624888844
C   C57       1.0  0.66940  0.17960  0.10550  1.0000 0.0128959471
C   C58       1.0  0.59740  0.19680  0.10160  1.0000 -0.1699614423
C   C59       1.0  0.61400  0.28190  0.11050  1.0000 0.0318626527
C   C60       1.0  0.65820  0.08920  0.09550  1.0000 0.4910827051
C   C61       1.0  0.55230  0.94080  0.07540  1.0000 -0.0843288965
C   C62       1.0  0.60590  0.58440  0.09740  1.0000 0.0591183294
C   C63       1.0  0.53120  0.59800  0.08190  1.0000 -0.1699614423
C   C64       1.0  0.44400  0.53040  0.07720  1.0000 0.000909875
C   C65       1.0  0.43630  0.45080  0.08810  1.0000 -0.1699614423
C   C66       1.0  0.51380  0.44360  0.10520  1.0000 0.0318626527
C   C67       1.0  0.36060  0.53990  0.06250  1.0000 0.4816382697
C   C68       1.0  0.30120  0.63810  0.05420  1.0000 -0.0899358645
C   C69       1.0  0.88930  0.61610  0.08200  1.0000 0.0591183294
C   C70       1.0  0.97330  0.68380  0.07790  1.0000 -0.1624888844
C   C71       1.0  0.03290  0.72990  0.13700  1.0000 0.000909875
C   C72       1.0  0.00920  0.70500  0.19870  1.0000 -0.1624888844
C   C73       1.0  0.92480  0.63630  0.19840  1.0000 0.0454138357
C   C74       1.0  0.12510  0.80600  0.13850  1.0000 0.4910827051
C   C75       1.0  0.22780  0.88590  0.06790  1.0000 -0.0957149222
C   C76       1.0  0.29600  0.85170  0.06900  1.0000 0.1014566127
C   C77       1.0  0.38780  0.91080  0.07340  1.0000 -0.2206224273
C   C78       1.0  0.45200  0.88230  0.07320  1.0000 0.1014566127
C   C79       1.0  0.42470  0.79370  0.06850  1.0000 -0.2206224273
C   C80       1.0  0.33460  0.73450  0.06260  1.0000 0.1014566127
C   C81       1.0  0.26980  0.76360  0.06300  1.0000 -0.2206224273
C   C82       1.0  0.43360  0.73840  0.57320  1.0000 0.0318626527
C   C83       1.0  0.50640  0.72250  0.57960  1.0000 -0.1772291822
C   C84       1.0  0.59310  0.79110  0.58710  1.0000 -0.0068324221
C   C85       1.0  0.60260  0.87390  0.58610  1.0000 -0.1772291822
C   C86       1.0  0.52450  0.88270  0.57710  1.0000 0.0406483268
C   C87       1.0  0.67700  0.77980  0.59320  1.0000 0.4816382697
C   C88       1.0  0.72890  0.67510  0.58080  1.0000 -0.0843288965
C   C89       1.0  0.26060  0.99230  0.56390  1.0000 0.0406483268
C   C90       1.0  0.27080  0.07370  0.56400  1.0000 -0.1699614423
C   C91       1.0  0.35780  0.14350  0.57870  1.0000 -0.0023690061
C   C92       1.0  0.43110  0.12690  0.59200  1.0000 -0.1699614423
C   C93       1.0  0.41490  0.04330  0.59210  1.0000 0.0318626527
C   C94       1.0  0.36800  0.23290  0.57760  1.0000 0.4910827051
C   C95       1.0  0.47370  0.37980  0.58580  1.0000 -0.0843288965
C   C96       1.0  0.11680  0.67830  0.53700  1.0000 0.0591183294
C   C97       1.0  0.04140  0.56570  0.60060  1.0000 0.0128959471
C   C98       1.0  0.03800  0.60840  0.54660  1.0000 -0.1699614423
C   C99       1.0  0.12410  0.59340  0.64320  1.0000 -0.1699614423
C   C100      1.0  0.19890  0.66520  0.63160  1.0000 0.0406483268
C   C101      1.0  0.95740  0.49030  0.61480  1.0000 0.4910827051
C   C102      1.0  0.79590  0.42740  0.60000  1.0000 -0.0899358645
C   C103      1.0  0.72940  0.46300  0.59190  1.0000 0.1014566127
C   C104      1.0  0.75660  0.54930  0.58950  1.0000 -0.2104902446
C   C105      1.0  0.69270  0.57990  0.58440  1.0000 0.1014566127
C   C106      1.0  0.60260  0.52400  0.58340  1.0000 -0.2206224273
C   C107      1.0  0.57390  0.43650  0.58630  1.0000 0.0907292132
C   C108      1.0  0.63720  0.40680  0.59040  1.0000 -0.2206224273
C   C109      1.0  0.61100  0.96750  0.75700  1.0000 0.0406483268
C   C110      1.0  0.53700  0.98330  0.75330  1.0000 -0.1772291822
C   C111      1.0  0.45050  0.91470  0.74720  1.0000 -0.0023690061
C   C112      1.0  0.44210  0.83200  0.74580  1.0000 -0.1863160759
C   C113      1.0  0.51900  0.82230  0.75030  1.0000 0.0406483268
C   C114      1.0  0.36690  0.92570  0.74450  1.0000 0.4816382697
C   C115      1.0  0.31080  0.02740  0.75360  1.0000 -0.0899358645
C   C116      1.0  0.77470  0.70940  0.76540  1.0000 0.0591183294
C   C117      1.0  0.76730  0.62790  0.76970  1.0000 -0.1624888844
C   C118      1.0  0.68120  0.55940  0.76280  1.0000 0.0128959471
C   C119      1.0  0.60670  0.57340  0.75130  1.0000 -0.1772291822
C   C120      1.0  0.62020  0.65600  0.74780  1.0000 0.0211170771
C   C121      1.0  0.67150  0.47060  0.76660  1.0000 0.4910827051
C   C122      1.0  0.56650  0.32430  0.76260  1.0000 -0.0843288965
C   C123      1.0  0.92010  0.01740  0.83840  1.0000 0.0406483268
C   C124      1.0  0.00530  0.08750  0.84490  1.0000 -0.1699614423
C   C125      1.0  0.03480  0.12100  0.78670  1.0000 -0.0068324221
C   C126      1.0  0.97680  0.08380  0.72470  1.0000 -0.1699614423
C   C127      1.0  0.89160  0.01380  0.72220  1.0000 0.0702885248
C   C128      1.0  0.12860  0.19500  0.79310  1.0000 0.4910827051
C   C129      1.0  0.24270  0.27540  0.73090  1.0000 -0.0899358645
C   C130      1.0  0.30930  0.24030  0.74240  1.0000 0.1014566127
C   C131      1.0  0.40210  0.29740  0.74950  1.0000 -0.2206224273
C   C132      1.0  0.46610  0.26810  0.75840  1.0000 0.1014566127
C   C133      1.0  0.43780  0.18050  0.76170  1.0000 -0.2301364496
C   C134      1.0  0.34500  0.12250  0.75380  1.0000 0.1014566127
C   C135      1.0  0.28250  0.15360  0.74460  1.0000 -0.2206224273
C   C136      1.0  0.23200  0.66860  0.87160  1.0000 0.0406483268
C   C137      1.0  0.24320  0.75170  0.88040  1.0000 -0.1624888844
C   C138      1.0  0.33060  0.82040  0.89450  1.0000 0.0128959471
C   C139      1.0  0.40260  0.80320  0.89840  1.0000 -0.1699614423
C   C140      1.0  0.38600  0.71810  0.88950  1.0000 0.0318626527
C   C141      1.0  0.34180  0.91080  0.90450  1.0000 0.4910827051
C   C142      1.0  0.44770  0.05920  0.92460  1.0000 -0.0843288965
C   C143      1.0  0.39410  0.41560  0.90260  1.0000 0.0591183294
C   C144      1.0  0.46880  0.40200  0.91810  1.0000 -0.1772291822
C   C145      1.0  0.55600  0.46960  0.92280  1.0000 0.000909875
C   C146      1.0  0.56370  0.54920  0.91190  1.0000 -0.1699614423
C   C147      1.0  0.48620  0.55640  0.89480  1.0000 0.0318626527
C   C148      1.0  0.63940  0.46010  0.93750  1.0000 0.4816382697
C   C149      1.0  0.69880  0.36190  0.94580  1.0000 -0.0899358645
C   C150      1.0  0.11070  0.38390  0.91800  1.0000 0.0591183294
C   C151      1.0  0.02670  0.31620  0.92210  1.0000 -0.1624888844
C   C152      1.0  0.96710  0.27010  0.86300  1.0000 0.000909875
C   C153      1.0  0.99080  0.29500  0.80130  1.0000 -0.1624888844
C   C154      1.0  0.07520  0.36370  0.80160  1.0000 0.0454138357
C   C155      1.0  0.87490  0.19400  0.86150  1.0000 0.4910827051
C   C156      1.0  0.77220  0.11410  0.93210  1.0000 -0.0957149222
C   C157      1.0  0.70400  0.14830  0.93100  1.0000 0.1014566127
C   C158      1.0  0.61220  0.08920  0.92660  1.0000 -0.2206224273
C   C159      1.0  0.54800  0.11770  0.92680  1.0000 0.1014566127
C   C160      1.0  0.57530  0.20630  0.93150  1.0000 -0.2206224273
C   C161      1.0  0.66540  0.26550  0.93740  1.0000 0.1014566127
C   C162      1.0  0.73020  0.23640  0.93700  1.0000 -0.2206224273
N   N1        1.0  0.55950  0.18300  0.42860  1.0000 -0.1977104425
N   N2        1.0  0.66930  0.02580  0.42140  1.0000 -0.1977104425
N   N3        1.0  0.80410  0.29200  0.42020  1.0000 -0.1977104425
N   N4        1.0  0.39670  0.11260  0.24390  1.0000 -0.1977104425
N   N5        1.0  0.29620  0.27530  0.24500  1.0000 -0.1977104425
N   N6        1.0  0.13680  0.01940  0.22220  1.0000 -0.1977104425
N   N7        1.0  0.69800  0.34930  0.12480  1.0000 -0.1977104425
N   N8        1.0  0.59770  0.50810  0.10860  1.0000 -0.1977104425
N   N9        1.0  0.86430  0.59240  0.14100  1.0000 -0.1977104425
N   N10       1.0  0.44050  0.81700  0.57140  1.0000 -0.1977104425
N   N11       1.0  0.33070  0.97420  0.57860  1.0000 -0.1977104425
N   N12       1.0  0.19590  0.70800  0.57980  1.0000 -0.1977104425
N   N13       1.0  0.60330  0.88740  0.75610  1.0000 -0.1977104425
N   N14       1.0  0.70380  0.72470  0.75500  1.0000 -0.1977104425
N   N15       1.0  0.86320  0.98060  0.77780  1.0000 -0.1977104425
N   N16       1.0  0.30200  0.65070  0.87520  1.0000 -0.1977104425
N   N17       1.0  0.40230  0.49190  0.89140  1.0000 -0.1977104425
N   N18       1.0  0.13570  0.40760  0.85900  1.0000 -0.1977104425
O   O1        1.0  0.24560  0.16310  0.39480  1.0000 -0.4790337711
O   O2        1.0  0.34510  0.30480  0.41840  1.0000 -0.2206224273
O   O3        1.0  0.69400  0.75150  0.43210  1.0000 -0.450564909
O   O4        1.0  0.54310  0.70800  0.41240  1.0000 -0.2301364496
O   O5        1.0  0.04070  0.56360  0.35300  1.0000 -0.485223475
O   O6        1.0  0.11750  0.50910  0.41450  1.0000 -0.2471345394
O   O7        1.0  0.71010  0.13330  0.26430  1.0000 -0.4706188842
O   O8        1.0  0.61340  0.99100  0.24550  1.0000 -0.2206224273
O   O9        1.0  0.26670  0.54630  0.22960  1.0000 -0.4445441246
O   O10       1.0  0.41550  0.58680  0.23620  1.0000 -0.2301364496
O   O11       1.0  0.82280  0.76420  0.15330  1.0000 -0.4621394753
O   O12       1.0  0.84960  0.78940  0.26870  1.0000 -0.2206224273
O   O13       1.0  0.71970  0.07200  0.09510  1.0000 -0.450564909
O   O14       1.0  0.56990  0.03020  0.08890  1.0000 -0.2380264059
O   O15       1.0  0.28470  0.48090  0.05370  1.0000 -0.4706188842
O   O16       1.0  0.37910  0.62250  0.06280  1.0000 -0.2206224273
O   O17       1.0  0.17810  0.84840  0.18900  1.0000 -0.4621394753
O   O18       1.0  0.13850  0.81930  0.07400  1.0000 -0.2301364496
O   O19       1.0  0.75440  0.83690  0.60520  1.0000 -0.4790337711
O   O20       1.0  0.65490  0.69520  0.58160  1.0000 -0.2206224273
O   O21       1.0  0.30600  0.24850  0.56790  1.0000 -0.450564909
O   O22       1.0  0.45690  0.29200  0.58760  1.0000 -0.2301364496
O   O23       1.0  0.95930  0.43640  0.64700  1.0000 -0.485223475
O   O24       1.0  0.88250  0.49090  0.58550  1.0000 -0.2471345394
O   O25       1.0  0.28990  0.86670  0.73570  1.0000 -0.4706188842
O   O26       1.0  0.38660  0.00900  0.75450  1.0000 -0.2206224273
O   O27       1.0  0.73330  0.45370  0.77040  1.0000 -0.4445441246
O   O28       1.0  0.58450  0.41320  0.76380  1.0000 -0.2301364496
O   O29       1.0  0.17720  0.23580  0.84670  1.0000 -0.4621394753
O   O30       1.0  0.15040  0.21060  0.73130  1.0000 -0.2206224273
O   O31       1.0  0.28030  0.92800  0.90490  1.0000 -0.450564909
O   O32       1.0  0.43010  0.96980  0.91110  1.0000 -0.2380264059
O   O33       1.0  0.71530  0.51910  0.94630  1.0000 -0.4706188842
O   O34       1.0  0.62090  0.37750  0.93720  1.0000 -0.2206224273
O   O35       1.0  0.82190  0.15160  0.81100  1.0000 -0.4621394753
O   O36       1.0  0.86150  0.18070  0.92600  1.0000 -0.2301364496
