# DDEC6 charges by PACMAN v1.1 (https://github.com/mtap-research/PACMAN-charge/)
data_2017[Co][nan]3[ASR]10
_chemical_formula_sum              "Co6 H16 C28 N12 O12"
_cell_length_a       11.0001
_cell_length_b       11.0001
_cell_length_c       11.181
_cell_angle_alpha    85.3265
_cell_angle_beta     94.6735
_cell_angle_gamma    105.55

_symmetry_space_group_name_H-M    "P 1"
_symmetry_Int_Tables_number       1

loop_
  _symmetry_equiv_pos_as_xyz
  'x, y, z'

loop_
  _atom_site_type_symbol
  _atom_site_label
  _atom_site_symmetry_multiplicity
  _atom_site_fract_x
  _atom_site_fract_y
  _atom_site_fract_z
  _atom_site_occupancy
  _atom_site_charge
Co  Co1       1.0  0.90866  0.90866  0.75000  1.0000 0.8853714946
Co  Co2       1.0  0.09134  0.09134  0.25000  1.0000 0.8794914964
Co  Co3       1.0  0.13883  0.97741  0.00149  1.0000 0.8794914964
Co  Co4       1.0  0.97741  0.13883  0.49851  1.0000 0.8794914964
Co  Co5       1.0  0.86117  0.02259  0.99851  1.0000 0.8794914964
Co  Co6       1.0  0.02259  0.86117  0.50149  1.0000 0.8794914964
H   H1        1.0  0.44110  0.93410  0.93410  1.0000 0.13793288
H   H2        1.0  0.93410  0.44110  0.56590  1.0000 0.13793288
H   H3        1.0  0.55890  0.06590  0.06590  1.0000 0.13793288
H   H4        1.0  0.06590  0.55890  0.43410  1.0000 0.13793288
H   H5        1.0  0.34700  0.86620  0.52040  1.0000 0.13793288
H   H6        1.0  0.86620  0.34700  0.97960  1.0000 0.13793288
H   H7        1.0  0.65300  0.13380  0.47960  1.0000 0.13793288
H   H8        1.0  0.13380  0.65300  0.02040  1.0000 0.13793288
H   H9        1.0  0.54650  0.87730  0.61090  1.0000 0.1193711604
H   H10       1.0  0.87730  0.54650  0.88910  1.0000 0.1193711604
H   H11       1.0  0.45350  0.12270  0.38910  1.0000 0.1193711604
H   H12       1.0  0.12270  0.45350  0.11090  1.0000 0.1193711604
H   H13       1.0  0.91900  0.82100  0.93900  1.0000 0.3897409919
H   H14       1.0  0.82100  0.91900  0.56100  1.0000 0.3897409919
H   H15       1.0  0.08100  0.17900  0.06100  1.0000 0.3897409919
H   H16       1.0  0.17900  0.08100  0.43900  1.0000 0.3897409919
C   C1        1.0  0.64730  0.91510  0.82980  1.0000 0.5892470363
C   C2        1.0  0.91510  0.64730  0.67020  1.0000 0.5892470363
C   C3        1.0  0.35270  0.08490  0.17020  1.0000 0.5892470363
C   C4        1.0  0.08490  0.35270  0.32980  1.0000 0.5892470363
C   C5        1.0  0.51200  0.90640  0.78070  1.0000 -0.0211934154
C   C6        1.0  0.90640  0.51200  0.71930  1.0000 -0.0211934154
C   C7        1.0  0.48800  0.09360  0.21930  1.0000 -0.0211934154
C   C8        1.0  0.09360  0.48800  0.28070  1.0000 -0.0211934154
C   C9        1.0  0.42190  0.92150  0.85270  1.0000 -0.1651977082
C   C10       1.0  0.92150  0.42190  0.64730  1.0000 -0.1651977082
C   C11       1.0  0.57810  0.07850  0.14730  1.0000 -0.1651977082
C   C12       1.0  0.07850  0.57810  0.35270  1.0000 -0.1651977082
C   C13       1.0  0.30040  0.91720  0.80040  1.0000 0.1348859551
C   C14       1.0  0.91720  0.30040  0.69960  1.0000 0.1348859551
C   C15       1.0  0.69960  0.08280  0.19960  1.0000 0.1348859551
C   C16       1.0  0.08280  0.69960  0.30040  1.0000 0.1348859551
C   C17       1.0  0.27550  0.89750  0.67480  1.0000 0.13793288
C   C18       1.0  0.89750  0.27550  0.82520  1.0000 0.13793288
C   C19       1.0  0.72450  0.10250  0.32520  1.0000 0.13793288
C   C20       1.0  0.10250  0.72450  0.17480  1.0000 0.13793288
C   C21       1.0  0.36540  0.88060  0.60150  1.0000 -0.1846686904
C   C22       1.0  0.88060  0.36540  0.89850  1.0000 -0.1846686904
C   C23       1.0  0.63460  0.11940  0.39850  1.0000 -0.1846686904
C   C24       1.0  0.11940  0.63460  0.10150  1.0000 -0.1846686904
C   C25       1.0  0.48320  0.88660  0.65680  1.0000 -0.1200436693
C   C26       1.0  0.88660  0.48320  0.84320  1.0000 -0.1200436693
C   C27       1.0  0.51680  0.11340  0.34320  1.0000 -0.1200436693
C   C28       1.0  0.11340  0.51680  0.15680  1.0000 -0.1200436693
N   N1        1.0  0.15290  0.89890  0.64690  1.0000 -0.2581511554
N   N2        1.0  0.89890  0.15290  0.85310  1.0000 -0.2581511554
N   N3        1.0  0.84710  0.10110  0.35310  1.0000 -0.2581511554
N   N4        1.0  0.10110  0.84710  0.14690  1.0000 -0.2581511554
N   N5        1.0  0.10670  0.92130  0.74900  1.0000 -0.0336878696
N   N6        1.0  0.92130  0.10670  0.75100  1.0000 -0.0354889412
N   N7        1.0  0.89330  0.07870  0.25100  1.0000 -0.0354889412
N   N8        1.0  0.07870  0.89330  0.24900  1.0000 -0.0336878696
N   N9        1.0  0.19120  0.93120  0.83980  1.0000 -0.2314967294
N   N10       1.0  0.93120  0.19120  0.66020  1.0000 -0.2314967294
N   N11       1.0  0.80880  0.06880  0.16020  1.0000 -0.2314967294
N   N12       1.0  0.06880  0.80880  0.33980  1.0000 -0.2314967294
O   O1        1.0  0.71580  0.88040  0.76390  1.0000 -0.5452403393
O   O2        1.0  0.88040  0.71580  0.73610  1.0000 -0.5452403393
O   O3        1.0  0.28420  0.11960  0.23610  1.0000 -0.5452403393
O   O4        1.0  0.11960  0.28420  0.26390  1.0000 -0.5452403393
O   O5        1.0  0.68010  0.95390  0.93660  1.0000 -0.5778131601
O   O6        1.0  0.95390  0.68010  0.56340  1.0000 -0.5778131601
O   O7        1.0  0.31990  0.04610  0.06340  1.0000 -0.5778131601
O   O8        1.0  0.04610  0.31990  0.43660  1.0000 -0.5778131601
O   O9        1.0  0.94550  0.90170  0.93550  1.0000 -0.8293577549
O   O10       1.0  0.90170  0.94550  0.56450  1.0000 -0.8293577549
O   O11       1.0  0.05450  0.09830  0.06450  1.0000 -0.8293577549
O   O12       1.0  0.09830  0.05450  0.43550  1.0000 -0.8293577549
