# DDEC6 charges by PACMAN v1.1 (https://github.com/mtap-research/PACMAN-charge/)
data_2017[Co][pcu]2[ASR]6
_chemical_formula_sum              "Co8 H88 C144 N56 O48"
_cell_length_a       10.0417
_cell_length_b       19.674
_cell_length_c       20.304
_cell_angle_alpha    90
_cell_angle_beta     90
_cell_angle_gamma    90

_symmetry_space_group_name_H-M    "P 1"
_symmetry_Int_Tables_number       1

loop_
  _symmetry_equiv_pos_as_xyz
  'x, y, z'

loop_
  _atom_site_type_symbol
  _atom_site_label
  _atom_site_symmetry_multiplicity
  _atom_site_fract_x
  _atom_site_fract_y
  _atom_site_fract_z
  _atom_site_occupancy
  _atom_site_charge
Co  Co1       1.0  0.92377  0.95711  0.05843  1.0000 0.8468627531
Co  Co2       1.0  0.91745  0.55544  0.56178  1.0000 0.8468627531
Co  Co3       1.0  0.07623  0.45711  0.44157  1.0000 0.8468627531
Co  Co4       1.0  0.08255  0.05544  0.93822  1.0000 0.8468627531
Co  Co5       1.0  0.57623  0.04289  0.55843  1.0000 0.8468627531
Co  Co6       1.0  0.58255  0.44456  0.06178  1.0000 0.8468627531
Co  Co7       1.0  0.42377  0.54289  0.94157  1.0000 0.8468627531
Co  Co8       1.0  0.41745  0.94456  0.43822  1.0000 0.8468627531
H   H1        1.0  0.09510  0.86960  0.95260  1.0000 0.1303868049
H   H2        1.0  0.77390  0.81370  0.04940  1.0000 0.1197316908
H   H3        1.0  0.82660  0.72020  0.97420  1.0000 0.1382709306
H   H4        1.0  0.89200  0.68630  0.86630  1.0000 0.1608953319
H   H5        1.0  0.30140  0.76260  0.80520  1.0000 0.091543806
H   H6        1.0  0.81850  0.59180  0.80820  1.0000 0.1303868049
H   H7        1.0  0.76070  0.53520  0.70440  1.0000 0.1197316908
H   H8        1.0  0.08250  0.64500  0.66850  1.0000 0.1125832025
H   H9        1.0  0.06530  0.85370  0.15990  1.0000 0.1197316908
H   H10       1.0  0.78370  0.98680  0.20330  1.0000 0.1197316908
H   H11       1.0  0.82580  0.92120  0.30450  1.0000 0.1303868049
H   H12       1.0  0.88780  0.82310  0.36480  1.0000 0.1608953319
H   H13       1.0  0.26010  0.71820  0.28530  1.0000 0.091543806
H   H14       1.0  0.07200  0.63170  0.44650  1.0000 0.1303868049
H   H15       1.0  0.79610  0.71100  0.56200  1.0000 0.1197316908
H   H16       1.0  0.84100  0.79480  0.47550  1.0000 0.1382709306
H   H17       1.0  0.46110  0.56120  0.56980  1.0000 0.1197316908
H   H18       1.0  0.61000  0.37460  0.60780  1.0000 0.1303868049
H   H19       1.0  0.21160  0.40420  0.60120  1.0000 0.1303868049
H   H20       1.0  0.45500  0.94650  0.06830  1.0000 0.1197316908
H   H21       1.0  0.22310  0.11040  0.10130  1.0000 0.1303868049
H   H22       1.0  0.62610  0.12720  0.11270  1.0000 0.1303868049
H   H23       1.0  0.90490  0.36960  0.54740  1.0000 0.1303868049
H   H24       1.0  0.22610  0.31370  0.45060  1.0000 0.1197316908
H   H25       1.0  0.17340  0.22020  0.52580  1.0000 0.1382709306
H   H26       1.0  0.10800  0.18630  0.63370  1.0000 0.1608953319
H   H27       1.0  0.69860  0.26260  0.69480  1.0000 0.091543806
H   H28       1.0  0.18150  0.09180  0.69180  1.0000 0.1303868049
H   H29       1.0  0.23930  0.03520  0.79560  1.0000 0.1197316908
H   H30       1.0  0.91750  0.14500  0.83150  1.0000 0.1125832025
H   H31       1.0  0.93470  0.35370  0.34010  1.0000 0.1197316908
H   H32       1.0  0.21630  0.48680  0.29670  1.0000 0.1197316908
H   H33       1.0  0.17420  0.42120  0.19550  1.0000 0.1303868049
H   H34       1.0  0.11220  0.32310  0.13520  1.0000 0.1608953319
H   H35       1.0  0.73990  0.21820  0.21470  1.0000 0.091543806
H   H36       1.0  0.92800  0.13170  0.05350  1.0000 0.1303868049
H   H37       1.0  0.20390  0.21100  0.93800  1.0000 0.1197316908
H   H38       1.0  0.15900  0.29480  0.02450  1.0000 0.1382709306
H   H39       1.0  0.53890  0.06120  0.93020  1.0000 0.1197316908
H   H40       1.0  0.39000  0.87460  0.89220  1.0000 0.1303868049
H   H41       1.0  0.78840  0.90420  0.89880  1.0000 0.1303868049
H   H42       1.0  0.54500  0.44650  0.43170  1.0000 0.1197316908
H   H43       1.0  0.77690  0.61040  0.39870  1.0000 0.1303868049
H   H44       1.0  0.37390  0.62720  0.38730  1.0000 0.1303868049
H   H45       1.0  0.40490  0.13040  0.45260  1.0000 0.1303868049
H   H46       1.0  0.72610  0.18630  0.54940  1.0000 0.1197316908
H   H47       1.0  0.67340  0.27980  0.47420  1.0000 0.1382709306
H   H48       1.0  0.60800  0.31370  0.36630  1.0000 0.1608953319
H   H49       1.0  0.19860  0.23740  0.30520  1.0000 0.091543806
H   H50       1.0  0.68150  0.40820  0.30820  1.0000 0.1303868049
H   H51       1.0  0.73930  0.46480  0.20440  1.0000 0.1197316908
H   H52       1.0  0.41750  0.35500  0.16850  1.0000 0.1125832025
H   H53       1.0  0.43470  0.14630  0.65990  1.0000 0.1197316908
H   H54       1.0  0.71630  0.01320  0.70330  1.0000 0.1197316908
H   H55       1.0  0.67420  0.07880  0.80450  1.0000 0.1303868049
H   H56       1.0  0.61220  0.17690  0.86480  1.0000 0.1608953319
H   H57       1.0  0.23990  0.28180  0.78530  1.0000 0.091543806
H   H58       1.0  0.42800  0.36830  0.94650  1.0000 0.1303868049
H   H59       1.0  0.70390  0.28900  0.06200  1.0000 0.1197316908
H   H60       1.0  0.65900  0.20520  0.97550  1.0000 0.1382709306
H   H61       1.0  0.03890  0.43880  0.06980  1.0000 0.1197316908
H   H62       1.0  0.89000  0.62540  0.10780  1.0000 0.1303868049
H   H63       1.0  0.28840  0.59580  0.10120  1.0000 0.1303868049
H   H64       1.0  0.04500  0.05350  0.56830  1.0000 0.1197316908
H   H65       1.0  0.27690  0.88960  0.60130  1.0000 0.1303868049
H   H66       1.0  0.87390  0.87280  0.61270  1.0000 0.1303868049
H   H67       1.0  0.59510  0.63040  0.04740  1.0000 0.1303868049
H   H68       1.0  0.27390  0.68630  0.95060  1.0000 0.1197316908
H   H69       1.0  0.32660  0.77980  0.02580  1.0000 0.1382709306
H   H70       1.0  0.39200  0.81370  0.13370  1.0000 0.1608953319
H   H71       1.0  0.80140  0.73740  0.19480  1.0000 0.091543806
H   H72       1.0  0.31850  0.90820  0.19180  1.0000 0.1303868049
H   H73       1.0  0.26070  0.96480  0.29560  1.0000 0.1197316908
H   H74       1.0  0.58250  0.85500  0.33150  1.0000 0.1125832025
H   H75       1.0  0.56530  0.64630  0.84010  1.0000 0.1197316908
H   H76       1.0  0.28370  0.51320  0.79670  1.0000 0.1197316908
H   H77       1.0  0.32580  0.57880  0.69550  1.0000 0.1303868049
H   H78       1.0  0.38780  0.67690  0.63520  1.0000 0.1608953319
H   H79       1.0  0.76010  0.78180  0.71470  1.0000 0.091543806
H   H80       1.0  0.57200  0.86830  0.55350  1.0000 0.1303868049
H   H81       1.0  0.29610  0.78900  0.43800  1.0000 0.1197316908
H   H82       1.0  0.34100  0.70520  0.52450  1.0000 0.1382709306
H   H83       1.0  0.96110  0.93880  0.43020  1.0000 0.1197316908
H   H84       1.0  0.11000  0.12540  0.39220  1.0000 0.1303868049
H   H85       1.0  0.71160  0.09580  0.39880  1.0000 0.1303868049
H   H86       1.0  0.95500  0.55350  0.93170  1.0000 0.1197316908
H   H87       1.0  0.72310  0.38960  0.89870  1.0000 0.1303868049
H   H88       1.0  0.12610  0.37280  0.88730  1.0000 0.1303868049
C   C1        1.0  0.02060  0.84410  0.96740  1.0000 0.1474806994
C   C2        1.0  0.84670  0.81300  0.01950  1.0000 -0.0299989528
C   C3        1.0  0.87400  0.76170  0.97880  1.0000 -0.0995458945
C   C4        1.0  0.04440  0.75070  0.88870  1.0000 0.3414476563
C   C5        1.0  0.97690  0.70270  0.85310  1.0000 -0.320650254
C   C6        1.0  0.03990  0.67980  0.79710  1.0000 0.352970836
C   C7        1.0  0.21600  0.74670  0.81810  1.0000 0.2376720824
C   C8        1.0  0.86450  0.59560  0.76750  1.0000 -0.0995458945
C   C9        1.0  0.83390  0.56510  0.71070  1.0000 -0.0233604816
C   C10       1.0  0.00890  0.62440  0.69010  1.0000 0.1382709306
C   C11       1.0  0.00060  0.87940  0.18320  1.0000 0.1382709306
C   C12       1.0  0.84720  0.95140  0.20780  1.0000 -0.0233604816
C   C13       1.0  0.86930  0.91580  0.26330  1.0000 -0.0995458945
C   C14       1.0  0.02510  0.81880  0.28860  1.0000 0.3552637819
C   C15       1.0  0.96550  0.80150  0.34820  1.0000 -0.320650254
C   C16       1.0  0.03080  0.74960  0.38090  1.0000 0.3414476563
C   C17       1.0  0.18340  0.74070  0.30200  1.0000 0.2376720824
C   C18       1.0  0.00810  0.66180  0.46490  1.0000 0.1474806994
C   C19       1.0  0.85800  0.70550  0.52710  1.0000 -0.0299989528
C   C20       1.0  0.88230  0.75170  0.48040  1.0000 -0.0995458945
C   C21       1.0  0.20070  0.53610  0.57170  1.0000 0.5655865196
C   C22       1.0  0.31690  0.49010  0.58330  1.0000 -0.0108033882
C   C23       1.0  0.44700  0.51440  0.57900  1.0000 -0.1158584084
C   C24       1.0  0.55680  0.47240  0.58770  1.0000 0.006793501
C   C25       1.0  0.53680  0.40460  0.60210  1.0000 -0.1505533483
C   C26       1.0  0.40660  0.38150  0.60810  1.0000 0.0704154886
C   C27       1.0  0.29900  0.42240  0.59800  1.0000 -0.1345082175
C   C28       1.0  0.69420  0.50160  0.57990  1.0000 0.5282909024
C   C29       1.0  0.69250  0.00050  0.07730  1.0000 0.5282909024
C   C30       1.0  0.55940  0.03210  0.08760  1.0000 0.0007895866
C   C31       1.0  0.44620  0.99350  0.07800  1.0000 -0.1079617933
C   C32       1.0  0.32140  0.02140  0.08230  1.0000 -0.0011092059
C   C33       1.0  0.30840  0.08960  0.09890  1.0000 -0.1425331038
C   C34       1.0  0.42300  0.12660  0.11180  1.0000 0.0704154886
C   C35       1.0  0.54920  0.10010  0.10530  1.0000 -0.1505533483
C   C36       1.0  0.20220  0.97740  0.06970  1.0000 0.5623798493
C   C37       1.0  0.97940  0.34410  0.53260  1.0000 0.1474806994
C   C38       1.0  0.15330  0.31300  0.48050  1.0000 -0.0233604816
C   C39       1.0  0.12600  0.26170  0.52120  1.0000 -0.0995458945
C   C40       1.0  0.95560  0.25070  0.61130  1.0000 0.3414476563
C   C41       1.0  0.02310  0.20270  0.64690  1.0000 -0.320650254
C   C42       1.0  0.96010  0.17980  0.70290  1.0000 0.352970836
C   C43       1.0  0.78400  0.24670  0.68190  1.0000 0.2376720824
C   C44       1.0  0.13550  0.09560  0.73250  1.0000 -0.0995458945
C   C45       1.0  0.16610  0.06510  0.78930  1.0000 -0.0233604816
C   C46       1.0  0.99110  0.12440  0.80990  1.0000 0.1382709306
C   C47       1.0  0.99940  0.37940  0.31680  1.0000 0.1382709306
C   C48       1.0  0.15280  0.45140  0.29220  1.0000 -0.0233604816
C   C49       1.0  0.13070  0.41580  0.23670  1.0000 -0.0995458945
C   C50       1.0  0.97490  0.31880  0.21140  1.0000 0.3552637819
C   C51       1.0  0.03450  0.30150  0.15180  1.0000 -0.320650254
C   C52       1.0  0.96920  0.24960  0.11910  1.0000 0.3414476563
C   C53       1.0  0.81660  0.24070  0.19800  1.0000 0.2376720824
C   C54       1.0  0.99190  0.16180  0.03510  1.0000 0.1474806994
C   C55       1.0  0.14200  0.20550  0.97290  1.0000 -0.0299989528
C   C56       1.0  0.11770  0.25170  0.01960  1.0000 -0.0995458945
C   C57       1.0  0.79930  0.03610  0.92830  1.0000 0.5655865196
C   C58       1.0  0.68310  0.99010  0.91670  1.0000 -0.0108033882
C   C59       1.0  0.55300  0.01440  0.92100  1.0000 -0.1158584084
C   C60       1.0  0.44320  0.97240  0.91230  1.0000 0.006793501
C   C61       1.0  0.46320  0.90460  0.89790  1.0000 -0.1505533483
C   C62       1.0  0.59340  0.88150  0.89190  1.0000 0.0704154886
C   C63       1.0  0.70100  0.92240  0.90200  1.0000 -0.1345082175
C   C64       1.0  0.30580  0.00160  0.92010  1.0000 0.5282909024
C   C65       1.0  0.30750  0.50050  0.42270  1.0000 0.5282909024
C   C66       1.0  0.44060  0.53210  0.41240  1.0000 0.0007895866
C   C67       1.0  0.55380  0.49350  0.42200  1.0000 -0.1079617933
C   C68       1.0  0.67860  0.52140  0.41770  1.0000 -0.0011092059
C   C69       1.0  0.69160  0.58960  0.40110  1.0000 -0.1425331038
C   C70       1.0  0.57700  0.62660  0.38820  1.0000 0.0704154886
C   C71       1.0  0.45080  0.60010  0.39470  1.0000 -0.1505533483
C   C72       1.0  0.79780  0.47740  0.43030  1.0000 0.5623798493
C   C73       1.0  0.47940  0.15590  0.46740  1.0000 0.1474806994
C   C74       1.0  0.65330  0.18700  0.51950  1.0000 -0.0233604816
C   C75       1.0  0.62600  0.23830  0.47880  1.0000 -0.0995458945
C   C76       1.0  0.45560  0.24930  0.38870  1.0000 0.3414476563
C   C77       1.0  0.52310  0.29730  0.35310  1.0000 -0.320650254
C   C78       1.0  0.46010  0.32020  0.29710  1.0000 0.352970836
C   C79       1.0  0.28400  0.25330  0.31810  1.0000 0.2376720824
C   C80       1.0  0.63550  0.40440  0.26750  1.0000 -0.0995458945
C   C81       1.0  0.66610  0.43490  0.21070  1.0000 -0.0233604816
C   C82       1.0  0.49110  0.37560  0.19010  1.0000 0.1382709306
C   C83       1.0  0.49940  0.12060  0.68320  1.0000 0.1382709306
C   C84       1.0  0.65280  0.04860  0.70780  1.0000 -0.0233604816
C   C85       1.0  0.63070  0.08420  0.76330  1.0000 -0.0995458945
C   C86       1.0  0.47490  0.18120  0.78860  1.0000 0.3552637819
C   C87       1.0  0.53450  0.19850  0.84820  1.0000 -0.320650254
C   C88       1.0  0.46920  0.25040  0.88090  1.0000 0.3414476563
C   C89       1.0  0.31660  0.25930  0.80200  1.0000 0.2376720824
C   C90       1.0  0.49190  0.33820  0.96490  1.0000 0.1474806994
C   C91       1.0  0.64200  0.29450  0.02710  1.0000 -0.0299989528
C   C92       1.0  0.61770  0.24830  0.98040  1.0000 -0.0995458945
C   C93       1.0  0.29930  0.46390  0.07170  1.0000 0.5655865196
C   C94       1.0  0.18310  0.50990  0.08330  1.0000 -0.0108033882
C   C95       1.0  0.05300  0.48560  0.07900  1.0000 -0.1158584084
C   C96       1.0  0.94320  0.52760  0.08770  1.0000 0.006793501
C   C97       1.0  0.96320  0.59540  0.10210  1.0000 -0.1505533483
C   C98       1.0  0.09340  0.61850  0.10810  1.0000 0.0704154886
C   C99       1.0  0.20100  0.57760  0.09800  1.0000 -0.1345082175
C   C100      1.0  0.80580  0.49840  0.07990  1.0000 0.5282909024
C   C101      1.0  0.80750  0.99950  0.57730  1.0000 0.5282909024
C   C102      1.0  0.94060  0.96790  0.58760  1.0000 0.0007895866
C   C103      1.0  0.05380  0.00650  0.57800  1.0000 -0.1079617933
C   C104      1.0  0.17860  0.97860  0.58230  1.0000 -0.0011092059
C   C105      1.0  0.19160  0.91040  0.59890  1.0000 -0.1425331038
C   C106      1.0  0.07700  0.87340  0.61180  1.0000 0.0704154886
C   C107      1.0  0.95080  0.89990  0.60530  1.0000 -0.1505533483
C   C108      1.0  0.29780  0.02260  0.56970  1.0000 0.5623798493
C   C109      1.0  0.52060  0.65590  0.03260  1.0000 0.1474806994
C   C110      1.0  0.34670  0.68700  0.98050  1.0000 -0.0233604816
C   C111      1.0  0.37400  0.73830  0.02120  1.0000 -0.0995458945
C   C112      1.0  0.54440  0.74930  0.11130  1.0000 0.3414476563
C   C113      1.0  0.47690  0.79730  0.14690  1.0000 -0.320650254
C   C114      1.0  0.53990  0.82020  0.20290  1.0000 0.352970836
C   C115      1.0  0.71600  0.75330  0.18190  1.0000 0.2376720824
C   C116      1.0  0.36450  0.90440  0.23250  1.0000 -0.0995458945
C   C117      1.0  0.33390  0.93490  0.28930  1.0000 -0.0233604816
C   C118      1.0  0.50890  0.87560  0.30990  1.0000 0.1382709306
C   C119      1.0  0.50060  0.62060  0.81680  1.0000 0.1382709306
C   C120      1.0  0.34720  0.54860  0.79220  1.0000 -0.0233604816
C   C121      1.0  0.36930  0.58420  0.73670  1.0000 -0.0995458945
C   C122      1.0  0.52510  0.68120  0.71140  1.0000 0.3552637819
C   C123      1.0  0.46550  0.69850  0.65180  1.0000 -0.320650254
C   C124      1.0  0.53080  0.75040  0.61910  1.0000 0.3414476563
C   C125      1.0  0.68340  0.75930  0.69800  1.0000 0.2376720824
C   C126      1.0  0.50810  0.83820  0.53510  1.0000 0.1474806994
C   C127      1.0  0.35800  0.79450  0.47290  1.0000 -0.0299989528
C   C128      1.0  0.38230  0.74830  0.51960  1.0000 -0.0995458945
C   C129      1.0  0.70070  0.96390  0.42830  1.0000 0.5655865196
C   C130      1.0  0.81690  0.00990  0.41670  1.0000 -0.0108033882
C   C131      1.0  0.94700  0.98560  0.42100  1.0000 -0.1158584084
C   C132      1.0  0.05680  0.02760  0.41230  1.0000 0.006793501
C   C133      1.0  0.03680  0.09540  0.39790  1.0000 -0.1505533483
C   C134      1.0  0.90660  0.11850  0.39190  1.0000 0.0704154886
C   C135      1.0  0.79900  0.07760  0.40200  1.0000 -0.1345082175
C   C136      1.0  0.19420  0.99840  0.42010  1.0000 0.5282909024
C   C137      1.0  0.19250  0.49950  0.92270  1.0000 0.5282909024
C   C138      1.0  0.05940  0.46790  0.91240  1.0000 0.0007895866
C   C139      1.0  0.94620  0.50650  0.92200  1.0000 -0.1079617933
C   C140      1.0  0.82140  0.47860  0.91770  1.0000 -0.0011092059
C   C141      1.0  0.80840  0.41040  0.90110  1.0000 -0.1425331038
C   C142      1.0  0.92300  0.37340  0.88820  1.0000 0.0704154886
C   C143      1.0  0.04920  0.39990  0.89470  1.0000 -0.1505533483
C   C144      1.0  0.70220  0.52260  0.93030  1.0000 0.5623798493
N   N1        1.0  0.93720  0.86460  0.01270  1.0000 -0.2912703164
N   N2        1.0  0.98690  0.78200  0.94460  1.0000 -0.0233604816
N   N3        1.0  0.16600  0.77340  0.87310  1.0000 -0.3629846487
N   N4        1.0  0.16050  0.70020  0.77890  1.0000 -0.36711496
N   N5        1.0  0.97710  0.63360  0.75460  1.0000 -0.0233604816
N   N6        1.0  0.92450  0.58350  0.66210  1.0000 -0.2912703164
N   N7        1.0  0.93120  0.92860  0.15770  1.0000 -0.2912703164
N   N8        1.0  0.96880  0.86940  0.24780  1.0000 -0.0299989528
N   N9        1.0  0.13320  0.78960  0.26430  1.0000 -0.3629846487
N   N10       1.0  0.13980  0.71930  0.36000  1.0000 -0.36711496
N   N11       1.0  0.98020  0.72380  0.44050  1.0000 -0.0233604816
N   N12       1.0  0.93640  0.64820  0.51700  1.0000 -0.2912703164
N   N13       1.0  0.38660  0.30960  0.62640  1.0000 0.5120771352
N   N14       1.0  0.40980  0.19730  0.13470  1.0000 0.5120771352
N   N15       1.0  0.06280  0.36460  0.48730  1.0000 -0.2912703164
N   N16       1.0  0.01310  0.28200  0.55540  1.0000 -0.0233604816
N   N17       1.0  0.83400  0.27340  0.62690  1.0000 -0.3629846487
N   N18       1.0  0.83950  0.20020  0.72110  1.0000 -0.36711496
N   N19       1.0  0.02290  0.13360  0.74540  1.0000 -0.0233604816
N   N20       1.0  0.07550  0.08350  0.83790  1.0000 -0.2912703164
N   N21       1.0  0.06880  0.42860  0.34230  1.0000 -0.2912703164
N   N22       1.0  0.03120  0.36940  0.25220  1.0000 -0.0299989528
N   N23       1.0  0.86680  0.28960  0.23570  1.0000 -0.3629846487
N   N24       1.0  0.86020  0.21930  0.14000  1.0000 -0.36711496
N   N25       1.0  0.01980  0.22380  0.05950  1.0000 -0.0233604816
N   N26       1.0  0.06360  0.14820  0.98300  1.0000 -0.2912703164
N   N27       1.0  0.61340  0.80960  0.87360  1.0000 0.5120771352
N   N28       1.0  0.59020  0.69730  0.36530  1.0000 0.5120771352
N   N29       1.0  0.56280  0.13540  0.51270  1.0000 -0.2912703164
N   N30       1.0  0.51310  0.21800  0.44460  1.0000 -0.0233604816
N   N31       1.0  0.33400  0.22660  0.37310  1.0000 -0.3629846487
N   N32       1.0  0.33950  0.29980  0.27890  1.0000 -0.36711496
N   N33       1.0  0.52290  0.36640  0.25460  1.0000 -0.0233604816
N   N34       1.0  0.57550  0.41650  0.16210  1.0000 -0.2912703164
N   N35       1.0  0.56880  0.07140  0.65770  1.0000 -0.2912703164
N   N36       1.0  0.53120  0.13060  0.74780  1.0000 -0.0299989528
N   N37       1.0  0.36680  0.21040  0.76430  1.0000 -0.3629846487
N   N38       1.0  0.36020  0.28070  0.86000  1.0000 -0.36711496
N   N39       1.0  0.51980  0.27620  0.94050  1.0000 -0.0233604816
N   N40       1.0  0.56360  0.35180  0.01700  1.0000 -0.2912703164
N   N41       1.0  0.11340  0.69040  0.12640  1.0000 0.5120771352
N   N42       1.0  0.09020  0.80270  0.63470  1.0000 0.5120771352
N   N43       1.0  0.43720  0.63540  0.98730  1.0000 -0.2912703164
N   N44       1.0  0.48690  0.71800  0.05540  1.0000 -0.0233604816
N   N45       1.0  0.66600  0.72660  0.12690  1.0000 -0.3629846487
N   N46       1.0  0.66050  0.79980  0.22110  1.0000 -0.36711496
N   N47       1.0  0.47710  0.86640  0.24540  1.0000 -0.0233604816
N   N48       1.0  0.42450  0.91650  0.33790  1.0000 -0.2912703164
N   N49       1.0  0.43120  0.57140  0.84230  1.0000 -0.2912703164
N   N50       1.0  0.46880  0.63060  0.75220  1.0000 -0.0299989528
N   N51       1.0  0.63320  0.71040  0.73570  1.0000 -0.3629846487
N   N52       1.0  0.63980  0.78070  0.64000  1.0000 -0.36711496
N   N53       1.0  0.48020  0.77620  0.55950  1.0000 -0.0233604816
N   N54       1.0  0.43640  0.85180  0.48300  1.0000 -0.2912703164
N   N55       1.0  0.88660  0.19040  0.37360  1.0000 0.5120771352
N   N56       1.0  0.90980  0.30270  0.86530  1.0000 0.5120771352
O   O1        1.0  0.09180  0.50762  0.55330  1.0000 -0.5726533409
O   O2        1.0  0.21550  0.59750  0.58260  1.0000 -0.5459875937
O   O3        1.0  0.70530  0.56320  0.56600  1.0000 -0.5225540277
O   O4        1.0  0.79320  0.46390  0.58780  1.0000 -0.5225540277
O   O5        1.0  0.47790  0.27010  0.62130  1.0000 -0.3120042942
O   O6        1.0  0.27410  0.29390  0.64480  1.0000 -0.3270146351
O   O7        1.0  0.70310  0.93820  0.06730  1.0000 -0.5288595285
O   O8        1.0  0.79630  0.03850  0.07780  1.0000 -0.5288595285
O   O9        1.0  0.21070  0.91620  0.08060  1.0000 -0.5394245561
O   O10       1.0  0.09690  0.00770  0.04750  1.0000 -0.5726533409
O   O11       1.0  0.30360  0.22530  0.13080  1.0000 -0.296842533
O   O12       1.0  0.50800  0.22350  0.15910  1.0000 -0.3120042942
O   O13       1.0  0.90820  0.00762  0.94670  1.0000 -0.5726533409
O   O14       1.0  0.78450  0.09750  0.91740  1.0000 -0.5459875937
O   O15       1.0  0.29470  0.06320  0.93400  1.0000 -0.5225540277
O   O16       1.0  0.20680  0.96390  0.91220  1.0000 -0.5225540277
O   O17       1.0  0.52210  0.77010  0.87870  1.0000 -0.3120042942
O   O18       1.0  0.72590  0.79390  0.85520  1.0000 -0.3270146351
O   O19       1.0  0.29690  0.43820  0.43270  1.0000 -0.5288595285
O   O20       1.0  0.20370  0.53850  0.42220  1.0000 -0.5288595285
O   O21       1.0  0.78930  0.41620  0.41940  1.0000 -0.5394245561
O   O22       1.0  0.90310  0.50770  0.45250  1.0000 -0.5726533409
O   O23       1.0  0.69640  0.72530  0.36920  1.0000 -0.296842533
O   O24       1.0  0.49200  0.72350  0.34090  1.0000 -0.3120042942
O   O25       1.0  0.40820  0.49238  0.05330  1.0000 -0.5726533409
O   O26       1.0  0.28450  0.40250  0.08260  1.0000 -0.5459875937
O   O27       1.0  0.79470  0.43680  0.06600  1.0000 -0.5225540277
O   O28       1.0  0.70680  0.53610  0.08780  1.0000 -0.5225540277
O   O29       1.0  0.02210  0.72990  0.12130  1.0000 -0.3120042942
O   O30       1.0  0.22590  0.70610  0.14480  1.0000 -0.3270146351
O   O31       1.0  0.79690  0.06180  0.56730  1.0000 -0.5288595285
O   O32       1.0  0.70370  0.96150  0.57780  1.0000 -0.5288595285
O   O33       1.0  0.28930  0.08380  0.58060  1.0000 -0.5394245561
O   O34       1.0  0.40310  0.99230  0.54750  1.0000 -0.5726533409
O   O35       1.0  0.19640  0.77470  0.63080  1.0000 -0.296842533
O   O36       1.0  0.99200  0.77650  0.65910  1.0000 -0.320650254
O   O37       1.0  0.59180  0.99238  0.44670  1.0000 -0.5726533409
O   O38       1.0  0.71550  0.90250  0.41740  1.0000 -0.5459875937
O   O39       1.0  0.20530  0.93680  0.43400  1.0000 -0.5225540277
O   O40       1.0  0.29320  0.03610  0.41220  1.0000 -0.5225540277
O   O41       1.0  0.97790  0.22990  0.37870  1.0000 -0.3120042942
O   O42       1.0  0.77410  0.20610  0.35520  1.0000 -0.3270146351
O   O43       1.0  0.20310  0.56180  0.93270  1.0000 -0.5288595285
O   O44       1.0  0.29630  0.46150  0.92220  1.0000 -0.5288595285
O   O45       1.0  0.71070  0.58380  0.91940  1.0000 -0.5394245561
O   O46       1.0  0.59690  0.49230  0.95250  1.0000 -0.5726533409
O   O47       1.0  0.80360  0.27470  0.86920  1.0000 -0.296842533
O   O48       1.0  0.00800  0.27650  0.84090  1.0000 -0.3120042942
