# DDEC6 charges by PACMAN v1.1 (https://github.com/mtap-research/PACMAN-charge/)
data_2017[Yb][nan]3[ASR]1
_chemical_formula_sum              "Yb6 H90 C162 O36"
_cell_length_a       18.0081
_cell_length_b       18.0081
_cell_length_c       21.8141
_cell_angle_alpha    90
_cell_angle_beta     90
_cell_angle_gamma    120

_symmetry_space_group_name_H-M    "P 1"
_symmetry_Int_Tables_number       1

loop_
  _symmetry_equiv_pos_as_xyz
  'x, y, z'

loop_
  _atom_site_type_symbol
  _atom_site_label
  _atom_site_symmetry_multiplicity
  _atom_site_fract_x
  _atom_site_fract_y
  _atom_site_fract_z
  _atom_site_occupancy
  _atom_site_charge
Yb  Yb1       1.0  0.08782  0.17564  0.25000  1.0000 2.0520011917
Yb  Yb2       1.0  0.08782  0.91218  0.91667  1.0000 2.0520011917
Yb  Yb3       1.0  0.82436  0.91218  0.58333  1.0000 2.0520011917
Yb  Yb4       1.0  0.91218  0.82436  0.75000  1.0000 2.0520011917
Yb  Yb5       1.0  0.91218  0.08782  0.41667  1.0000 2.0520011917
Yb  Yb6       1.0  0.17564  0.08782  0.08333  1.0000 2.0520011917
H   H1        1.0  0.90709  0.01021  0.16230  1.0000 0.127131694
H   H2        1.0  0.83340  0.99676  0.07182  1.0000 0.1120228061
H   H3        1.0  0.59734  0.00595  0.09103  1.0000 0.0982961
H   H4        1.0  0.37330  0.02762  0.08750  1.0000 0.136767217
H   H5        1.0  0.73227  0.03805  0.25644  1.0000 0.127131694
H   H6        1.0  0.66365  0.03453  0.16638  1.0000 0.1120228061
H   H7        1.0  0.49606  0.01942  0.09109  1.0000 0.1120228061
H   H8        1.0  0.10312  0.09291  0.82896  1.0000 0.127131694
H   H9        1.0  0.16336  0.16660  0.73848  1.0000 0.1120228061
H   H10       1.0  0.40861  0.40266  0.75769  1.0000 0.0982961
H   H11       1.0  0.65432  0.62670  0.75416  1.0000 0.136767217
H   H12       1.0  0.30578  0.26773  0.92310  1.0000 0.127131694
H   H13       1.0  0.37088  0.33635  0.83304  1.0000 0.1120228061
H   H14       1.0  0.52336  0.50394  0.75775  1.0000 0.1120228061
H   H15       1.0  0.98979  0.89688  0.49563  1.0000 0.127131694
H   H16       1.0  0.00324  0.83664  0.40515  1.0000 0.1120228061
H   H17       1.0  0.99405  0.59139  0.42436  1.0000 0.0982961
H   H18       1.0  0.97238  0.34568  0.42083  1.0000 0.136767217
H   H19       1.0  0.96195  0.69422  0.58977  1.0000 0.127131694
H   H20       1.0  0.96547  0.62912  0.49971  1.0000 0.1120228061
H   H21       1.0  0.98058  0.47664  0.42442  1.0000 0.1120228061
H   H22       1.0  0.09291  0.98979  0.66230  1.0000 0.127131694
H   H23       1.0  0.16660  0.00324  0.57182  1.0000 0.1120228061
H   H24       1.0  0.40266  0.99405  0.59103  1.0000 0.0982961
H   H25       1.0  0.62670  0.97238  0.58750  1.0000 0.136767217
H   H26       1.0  0.26773  0.96195  0.75644  1.0000 0.127131694
H   H27       1.0  0.33635  0.96547  0.66638  1.0000 0.1120228061
H   H28       1.0  0.50394  0.98058  0.59109  1.0000 0.1120228061
H   H29       1.0  0.89688  0.90709  0.32896  1.0000 0.127131694
H   H30       1.0  0.83664  0.83340  0.23848  1.0000 0.1120228061
H   H31       1.0  0.59139  0.59734  0.25769  1.0000 0.0982961
H   H32       1.0  0.34568  0.37330  0.25416  1.0000 0.136767217
H   H33       1.0  0.69422  0.73227  0.42310  1.0000 0.127131694
H   H34       1.0  0.62912  0.66365  0.33304  1.0000 0.1120228061
H   H35       1.0  0.47664  0.49606  0.25775  1.0000 0.1120228061
H   H36       1.0  0.01021  0.10312  0.99563  1.0000 0.127131694
H   H37       1.0  0.99676  0.16336  0.90515  1.0000 0.1120228061
H   H38       1.0  0.00595  0.40861  0.92436  1.0000 0.0982961
H   H39       1.0  0.02762  0.65432  0.92083  1.0000 0.136767217
H   H40       1.0  0.03805  0.30578  0.08977  1.0000 0.127131694
H   H41       1.0  0.03453  0.37088  0.99971  1.0000 0.1120228061
H   H42       1.0  0.01942  0.52336  0.92442  1.0000 0.1120228061
H   H43       1.0  0.89688  0.98979  0.83770  1.0000 0.127131694
H   H44       1.0  0.83664  0.00324  0.92818  1.0000 0.1120228061
H   H45       1.0  0.59139  0.99405  0.90897  1.0000 0.0982961
H   H46       1.0  0.34568  0.97238  0.91250  1.0000 0.136767217
H   H47       1.0  0.69422  0.96195  0.74356  1.0000 0.127131694
H   H48       1.0  0.62912  0.96547  0.83362  1.0000 0.1120228061
H   H49       1.0  0.47664  0.98058  0.90891  1.0000 0.1120228061
H   H50       1.0  0.01021  0.90709  0.17104  1.0000 0.127131694
H   H51       1.0  0.99676  0.83340  0.26152  1.0000 0.1120228061
H   H52       1.0  0.00595  0.59734  0.24231  1.0000 0.0982961
H   H53       1.0  0.02762  0.37330  0.24584  1.0000 0.136767217
H   H54       1.0  0.03805  0.73227  0.07690  1.0000 0.127131694
H   H55       1.0  0.03453  0.66365  0.16696  1.0000 0.1120228061
H   H56       1.0  0.01942  0.49606  0.24225  1.0000 0.1120228061
H   H57       1.0  0.09291  0.10312  0.50437  1.0000 0.127131694
H   H58       1.0  0.16660  0.16336  0.59485  1.0000 0.1120228061
H   H59       1.0  0.40266  0.40861  0.57564  1.0000 0.0982961
H   H60       1.0  0.62670  0.65432  0.57917  1.0000 0.136767217
H   H61       1.0  0.26773  0.30578  0.41023  1.0000 0.127131694
H   H62       1.0  0.33635  0.37088  0.50029  1.0000 0.1120228061
H   H63       1.0  0.50394  0.52336  0.57558  1.0000 0.1120228061
H   H64       1.0  0.10312  0.01021  0.33770  1.0000 0.127131694
H   H65       1.0  0.16336  0.99676  0.42818  1.0000 0.1120228061
H   H66       1.0  0.40861  0.00595  0.40897  1.0000 0.0982961
H   H67       1.0  0.65432  0.02762  0.41250  1.0000 0.136767217
H   H68       1.0  0.30578  0.03805  0.24356  1.0000 0.127131694
H   H69       1.0  0.37088  0.03453  0.33362  1.0000 0.1120228061
H   H70       1.0  0.52336  0.01942  0.40891  1.0000 0.1120228061
H   H71       1.0  0.98979  0.09291  0.67104  1.0000 0.127131694
H   H72       1.0  0.00324  0.16660  0.76152  1.0000 0.1120228061
H   H73       1.0  0.99405  0.40266  0.74231  1.0000 0.0982961
H   H74       1.0  0.97238  0.62670  0.74584  1.0000 0.136767217
H   H75       1.0  0.96195  0.26773  0.57690  1.0000 0.127131694
H   H76       1.0  0.96547  0.33635  0.66696  1.0000 0.1120228061
H   H77       1.0  0.98058  0.50394  0.74225  1.0000 0.1120228061
H   H78       1.0  0.90709  0.89688  0.00437  1.0000 0.127131694
H   H79       1.0  0.83340  0.83664  0.09485  1.0000 0.1120228061
H   H80       1.0  0.59734  0.59139  0.07564  1.0000 0.0982961
H   H81       1.0  0.37330  0.34568  0.07917  1.0000 0.136767217
H   H82       1.0  0.73227  0.69422  0.91023  1.0000 0.127131694
H   H83       1.0  0.66365  0.62912  0.00029  1.0000 0.1120228061
H   H84       1.0  0.49606  0.47664  0.07558  1.0000 0.1120228061
H   H85       1.0  0.78132  0.00000  0.00000  1.0000 0.1120228061
H   H86       1.0  0.21868  0.21868  0.66667  1.0000 0.1120228061
H   H87       1.0  0.00000  0.78132  0.33333  1.0000 0.1120228061
H   H88       1.0  0.21868  0.00000  0.50000  1.0000 0.1120228061
H   H89       1.0  0.78132  0.78132  0.16667  1.0000 0.1120228061
H   H90       1.0  0.00000  0.21868  0.83333  1.0000 0.1120228061
C   C1        1.0  0.88190  0.04860  0.27407  1.0000 0.6414712206
C   C2        1.0  0.82880  0.03100  0.21767  1.0000 -0.0420573021
C   C3        1.0  0.85790  0.01480  0.16277  1.0000 -0.0919408304
C   C4        1.0  0.81320  0.00580  0.10867  1.0000 -0.1489095827
C   C5        1.0  0.62110  0.00360  0.05377  1.0000 -0.1736789137
C   C6        1.0  0.69240  0.00350  0.05097  1.0000 0.0643577437
C   C7        1.0  0.73890  0.01000  0.10977  1.0000 0.0929440419
C   C8        1.0  0.39290  0.01510  0.05167  1.0000 -0.0973612631
C   C9        1.0  0.75420  0.03280  0.21917  1.0000 -0.0919408304
C   C10       1.0  0.71120  0.02710  0.16567  1.0000 -0.1558069949
C   C11       1.0  0.46800  0.01270  0.05397  1.0000 -0.1489095827
C   C12       1.0  0.16670  0.11810  0.94073  1.0000 0.6414712206
C   C13       1.0  0.20220  0.17120  0.88433  1.0000 -0.0420573021
C   C14       1.0  0.15690  0.14210  0.82943  1.0000 -0.0919408304
C   C15       1.0  0.19260  0.18680  0.77533  1.0000 -0.1489095827
C   C16       1.0  0.38250  0.37890  0.72043  1.0000 -0.1736789137
C   C17       1.0  0.31110  0.30760  0.71763  1.0000 0.065438848
C   C18       1.0  0.27110  0.26110  0.77643  1.0000 0.0929440419
C   C19       1.0  0.62220  0.60710  0.71833  1.0000 -0.0973612631
C   C20       1.0  0.27860  0.24580  0.88583  1.0000 -0.0919408304
C   C21       1.0  0.31590  0.28880  0.83233  1.0000 -0.1558069949
C   C22       1.0  0.54470  0.53200  0.72063  1.0000 -0.1489095827
C   C23       1.0  0.95140  0.83330  0.60740  1.0000 0.6414712206
C   C24       1.0  0.96900  0.79780  0.55100  1.0000 -0.0420573021
C   C25       1.0  0.98520  0.84310  0.49610  1.0000 -0.0919408304
C   C26       1.0  0.99420  0.80740  0.44200  1.0000 -0.1489095827
C   C27       1.0  0.99640  0.61750  0.38710  1.0000 -0.1736789137
C   C28       1.0  0.99650  0.68890  0.38430  1.0000 0.065438848
C   C29       1.0  0.99000  0.72890  0.44310  1.0000 0.0929440419
C   C30       1.0  0.98490  0.37780  0.38500  1.0000 -0.0973612631
C   C31       1.0  0.96720  0.72140  0.55250  1.0000 -0.0919408304
C   C32       1.0  0.97290  0.68410  0.49900  1.0000 -0.1558069949
C   C33       1.0  0.98730  0.45530  0.38730  1.0000 -0.1489095827
C   C34       1.0  0.11810  0.95140  0.77407  1.0000 0.6414712206
C   C35       1.0  0.17120  0.96900  0.71767  1.0000 -0.0420573021
C   C36       1.0  0.14210  0.98520  0.66277  1.0000 -0.0919408304
C   C37       1.0  0.18680  0.99420  0.60867  1.0000 -0.1489095827
C   C38       1.0  0.37890  0.99640  0.55377  1.0000 -0.1736789137
C   C39       1.0  0.30760  0.99650  0.55097  1.0000 0.065438848
C   C40       1.0  0.26110  0.99000  0.60977  1.0000 0.0929440419
C   C41       1.0  0.60710  0.98490  0.55167  1.0000 -0.0973612631
C   C42       1.0  0.24580  0.96720  0.71917  1.0000 -0.0919408304
C   C43       1.0  0.28880  0.97290  0.66567  1.0000 -0.1558069949
C   C44       1.0  0.53200  0.98730  0.55397  1.0000 -0.1489095827
C   C45       1.0  0.83330  0.88190  0.44073  1.0000 0.6414712206
C   C46       1.0  0.79780  0.82880  0.38433  1.0000 -0.0420573021
C   C47       1.0  0.84310  0.85790  0.32943  1.0000 -0.0919408304
C   C48       1.0  0.80740  0.81320  0.27533  1.0000 -0.1489095827
C   C49       1.0  0.61750  0.62110  0.22043  1.0000 -0.1736789137
C   C50       1.0  0.68890  0.69240  0.21763  1.0000 0.065438848
C   C51       1.0  0.72890  0.73890  0.27643  1.0000 0.0929440419
C   C52       1.0  0.37780  0.39290  0.21833  1.0000 -0.0973612631
C   C53       1.0  0.72140  0.75420  0.38583  1.0000 -0.0919408304
C   C54       1.0  0.68410  0.71120  0.33233  1.0000 -0.1558069949
C   C55       1.0  0.45530  0.46800  0.22063  1.0000 -0.1489095827
C   C56       1.0  0.04860  0.16670  0.10740  1.0000 0.6414712206
C   C57       1.0  0.03100  0.20220  0.05100  1.0000 -0.0420573021
C   C58       1.0  0.01480  0.15690  0.99610  1.0000 -0.0919408304
C   C59       1.0  0.00580  0.19260  0.94200  1.0000 -0.1489095827
C   C60       1.0  0.00360  0.38250  0.88710  1.0000 -0.1736789137
C   C61       1.0  0.00350  0.31110  0.88430  1.0000 0.065438848
C   C62       1.0  0.01000  0.27110  0.94310  1.0000 0.0929440419
C   C63       1.0  0.01510  0.62220  0.88500  1.0000 -0.0973612631
C   C64       1.0  0.03280  0.27860  0.05250  1.0000 -0.0919408304
C   C65       1.0  0.02710  0.31590  0.99900  1.0000 -0.1558069949
C   C66       1.0  0.01270  0.54470  0.88730  1.0000 -0.1489095827
C   C67       1.0  0.83330  0.95140  0.72593  1.0000 0.6414712206
C   C68       1.0  0.79780  0.96900  0.78233  1.0000 -0.0420573021
C   C69       1.0  0.84310  0.98520  0.83723  1.0000 -0.0919408304
C   C70       1.0  0.80740  0.99420  0.89133  1.0000 -0.1489095827
C   C71       1.0  0.61750  0.99640  0.94623  1.0000 -0.1736789137
C   C72       1.0  0.68890  0.99650  0.94903  1.0000 0.065438848
C   C73       1.0  0.72890  0.99000  0.89023  1.0000 0.0929440419
C   C74       1.0  0.37780  0.98490  0.94833  1.0000 -0.0973612631
C   C75       1.0  0.72140  0.96720  0.78083  1.0000 -0.0919408304
C   C76       1.0  0.68410  0.97290  0.83433  1.0000 -0.1558069949
C   C77       1.0  0.45530  0.98730  0.94603  1.0000 -0.1489095827
C   C78       1.0  0.04860  0.88190  0.05927  1.0000 0.6414712206
C   C79       1.0  0.03100  0.82880  0.11567  1.0000 -0.0420573021
C   C80       1.0  0.01480  0.85790  0.17057  1.0000 -0.0919408304
C   C81       1.0  0.00580  0.81320  0.22467  1.0000 -0.1489095827
C   C82       1.0  0.00360  0.62110  0.27957  1.0000 -0.1736789137
C   C83       1.0  0.00350  0.69240  0.28237  1.0000 0.065438848
C   C84       1.0  0.01000  0.73890  0.22357  1.0000 0.0929440419
C   C85       1.0  0.01510  0.39290  0.28167  1.0000 -0.0973612631
C   C86       1.0  0.03280  0.75420  0.11417  1.0000 -0.0919408304
C   C87       1.0  0.02710  0.71120  0.16767  1.0000 -0.1558069949
C   C88       1.0  0.01270  0.46800  0.27937  1.0000 -0.1489095827
C   C89       1.0  0.11810  0.16670  0.39260  1.0000 0.6414712206
C   C90       1.0  0.17120  0.20220  0.44900  1.0000 -0.0420573021
C   C91       1.0  0.14210  0.15690  0.50390  1.0000 -0.0919408304
C   C92       1.0  0.18680  0.19260  0.55800  1.0000 -0.1489095827
C   C93       1.0  0.37890  0.38250  0.61290  1.0000 -0.1736789137
C   C94       1.0  0.30760  0.31110  0.61570  1.0000 0.065438848
C   C95       1.0  0.26110  0.27110  0.55690  1.0000 0.0929440419
C   C96       1.0  0.60710  0.62220  0.61500  1.0000 -0.0973612631
C   C97       1.0  0.24580  0.27860  0.44750  1.0000 -0.0919408304
C   C98       1.0  0.28880  0.31590  0.50100  1.0000 -0.1558069949
C   C99       1.0  0.53200  0.54470  0.61270  1.0000 -0.1489095827
C   C100      1.0  0.16670  0.04860  0.22593  1.0000 0.6414712206
C   C101      1.0  0.20220  0.03100  0.28233  1.0000 -0.0420573021
C   C102      1.0  0.15690  0.01480  0.33723  1.0000 -0.0919408304
C   C103      1.0  0.19260  0.00580  0.39133  1.0000 -0.1489095827
C   C104      1.0  0.38250  0.00360  0.44623  1.0000 -0.1736789137
C   C105      1.0  0.31110  0.00350  0.44903  1.0000 0.065438848
C   C106      1.0  0.27110  0.01000  0.39023  1.0000 0.0929440419
C   C107      1.0  0.62220  0.01510  0.44833  1.0000 -0.0973612631
C   C108      1.0  0.27860  0.03280  0.28083  1.0000 -0.0919408304
C   C109      1.0  0.31590  0.02710  0.33433  1.0000 -0.1558069949
C   C110      1.0  0.54470  0.01270  0.44603  1.0000 -0.1489095827
C   C111      1.0  0.95140  0.11810  0.55927  1.0000 0.6414712206
C   C112      1.0  0.96900  0.17120  0.61567  1.0000 -0.0420573021
C   C113      1.0  0.98520  0.14210  0.67057  1.0000 -0.0919408304
C   C114      1.0  0.99420  0.18680  0.72467  1.0000 -0.1489095827
C   C115      1.0  0.99640  0.37890  0.77957  1.0000 -0.1736789137
C   C116      1.0  0.99650  0.30760  0.78237  1.0000 0.065438848
C   C117      1.0  0.99000  0.26110  0.72357  1.0000 0.0929440419
C   C118      1.0  0.98490  0.60710  0.78167  1.0000 -0.0973612631
C   C119      1.0  0.96720  0.24580  0.61417  1.0000 -0.0919408304
C   C120      1.0  0.97290  0.28880  0.66767  1.0000 -0.1558069949
C   C121      1.0  0.98730  0.53200  0.77937  1.0000 -0.1489095827
C   C122      1.0  0.88190  0.83330  0.89260  1.0000 0.6414712206
C   C123      1.0  0.82880  0.79780  0.94900  1.0000 -0.0420573021
C   C124      1.0  0.85790  0.84310  0.00390  1.0000 -0.0919408304
C   C125      1.0  0.81320  0.80740  0.05800  1.0000 -0.1489095827
C   C126      1.0  0.62110  0.61750  0.11290  1.0000 -0.1736789137
C   C127      1.0  0.69240  0.68890  0.11570  1.0000 0.065438848
C   C128      1.0  0.73890  0.72890  0.05690  1.0000 0.0929440419
C   C129      1.0  0.39290  0.37780  0.11500  1.0000 -0.0973612631
C   C130      1.0  0.75420  0.72140  0.94750  1.0000 -0.0919408304
C   C131      1.0  0.71120  0.68410  0.00100  1.0000 -0.1558069949
C   C132      1.0  0.46800  0.45530  0.11270  1.0000 -0.1489095827
C   C133      1.0  0.72970  0.00000  0.00000  1.0000 -0.1836325343
C   C134      1.0  0.34630  0.00000  0.00000  1.0000 -0.0420573021
C   C135      1.0  0.26270  0.00000  0.00000  1.0000 0.6592729921
C   C136      1.0  0.50160  0.00000  0.00000  1.0000 0.0806435754
C   C137      1.0  0.58240  0.00000  0.00000  1.0000 0.0429872961
C   C138      1.0  0.27030  0.27030  0.66667  1.0000 -0.1836325343
C   C139      1.0  0.65370  0.65370  0.66667  1.0000 -0.0420573021
C   C140      1.0  0.73730  0.73730  0.66667  1.0000 0.6592729921
C   C141      1.0  0.49840  0.49840  0.66667  1.0000 0.0806435754
C   C142      1.0  0.41760  0.41760  0.66667  1.0000 0.0429872961
C   C143      1.0  0.00000  0.72970  0.33333  1.0000 -0.1836325343
C   C144      1.0  0.00000  0.34630  0.33333  1.0000 -0.0420573021
C   C145      1.0  0.00000  0.26270  0.33333  1.0000 0.6592729921
C   C146      1.0  0.00000  0.50160  0.33333  1.0000 0.0806435754
C   C147      1.0  0.00000  0.58240  0.33333  1.0000 0.0429872961
C   C148      1.0  0.27030  0.00000  0.50000  1.0000 -0.1836325343
C   C149      1.0  0.65370  0.00000  0.50000  1.0000 -0.0420573021
C   C150      1.0  0.73730  0.00000  0.50000  1.0000 0.6592729921
C   C151      1.0  0.49840  0.00000  0.50000  1.0000 0.0806435754
C   C152      1.0  0.41760  0.00000  0.50000  1.0000 0.0429872961
C   C153      1.0  0.72970  0.72970  0.16667  1.0000 -0.1836325343
C   C154      1.0  0.34630  0.34630  0.16667  1.0000 -0.0420573021
C   C155      1.0  0.26270  0.26270  0.16667  1.0000 0.6592729921
C   C156      1.0  0.50160  0.50160  0.16667  1.0000 0.0806435754
C   C157      1.0  0.58240  0.58240  0.16667  1.0000 0.0429872961
C   C158      1.0  0.00000  0.27030  0.83333  1.0000 -0.1836325343
C   C159      1.0  0.00000  0.65370  0.83333  1.0000 -0.0420573021
C   C160      1.0  0.00000  0.73730  0.83333  1.0000 0.6592729921
C   C161      1.0  0.00000  0.49840  0.83333  1.0000 0.0806435754
C   C162      1.0  0.00000  0.41760  0.83333  1.0000 0.0429872961
O   O1        1.0  0.95890  0.06420  0.26743  1.0000 -0.7177743082
O   O2        1.0  0.84910  0.04710  0.32437  1.0000 -0.6539286539
O   O3        1.0  0.24300  0.02230  0.04757  1.0000 -0.6634698922
O   O4        1.0  0.10530  0.04110  0.93409  1.0000 -0.7177743082
O   O5        1.0  0.19800  0.15090  0.99103  1.0000 -0.6539286539
O   O6        1.0  0.77930  0.75700  0.71423  1.0000 -0.6634698922
O   O7        1.0  0.93580  0.89470  0.60076  1.0000 -0.7177743082
O   O8        1.0  0.95290  0.80200  0.65770  1.0000 -0.6539286539
O   O9        1.0  0.97770  0.22070  0.38090  1.0000 -0.6634698922
O   O10       1.0  0.04110  0.93580  0.76743  1.0000 -0.7177743082
O   O11       1.0  0.15090  0.95290  0.82437  1.0000 -0.6539286539
O   O12       1.0  0.75700  0.97770  0.54757  1.0000 -0.6634698922
O   O13       1.0  0.89470  0.95890  0.43409  1.0000 -0.7177743082
O   O14       1.0  0.80200  0.84910  0.49103  1.0000 -0.6539286539
O   O15       1.0  0.22070  0.24300  0.21423  1.0000 -0.6634698922
O   O16       1.0  0.06420  0.10530  0.10076  1.0000 -0.7177743082
O   O17       1.0  0.04710  0.19800  0.15770  1.0000 -0.6539286539
O   O18       1.0  0.02230  0.77930  0.88090  1.0000 -0.6634698922
O   O19       1.0  0.89470  0.93580  0.73257  1.0000 -0.7177743082
O   O20       1.0  0.80200  0.95290  0.67563  1.0000 -0.6539286539
O   O21       1.0  0.22070  0.97770  0.95243  1.0000 -0.6634698922
O   O22       1.0  0.06420  0.95890  0.06591  1.0000 -0.7177743082
O   O23       1.0  0.04710  0.84910  0.00897  1.0000 -0.6539286539
O   O24       1.0  0.02230  0.24300  0.28577  1.0000 -0.6634698922
O   O25       1.0  0.04110  0.10530  0.39924  1.0000 -0.7177743082
O   O26       1.0  0.15090  0.19800  0.34230  1.0000 -0.6539286539
O   O27       1.0  0.75700  0.77930  0.61910  1.0000 -0.6634698922
O   O28       1.0  0.10530  0.06420  0.23257  1.0000 -0.7177743082
O   O29       1.0  0.19800  0.04710  0.17563  1.0000 -0.6539286539
O   O30       1.0  0.77930  0.02230  0.45243  1.0000 -0.6634698922
O   O31       1.0  0.93580  0.04110  0.56591  1.0000 -0.7177743082
O   O32       1.0  0.95290  0.15090  0.50897  1.0000 -0.6539286539
O   O33       1.0  0.97770  0.75700  0.78577  1.0000 -0.6634698922
O   O34       1.0  0.95890  0.89470  0.89924  1.0000 -0.7177743082
O   O35       1.0  0.84910  0.80200  0.84230  1.0000 -0.6539286539
O   O36       1.0  0.24300  0.22070  0.11910  1.0000 -0.6634698922
