# DDEC6 charges by PACMAN v1.1 (https://github.com/mtap-research/PACMAN-charge/)
data_2017[Co][sql]2[ASR]4
_chemical_formula_sum              "Co4 H32 C68 O16 F24"
_cell_length_a       15.983
_cell_length_b       10.393
_cell_length_c       25.7023
_cell_angle_alpha    90
_cell_angle_beta     126.241
_cell_angle_gamma    90

_symmetry_space_group_name_H-M    "P 1"
_symmetry_Int_Tables_number       1

loop_
  _symmetry_equiv_pos_as_xyz
  'x, y, z'

loop_
  _atom_site_type_symbol
  _atom_site_label
  _atom_site_symmetry_multiplicity
  _atom_site_fract_x
  _atom_site_fract_y
  _atom_site_fract_z
  _atom_site_occupancy
  _atom_site_charge
Co  Co1       1.0  0.94577  0.12228  0.48058  1.0000 1.000271741
Co  Co2       1.0  0.05423  0.62228  0.01942  1.0000 1.000271741
Co  Co3       1.0  0.05423  0.87772  0.51942  1.0000 1.000271741
Co  Co4       1.0  0.94577  0.37772  0.98058  1.0000 1.000271741
H   H1        1.0  0.27670  0.97340  0.72150  1.0000 0.1288721708
H   H2        1.0  0.37980  0.04160  0.82750  1.0000 0.1184803413
H   H3        1.0  0.18940  0.33970  0.78010  1.0000 0.1184803413
H   H4        1.0  0.09040  0.27620  0.67360  1.0000 0.1288721708
H   H5        1.0  0.37240  0.47420  0.94500  1.0000 0.1184803413
H   H6        1.0  0.27500  0.53390  0.98050  1.0000 0.1288721708
H   H7        1.0  0.11600  0.20540  0.91300  1.0000 0.1288721708
H   H8        1.0  0.21020  0.14850  0.87490  1.0000 0.1184803413
H   H9        1.0  0.72330  0.47340  0.77850  1.0000 0.1288721708
H   H10       1.0  0.62020  0.54160  0.67250  1.0000 0.1184803413
H   H11       1.0  0.81060  0.83970  0.71990  1.0000 0.1184803413
H   H12       1.0  0.90960  0.77620  0.82640  1.0000 0.1288721708
H   H13       1.0  0.62760  0.97420  0.55500  1.0000 0.1184803413
H   H14       1.0  0.72500  0.03390  0.51950  1.0000 0.1288721708
H   H15       1.0  0.88400  0.70540  0.58700  1.0000 0.1288721708
H   H16       1.0  0.78980  0.64850  0.62510  1.0000 0.1184803413
H   H17       1.0  0.72330  0.02660  0.27850  1.0000 0.1288721708
H   H18       1.0  0.62020  0.95840  0.17250  1.0000 0.1184803413
H   H19       1.0  0.81060  0.66030  0.21990  1.0000 0.1184803413
H   H20       1.0  0.90960  0.72380  0.32640  1.0000 0.1288721708
H   H21       1.0  0.62760  0.52580  0.05500  1.0000 0.1184803413
H   H22       1.0  0.72500  0.46610  0.01950  1.0000 0.1288721708
H   H23       1.0  0.88400  0.79460  0.08700  1.0000 0.1288721708
H   H24       1.0  0.78980  0.85150  0.12510  1.0000 0.1184803413
H   H25       1.0  0.27670  0.52660  0.22150  1.0000 0.1288721708
H   H26       1.0  0.37980  0.45840  0.32750  1.0000 0.1184803413
H   H27       1.0  0.18940  0.16030  0.28010  1.0000 0.1184803413
H   H28       1.0  0.09040  0.22380  0.17360  1.0000 0.1288721708
H   H29       1.0  0.37240  0.02580  0.44500  1.0000 0.1184803413
H   H30       1.0  0.27500  0.96610  0.48050  1.0000 0.1288721708
H   H31       1.0  0.11600  0.29460  0.41300  1.0000 0.1288721708
H   H32       1.0  0.21020  0.35150  0.37490  1.0000 0.1184803413
C   C1        1.0  0.11238  0.07850  0.61743  1.0000 0.5990978514
C   C2        1.0  0.17473  0.11910  0.68656  1.0000 -0.0197675697
C   C3        1.0  0.26002  0.04870  0.73301  1.0000 -0.0818328301
C   C4        1.0  0.32142  0.08890  0.79673  1.0000 -0.146976782
C   C5        1.0  0.29601  0.19930  0.81471  1.0000 0.0690009032
C   C6        1.0  0.20840  0.26700  0.76826  1.0000 -0.134890687
C   C7        1.0  0.14843  0.22850  0.70447  1.0000 -0.0863811479
C   C8        1.0  0.36614  0.25690  0.88309  1.0000 -0.2638168896
C   C9        1.0  0.42690  0.36620  0.87920  1.0000 0.6513325011
C   C10       1.0  0.44240  0.15760  0.93360  1.0000 0.6558277046
C   C11       1.0  0.30108  0.30510  0.90577  1.0000 0.0690009032
C   C12       1.0  0.32023  0.42010  0.93788  1.0000 -0.146976782
C   C13       1.0  0.26221  0.45550  0.95964  1.0000 -0.0818328301
C   C14       1.0  0.18581  0.37610  0.95072  1.0000 -0.0197675697
C   C15       1.0  0.16700  0.26040  0.91913  1.0000 -0.0863811479
C   C16       1.0  0.22408  0.22610  0.89658  1.0000 -0.1425072963
C   C17       1.0  0.12312  0.41680  0.97442  1.0000 0.5990978514
C   C18       1.0  0.88762  0.57850  0.88257  1.0000 0.5990978514
C   C19       1.0  0.82527  0.61910  0.81344  1.0000 -0.0197675697
C   C20       1.0  0.73998  0.54870  0.76699  1.0000 -0.0818328301
C   C21       1.0  0.67858  0.58890  0.70327  1.0000 -0.146976782
C   C22       1.0  0.70399  0.69930  0.68529  1.0000 0.0690009032
C   C23       1.0  0.79160  0.76700  0.73174  1.0000 -0.1425072963
C   C24       1.0  0.85157  0.72850  0.79553  1.0000 -0.0863811479
C   C25       1.0  0.63386  0.75690  0.61691  1.0000 -0.2638168896
C   C26       1.0  0.57310  0.86620  0.62080  1.0000 0.6513325011
C   C27       1.0  0.55760  0.65760  0.56640  1.0000 0.6558277046
C   C28       1.0  0.69892  0.80510  0.59423  1.0000 0.0690009032
C   C29       1.0  0.67977  0.92010  0.56212  1.0000 -0.146976782
C   C30       1.0  0.73779  0.95550  0.54036  1.0000 -0.0818328301
C   C31       1.0  0.81419  0.87610  0.54928  1.0000 -0.0197675697
C   C32       1.0  0.83300  0.76040  0.58087  1.0000 -0.0863811479
C   C33       1.0  0.77592  0.72610  0.60342  1.0000 -0.1425072963
C   C34       1.0  0.87688  0.91680  0.52558  1.0000 0.5990978514
C   C35       1.0  0.88762  0.92150  0.38257  1.0000 0.5990978514
C   C36       1.0  0.82527  0.88090  0.31344  1.0000 -0.0197675697
C   C37       1.0  0.73998  0.95130  0.26699  1.0000 -0.0818328301
C   C38       1.0  0.67858  0.91110  0.20327  1.0000 -0.146976782
C   C39       1.0  0.70399  0.80070  0.18529  1.0000 0.0690009032
C   C40       1.0  0.79160  0.73300  0.23174  1.0000 -0.134890687
C   C41       1.0  0.85157  0.77150  0.29553  1.0000 -0.0863811479
C   C42       1.0  0.63386  0.74310  0.11691  1.0000 -0.2638168896
C   C43       1.0  0.57310  0.63380  0.12080  1.0000 0.6513325011
C   C44       1.0  0.55760  0.84240  0.06640  1.0000 0.6558277046
C   C45       1.0  0.69892  0.69490  0.09423  1.0000 0.0690009032
C   C46       1.0  0.67977  0.57990  0.06212  1.0000 -0.146976782
C   C47       1.0  0.73779  0.54450  0.04036  1.0000 -0.0818328301
C   C48       1.0  0.81419  0.62390  0.04928  1.0000 -0.0197675697
C   C49       1.0  0.83300  0.73960  0.08087  1.0000 -0.0863811479
C   C50       1.0  0.77592  0.77390  0.10342  1.0000 -0.1425072963
C   C51       1.0  0.87688  0.58320  0.02558  1.0000 0.5990978514
C   C52       1.0  0.11238  0.42150  0.11743  1.0000 0.5990978514
C   C53       1.0  0.17473  0.38090  0.18656  1.0000 -0.0197675697
C   C54       1.0  0.26002  0.45130  0.23301  1.0000 -0.0818328301
C   C55       1.0  0.32142  0.41110  0.29673  1.0000 -0.146976782
C   C56       1.0  0.29601  0.30070  0.31471  1.0000 0.0690009032
C   C57       1.0  0.20840  0.23300  0.26826  1.0000 -0.134890687
C   C58       1.0  0.14843  0.27150  0.20447  1.0000 -0.0863811479
C   C59       1.0  0.36614  0.24310  0.38309  1.0000 -0.2638168896
C   C60       1.0  0.42690  0.13380  0.37920  1.0000 0.6513325011
C   C61       1.0  0.44240  0.34240  0.43360  1.0000 0.6558277046
C   C62       1.0  0.30108  0.19490  0.40577  1.0000 0.0690009032
C   C63       1.0  0.32023  0.07990  0.43788  1.0000 -0.146976782
C   C64       1.0  0.26221  0.04450  0.45964  1.0000 -0.0818328301
C   C65       1.0  0.18581  0.12390  0.45072  1.0000 -0.0197675697
C   C66       1.0  0.16700  0.23960  0.41913  1.0000 -0.0863811479
C   C67       1.0  0.22408  0.27390  0.39658  1.0000 -0.146976782
C   C68       1.0  0.12312  0.08320  0.47442  1.0000 0.5990978514
O   O1        1.0  0.04749  0.15680  0.57608  1.0000 -0.5512247051
O   O2        1.0  0.12949  0.96870  0.60548  1.0000 -0.5557837005
O   O3        1.0  0.05820  0.33840  0.96788  1.0000 -0.5512247051
O   O4        1.0  0.14054  0.52710  0.99840  1.0000 -0.5557837005
O   O5        1.0  0.95251  0.65680  0.92392  1.0000 -0.5512247051
O   O6        1.0  0.87051  0.46870  0.89452  1.0000 -0.5557837005
O   O7        1.0  0.94180  0.83840  0.53212  1.0000 -0.5512247051
O   O8        1.0  0.85946  0.02710  0.50160  1.0000 -0.5557837005
O   O9        1.0  0.95251  0.84320  0.42392  1.0000 -0.5512247051
O   O10       1.0  0.87051  0.03130  0.39452  1.0000 -0.5557837005
O   O11       1.0  0.94180  0.66160  0.03212  1.0000 -0.5512247051
O   O12       1.0  0.85946  0.47290  0.00160  1.0000 -0.5557837005
O   O13       1.0  0.04749  0.34320  0.07608  1.0000 -0.5512247051
O   O14       1.0  0.12949  0.53130  0.10548  1.0000 -0.5557837005
O   O15       1.0  0.05820  0.16160  0.46788  1.0000 -0.5512247051
O   O16       1.0  0.14054  0.97290  0.49840  1.0000 -0.5557837005
F   F1        1.0  0.36802  0.46480  0.84602  1.0000 -0.2138783078
F   F2        1.0  0.50541  0.41010  0.93716  1.0000 -0.20106921
F   F3        1.0  0.47039  0.32590  0.85065  1.0000 -0.1938918497
F   F4        1.0  0.49201  0.20490  0.99331  1.0000 -0.1938918497
F   F5        1.0  0.39602  0.05100  0.93092  1.0000 -0.20106921
F   F6        1.0  0.51743  0.12490  0.92716  1.0000 -0.20106921
F   F7        1.0  0.63198  0.96480  0.65398  1.0000 -0.2138783078
F   F8        1.0  0.49459  0.91010  0.56284  1.0000 -0.20106921
F   F9        1.0  0.52961  0.82590  0.64935  1.0000 -0.1938918497
F   F10       1.0  0.50799  0.70490  0.50669  1.0000 -0.1938918497
F   F11       1.0  0.60398  0.55100  0.56908  1.0000 -0.20106921
F   F12       1.0  0.48257  0.62490  0.57284  1.0000 -0.20106921
F   F13       1.0  0.63198  0.53520  0.15398  1.0000 -0.2138783078
F   F14       1.0  0.49459  0.58990  0.06284  1.0000 -0.20106921
F   F15       1.0  0.52961  0.67410  0.14935  1.0000 -0.1938918497
F   F16       1.0  0.50799  0.79510  0.00669  1.0000 -0.1938918497
F   F17       1.0  0.60398  0.94900  0.06908  1.0000 -0.20106921
F   F18       1.0  0.48257  0.87510  0.07284  1.0000 -0.20106921
F   F19       1.0  0.36802  0.03520  0.34602  1.0000 -0.2138783078
F   F20       1.0  0.50541  0.08990  0.43716  1.0000 -0.20106921
F   F21       1.0  0.47039  0.17410  0.35065  1.0000 -0.1938918497
F   F22       1.0  0.49201  0.29510  0.49331  1.0000 -0.1938918497
F   F23       1.0  0.39602  0.44900  0.43092  1.0000 -0.20106921
F   F24       1.0  0.51743  0.37510  0.42716  1.0000 -0.20106921
