# DDEC6 charges by PACMAN v1.1 (https://github.com/mtap-research/PACMAN-charge/)
data_2017[Cd][sql]2[ASR]12
_chemical_formula_sum              "Cd2 H18 C28 N4 O8"
_cell_length_a       7.543
_cell_length_b       9.941
_cell_length_c       11.897
_cell_angle_alpha    83.593
_cell_angle_beta     85.37
_cell_angle_gamma    71.131

_symmetry_space_group_name_H-M    "P 1"
_symmetry_Int_Tables_number       1

loop_
  _symmetry_equiv_pos_as_xyz
  'x, y, z'

loop_
  _atom_site_type_symbol
  _atom_site_label
  _atom_site_symmetry_multiplicity
  _atom_site_fract_x
  _atom_site_fract_y
  _atom_site_fract_z
  _atom_site_occupancy
  _atom_site_charge
Cd  Cd1       1.0  0.50435  0.80605  0.94657  1.0000 0.9348301469
Cd  Cd2       1.0  0.49565  0.19395  0.05343  1.0000 0.9348301469
H   H1        1.0  0.56200  0.57340  0.17680  1.0000 0.13262221
H   H2        1.0  0.18430  0.95250  0.15440  1.0000 0.1476505501
H   H3        1.0  0.17120  0.85830  0.35070  1.0000 0.13262221
H   H4        1.0  0.91070  0.57110  0.65590  1.0000 0.1102408572
H   H5        1.0  0.01630  0.31240  0.94290  1.0000 0.13262221
H   H6        1.0  0.37540  0.74380  0.50700  1.0000 0.1419558814
H   H7        1.0  0.52570  0.40070  0.33000  1.0000 0.1419558814
H   H8        1.0  0.13330  0.40120  0.55680  1.0000 0.1102408572
H   H9        1.0  0.29110  0.18020  0.65110  1.0000 0.1102408572
H   H10       1.0  0.43800  0.42660  0.82320  1.0000 0.13262221
H   H11       1.0  0.81570  0.04750  0.84560  1.0000 0.1476505501
H   H12       1.0  0.82880  0.14170  0.64930  1.0000 0.13262221
H   H13       1.0  0.08930  0.42890  0.34410  1.0000 0.1102408572
H   H14       1.0  0.98370  0.68760  0.05710  1.0000 0.13262221
H   H15       1.0  0.62460  0.25620  0.49300  1.0000 0.1419558814
H   H16       1.0  0.47430  0.59930  0.67000  1.0000 0.1419558814
H   H17       1.0  0.86670  0.59880  0.44320  1.0000 0.1102408572
H   H18       1.0  0.70890  0.81980  0.34890  1.0000 0.1102408572
C   C1        1.0  0.46750  0.65580  0.19520  1.0000 0.1102408572
C   C2        1.0  0.25960  0.86390  0.18450  1.0000 -0.0139594367
C   C3        1.0  0.79570  0.57170  0.87150  1.0000 0.5437137066
C   C4        1.0  0.25050  0.81290  0.29270  1.0000 -0.1098667206
C   C5        1.0  0.94110  0.46070  0.80930  1.0000 -0.0139594367
C   C6        1.0  0.44150  0.58670  0.40130  1.0000 0.1599683641
C   C7        1.0  0.97680  0.48470  0.69400  1.0000 -0.1214923625
C   C8        1.0  0.04000  0.33020  0.86560  1.0000 -0.1017877878
C   C9        1.0  0.42590  0.64550  0.50430  1.0000 -0.1576476441
C   C10       1.0  0.51550  0.44080  0.39810  1.0000 -0.1526509719
C   C11       1.0  0.10920  0.38260  0.63380  1.0000 -0.1251627626
C   C12       1.0  0.17300  0.22700  0.80740  1.0000 -0.031254244
C   C13       1.0  0.20570  0.25110  0.69070  1.0000 -0.1214923625
C   C14       1.0  0.28430  0.08850  0.86870  1.0000 0.5579564152
C   C15       1.0  0.53250  0.34420  0.80480  1.0000 0.1102408572
C   C16       1.0  0.74040  0.13610  0.81550  1.0000 -0.0139594367
C   C17       1.0  0.20430  0.42830  0.12850  1.0000 0.5437137066
C   C18       1.0  0.74950  0.18710  0.70730  1.0000 -0.1098667206
C   C19       1.0  0.05890  0.53930  0.19070  1.0000 -0.0139594367
C   C20       1.0  0.55850  0.41330  0.59870  1.0000 0.1599683641
C   C21       1.0  0.02320  0.51530  0.30600  1.0000 -0.1214923625
C   C22       1.0  0.96000  0.66980  0.13440  1.0000 -0.1017877878
C   C23       1.0  0.57410  0.35450  0.49570  1.0000 -0.1576476441
C   C24       1.0  0.48450  0.55920  0.60190  1.0000 -0.1526509719
C   C25       1.0  0.89080  0.61740  0.36620  1.0000 -0.1251627626
C   C26       1.0  0.82700  0.77300  0.19260  1.0000 -0.031254244
C   C27       1.0  0.79430  0.74890  0.30930  1.0000 -0.1214923625
C   C28       1.0  0.71570  0.91150  0.13130  1.0000 0.5579564152
N   N1        1.0  0.39550  0.76770  0.12350  1.0000 -0.2955474676
N   N2        1.0  0.38360  0.67810  0.30100  1.0000 -0.0046429333
N   N3        1.0  0.60450  0.23230  0.87650  1.0000 -0.2955474676
N   N4        1.0  0.61640  0.32190  0.69900  1.0000 -0.0046429333
O   O1        1.0  0.70440  0.91860  0.02540  1.0000 -0.5730662765
O   O2        1.0  0.73680  0.69680  0.82140  1.0000 -0.5511312904
O   O3        1.0  0.73520  0.54180  0.96940  1.0000 -0.5614151777
O   O4        1.0  0.36470  0.98250  0.81310  1.0000 -0.5317841293
O   O5        1.0  0.29560  0.08140  0.97460  1.0000 -0.5730662765
O   O6        1.0  0.26320  0.30320  0.17860  1.0000 -0.5511312904
O   O7        1.0  0.26480  0.45820  0.03060  1.0000 -0.5614151777
O   O8        1.0  0.63530  0.01750  0.18690  1.0000 -0.5317841293
