# DDEC6 charges by PACMAN v1.1 (https://github.com/mtap-research/PACMAN-charge/)
data_2017[Zn][nan]3[ASR]31
_chemical_formula_sum              "Zn10 H30 C30 N60"
_cell_length_a       12.4932
_cell_length_b       12.4932
_cell_length_c       12.739
_cell_angle_alpha    90
_cell_angle_beta     90
_cell_angle_gamma    120

_symmetry_space_group_name_H-M    "P 1"
_symmetry_Int_Tables_number       1

loop_
  _symmetry_equiv_pos_as_xyz
  'x, y, z'

loop_
  _atom_site_type_symbol
  _atom_site_label
  _atom_site_symmetry_multiplicity
  _atom_site_fract_x
  _atom_site_fract_y
  _atom_site_fract_z
  _atom_site_occupancy
  _atom_site_charge
Zn  Zn1       1.0  0.66667  0.33333  0.39988  1.0000 0.4215183224
Zn  Zn2       1.0  0.33333  0.66667  0.89988  1.0000 0.4215183224
Zn  Zn3       1.0  0.33333  0.66667  0.60012  1.0000 0.4215183224
Zn  Zn4       1.0  0.66667  0.33333  0.10012  1.0000 0.4215183224
Zn  Zn5       1.0  0.50000  0.50000  0.50000  1.0000 0.4954353611
Zn  Zn6       1.0  0.50000  0.00000  0.50000  1.0000 0.4931329528
Zn  Zn7       1.0  0.00000  0.50000  0.50000  1.0000 0.4954353611
Zn  Zn8       1.0  0.50000  0.50000  0.00000  1.0000 0.4954353611
Zn  Zn9       1.0  0.50000  0.00000  0.00000  1.0000 0.4931329528
Zn  Zn10      1.0  0.00000  0.50000  0.00000  1.0000 0.4954353611
H   H1        1.0  0.29310  0.24480  0.62630  1.0000 0.1194038253
H   H2        1.0  0.75520  0.04830  0.62630  1.0000 0.1194038253
H   H3        1.0  0.95170  0.70690  0.62630  1.0000 0.1194038253
H   H4        1.0  0.70690  0.75520  0.12630  1.0000 0.1194038253
H   H5        1.0  0.24480  0.95170  0.12630  1.0000 0.1194038253
H   H6        1.0  0.04830  0.29310  0.12630  1.0000 0.1194038253
H   H7        1.0  0.24480  0.29310  0.37370  1.0000 0.1194038253
H   H8        1.0  0.04830  0.75520  0.37370  1.0000 0.1194038253
H   H9        1.0  0.70690  0.95170  0.37370  1.0000 0.1194038253
H   H10       1.0  0.75520  0.70690  0.87370  1.0000 0.1194038253
H   H11       1.0  0.95170  0.24480  0.87370  1.0000 0.1194038253
H   H12       1.0  0.29310  0.04830  0.87370  1.0000 0.1194038253
H   H13       1.0  0.70690  0.75520  0.37370  1.0000 0.1194038253
H   H14       1.0  0.24480  0.95170  0.37370  1.0000 0.1194038253
H   H15       1.0  0.04830  0.29310  0.37370  1.0000 0.1194038253
H   H16       1.0  0.29310  0.24480  0.87370  1.0000 0.1194038253
H   H17       1.0  0.75520  0.04830  0.87370  1.0000 0.1194038253
H   H18       1.0  0.95170  0.70690  0.87370  1.0000 0.1194038253
H   H19       1.0  0.75520  0.70690  0.62630  1.0000 0.1194038253
H   H20       1.0  0.95170  0.24480  0.62630  1.0000 0.1194038253
H   H21       1.0  0.29310  0.04830  0.62630  1.0000 0.1194038253
H   H22       1.0  0.24480  0.29310  0.12630  1.0000 0.1194038253
H   H23       1.0  0.04830  0.75520  0.12630  1.0000 0.1194038253
H   H24       1.0  0.70690  0.95170  0.12630  1.0000 0.1194038253
H   H25       1.0  0.44690  0.55310  0.25000  1.0000 0.1194038253
H   H26       1.0  0.44690  0.89380  0.25000  1.0000 0.1194038253
H   H27       1.0  0.10620  0.55310  0.25000  1.0000 0.1194038253
H   H28       1.0  0.55310  0.44690  0.75000  1.0000 0.1194038253
H   H29       1.0  0.55310  0.10620  0.75000  1.0000 0.1194038253
H   H30       1.0  0.89380  0.44690  0.75000  1.0000 0.1194038253
C   C1        1.0  0.35070  0.22890  0.59120  1.0000 -0.0813976933
C   C2        1.0  0.77110  0.12180  0.59120  1.0000 -0.0813976933
C   C3        1.0  0.87820  0.64930  0.59120  1.0000 -0.0813976933
C   C4        1.0  0.64930  0.77110  0.09120  1.0000 -0.0813976933
C   C5        1.0  0.22890  0.87820  0.09120  1.0000 -0.0813976933
C   C6        1.0  0.12180  0.35070  0.09120  1.0000 -0.0813976933
C   C7        1.0  0.22890  0.35070  0.40880  1.0000 -0.0813976933
C   C8        1.0  0.12180  0.77110  0.40880  1.0000 -0.0813976933
C   C9        1.0  0.64930  0.87820  0.40880  1.0000 -0.0813976933
C   C10       1.0  0.77110  0.64930  0.90880  1.0000 -0.0813976933
C   C11       1.0  0.87820  0.22890  0.90880  1.0000 -0.0813976933
C   C12       1.0  0.35070  0.12180  0.90880  1.0000 -0.0813976933
C   C13       1.0  0.64930  0.77110  0.40880  1.0000 -0.0813976933
C   C14       1.0  0.22890  0.87820  0.40880  1.0000 -0.0813976933
C   C15       1.0  0.12180  0.35070  0.40880  1.0000 -0.0813976933
C   C16       1.0  0.35070  0.22890  0.90880  1.0000 -0.0813976933
C   C17       1.0  0.77110  0.12180  0.90880  1.0000 -0.0813976933
C   C18       1.0  0.87820  0.64930  0.90880  1.0000 -0.0813976933
C   C19       1.0  0.77110  0.64930  0.59120  1.0000 -0.0813976933
C   C20       1.0  0.87820  0.22890  0.59120  1.0000 -0.0813976933
C   C21       1.0  0.35070  0.12180  0.59120  1.0000 -0.0813976933
C   C22       1.0  0.22890  0.35070  0.09120  1.0000 -0.0813976933
C   C23       1.0  0.12180  0.77110  0.09120  1.0000 -0.0813976933
C   C24       1.0  0.64930  0.87820  0.09120  1.0000 -0.0813976933
C   C25       1.0  0.49080  0.50920  0.25000  1.0000 0.1006457945
C   C26       1.0  0.49080  0.98160  0.25000  1.0000 0.1006457945
C   C27       1.0  0.01840  0.50920  0.25000  1.0000 0.1006457945
C   C28       1.0  0.50920  0.49080  0.75000  1.0000 0.1006457945
C   C29       1.0  0.50920  0.01840  0.75000  1.0000 0.1006457945
C   C30       1.0  0.98160  0.49080  0.75000  1.0000 0.1006457945
N   N1        1.0  0.44620  0.30920  0.53311  1.0000 -0.1540175239
N   N2        1.0  0.69080  0.13700  0.53311  1.0000 -0.1540175239
N   N3        1.0  0.86300  0.55380  0.53311  1.0000 -0.1540175239
N   N4        1.0  0.55380  0.69080  0.03311  1.0000 -0.1540175239
N   N5        1.0  0.30920  0.86300  0.03311  1.0000 -0.1540175239
N   N6        1.0  0.13700  0.44620  0.03311  1.0000 -0.1540175239
N   N7        1.0  0.30920  0.44620  0.46689  1.0000 -0.1540175239
N   N8        1.0  0.13700  0.69080  0.46689  1.0000 -0.1540175239
N   N9        1.0  0.55380  0.86300  0.46689  1.0000 -0.1540175239
N   N10       1.0  0.69080  0.55380  0.96689  1.0000 -0.1540175239
N   N11       1.0  0.86300  0.30920  0.96689  1.0000 -0.1540175239
N   N12       1.0  0.44620  0.13700  0.96689  1.0000 -0.1540175239
N   N13       1.0  0.55380  0.69080  0.46689  1.0000 -0.1540175239
N   N14       1.0  0.30920  0.86300  0.46689  1.0000 -0.1540175239
N   N15       1.0  0.13700  0.44620  0.46689  1.0000 -0.1540175239
N   N16       1.0  0.44620  0.30920  0.96689  1.0000 -0.1540175239
N   N17       1.0  0.69080  0.13700  0.96689  1.0000 -0.1540175239
N   N18       1.0  0.86300  0.55380  0.96689  1.0000 -0.1540175239
N   N19       1.0  0.69080  0.55380  0.53311  1.0000 -0.1540175239
N   N20       1.0  0.86300  0.30920  0.53311  1.0000 -0.1540175239
N   N21       1.0  0.44620  0.13700  0.53311  1.0000 -0.1540175239
N   N22       1.0  0.30920  0.44620  0.03311  1.0000 -0.1540175239
N   N23       1.0  0.13700  0.69080  0.03311  1.0000 -0.1540175239
N   N24       1.0  0.55380  0.86300  0.03311  1.0000 -0.1540175239
N   N25       1.0  0.58459  0.41541  0.30140  1.0000 -0.0370667468
N   N26       1.0  0.52605  0.47395  0.33590  1.0000 -0.1829846064
N   N27       1.0  0.58459  0.16918  0.30140  1.0000 -0.0370667468
N   N28       1.0  0.52605  0.05210  0.33590  1.0000 -0.1829846064
N   N29       1.0  0.83082  0.41541  0.30140  1.0000 -0.0370667468
N   N30       1.0  0.94790  0.47395  0.33590  1.0000 -0.1829846064
N   N31       1.0  0.41541  0.58459  0.80140  1.0000 -0.0370667468
N   N32       1.0  0.47395  0.52605  0.83590  1.0000 -0.1829846064
N   N33       1.0  0.41541  0.83082  0.80140  1.0000 -0.0370667468
N   N34       1.0  0.47395  0.94790  0.83590  1.0000 -0.1829846064
N   N35       1.0  0.16918  0.58459  0.80140  1.0000 -0.0370667468
N   N36       1.0  0.05210  0.52605  0.83590  1.0000 -0.1829846064
N   N37       1.0  0.41541  0.58459  0.69860  1.0000 -0.0370667468
N   N38       1.0  0.47395  0.52605  0.66410  1.0000 -0.1829846064
N   N39       1.0  0.16918  0.58459  0.69860  1.0000 -0.0370667468
N   N40       1.0  0.05210  0.52605  0.66410  1.0000 -0.1829846064
N   N41       1.0  0.41541  0.83082  0.69860  1.0000 -0.0370667468
N   N42       1.0  0.47395  0.94790  0.66410  1.0000 -0.1829846064
N   N43       1.0  0.58459  0.41541  0.19860  1.0000 -0.0370667468
N   N44       1.0  0.52605  0.47395  0.16410  1.0000 -0.1829846064
N   N45       1.0  0.83082  0.41541  0.19860  1.0000 -0.0370667468
N   N46       1.0  0.94790  0.47395  0.16410  1.0000 -0.1829846064
N   N47       1.0  0.58459  0.16918  0.19860  1.0000 -0.0370667468
N   N48       1.0  0.52605  0.05210  0.16410  1.0000 -0.1829846064
N   N49       1.0  0.50340  0.25170  0.49780  1.0000 -0.0457907261
N   N50       1.0  0.74830  0.25170  0.49780  1.0000 -0.0457907261
N   N51       1.0  0.74830  0.49660  0.49780  1.0000 -0.0457907261
N   N52       1.0  0.49660  0.74830  0.99780  1.0000 -0.0457907261
N   N53       1.0  0.25170  0.74830  0.99780  1.0000 -0.0457907261
N   N54       1.0  0.25170  0.50340  0.99780  1.0000 -0.0457907261
N   N55       1.0  0.25170  0.50340  0.50220  1.0000 -0.0457907261
N   N56       1.0  0.25170  0.74830  0.50220  1.0000 -0.0457907261
N   N57       1.0  0.49660  0.74830  0.50220  1.0000 -0.0457907261
N   N58       1.0  0.74830  0.49660  0.00220  1.0000 -0.0457907261
N   N59       1.0  0.74830  0.25170  0.00220  1.0000 -0.0457907261
N   N60       1.0  0.50340  0.25170  0.00220  1.0000 -0.0457907261
