# DDEC6 charges by PACMAN v1.1 (https://github.com/mtap-research/PACMAN-charge/)
data_2017[Zn][pcu]3[ASR]10
_chemical_formula_sum              "Zn8 H96 C164 S8 N8 O32 F24"
_cell_length_a       10.92
_cell_length_b       21.693
_cell_length_c       23.699
_cell_angle_alpha    67.91
_cell_angle_beta     79.76
_cell_angle_gamma    76.563

_symmetry_space_group_name_H-M    "P 1"
_symmetry_Int_Tables_number       1

loop_
  _symmetry_equiv_pos_as_xyz
  'x, y, z'

loop_
  _atom_site_type_symbol
  _atom_site_label
  _atom_site_symmetry_multiplicity
  _atom_site_fract_x
  _atom_site_fract_y
  _atom_site_fract_z
  _atom_site_occupancy
  _atom_site_charge
Zn  Zn1       1.0  0.11192  0.55905  0.19678  1.0000 0.8477521791
Zn  Zn2       1.0  0.14182  0.60940  0.05936  1.0000 0.8477521791
Zn  Zn3       1.0  0.12500  0.11093  0.06431  1.0000 0.8378861601
Zn  Zn4       1.0  0.09540  0.05726  0.20198  1.0000 0.8477521791
Zn  Zn5       1.0  0.88808  0.44095  0.80322  1.0000 0.8477521791
Zn  Zn6       1.0  0.85818  0.39060  0.94064  1.0000 0.8477521791
Zn  Zn7       1.0  0.87500  0.88907  0.93569  1.0000 0.8378861601
Zn  Zn8       1.0  0.90460  0.94274  0.79802  1.0000 0.8477521791
H   H1        1.0  0.13550  0.92200  0.03390  1.0000 0.1291482248
H   H2        1.0  0.11220  0.31270  0.04340  1.0000 0.1206547746
H   H3        1.0  0.11050  0.85640  0.21860  1.0000 0.1291482248
H   H4        1.0  0.10050  0.74770  0.22230  1.0000 0.1206547746
H   H5        1.0  0.11190  0.24490  0.22870  1.0000 0.1206547746
H   H6        1.0  0.12390  0.42070  0.03950  1.0000 0.1206547746
H   H7        1.0  0.12500  0.81490  0.03800  1.0000 0.1291482248
H   H8        1.0  0.13250  0.35220  0.22340  1.0000 0.1206547746
H   H9        1.0  0.19560  0.77220  0.84210  1.0000 0.1291482248
H   H10       1.0  0.22040  0.57740  0.85870  1.0000 0.1397074608
H   H11       1.0  0.18910  0.55050  0.96270  1.0000 0.1206547746
H   H12       1.0  0.15900  0.74000  0.94810  1.0000 0.1206547746
H   H13       1.0  0.73260  0.53080  0.21250  1.0000 0.1291482248
H   H14       1.0  0.71590  0.14960  0.04290  1.0000 0.1206547746
H   H15       1.0  0.73560  0.64680  0.03660  1.0000 0.1206547746
H   H16       1.0  0.52180  0.52320  0.21680  1.0000 0.1206547746
H   H17       1.0  0.52800  0.63890  0.03600  1.0000 0.1291482248
H   H18       1.0  0.71210  0.02990  0.22040  1.0000 0.1206547746
H   H19       1.0  0.93010  0.94340  0.42470  1.0000 0.1291482248
H   H20       1.0  0.25810  0.60910  0.75570  1.0000 0.1291482248
H   H21       1.0  0.93220  0.02880  0.32970  1.0000 0.1206547746
H   H22       1.0  0.25270  0.93660  0.27100  1.0000 0.1206547746
H   H23       1.0  0.27540  0.77130  0.45540  1.0000 0.1397074608
H   H24       1.0  0.25660  0.84580  0.36380  1.0000 0.1397074608
H   H25       1.0  0.50500  0.13920  0.04630  1.0000 0.1291482248
H   H26       1.0  0.51220  0.01320  0.21970  1.0000 0.1206547746
H   H27       1.0  0.91730  0.74290  0.63880  1.0000 0.1490223342
H   H28       1.0  0.99250  0.67120  0.63610  1.0000 0.1397074608
H   H29       1.0  0.05370  0.71280  0.66360  1.0000 0.1397074608
H   H30       1.0  0.29650  0.85560  0.60330  1.0000 0.1397074608
H   H31       1.0  0.39200  0.80120  0.57840  1.0000 0.1490223342
H   H32       1.0  0.24480  0.81700  0.56920  1.0000 0.1291482248
H   H33       1.0  0.19840  0.28170  0.85380  1.0000 0.1291482248
H   H34       1.0  0.23700  0.09060  0.86040  1.0000 0.1397074608
H   H35       1.0  0.95210  0.46330  0.42140  1.0000 0.1397074608
H   H36       1.0  0.95540  0.54450  0.32400  1.0000 0.1206547746
H   H37       1.0  0.29330  0.36940  0.36540  1.0000 0.1397074608
H   H38       1.0  0.27640  0.44980  0.27310  1.0000 0.1291482248
H   H39       1.0  0.30750  0.29590  0.45810  1.0000 0.1397074608
H   H40       1.0  0.14270  0.24480  0.95830  1.0000 0.1206547746
H   H41       1.0  0.18100  0.05830  0.96550  1.0000 0.1206547746
H   H42       1.0  0.94450  0.26570  0.64190  1.0000 0.1490223342
H   H43       1.0  0.07970  0.23620  0.66800  1.0000 0.1397074608
H   H44       1.0  0.02090  0.19370  0.64050  1.0000 0.1490223342
H   H45       1.0  0.27490  0.12720  0.75740  1.0000 0.1291482248
H   H46       1.0  0.32850  0.37550  0.61570  1.0000 0.1490223342
H   H47       1.0  0.28090  0.33990  0.57760  1.0000 0.1291482248
H   H48       1.0  0.42600  0.32160  0.59100  1.0000 0.1578464339
H   H49       1.0  0.86450  0.07800  0.96610  1.0000 0.1291482248
H   H50       1.0  0.88780  0.68730  0.95660  1.0000 0.1206547746
H   H51       1.0  0.88950  0.14360  0.78140  1.0000 0.1291482248
H   H52       1.0  0.89950  0.25230  0.77770  1.0000 0.1206547746
H   H53       1.0  0.88810  0.75510  0.77130  1.0000 0.1206547746
H   H54       1.0  0.87610  0.57930  0.96050  1.0000 0.1206547746
H   H55       1.0  0.87500  0.18510  0.96200  1.0000 0.1291482248
H   H56       1.0  0.86750  0.64780  0.77660  1.0000 0.1206547746
H   H57       1.0  0.80440  0.22780  0.15790  1.0000 0.1291482248
H   H58       1.0  0.77960  0.42260  0.14130  1.0000 0.1397074608
H   H59       1.0  0.81090  0.44950  0.03730  1.0000 0.1206547746
H   H60       1.0  0.84100  0.26000  0.05190  1.0000 0.1206547746
H   H61       1.0  0.26740  0.46920  0.78750  1.0000 0.1291482248
H   H62       1.0  0.28410  0.85040  0.95710  1.0000 0.1206547746
H   H63       1.0  0.26440  0.35320  0.96340  1.0000 0.1206547746
H   H64       1.0  0.47820  0.47680  0.78320  1.0000 0.1206547746
H   H65       1.0  0.47200  0.36110  0.96400  1.0000 0.1291482248
H   H66       1.0  0.28790  0.97010  0.77960  1.0000 0.1206547746
H   H67       1.0  0.06990  0.05660  0.57530  1.0000 0.1291482248
H   H68       1.0  0.74190  0.39090  0.24430  1.0000 0.1291482248
H   H69       1.0  0.06780  0.97120  0.67030  1.0000 0.1206547746
H   H70       1.0  0.74730  0.06340  0.72900  1.0000 0.1206547746
H   H71       1.0  0.72460  0.22870  0.54460  1.0000 0.1397074608
H   H72       1.0  0.74340  0.15420  0.63620  1.0000 0.1397074608
H   H73       1.0  0.49500  0.86080  0.95370  1.0000 0.1291482248
H   H74       1.0  0.48780  0.98680  0.78030  1.0000 0.1206547746
H   H75       1.0  0.08270  0.25710  0.36120  1.0000 0.1490223342
H   H76       1.0  0.00750  0.32880  0.36390  1.0000 0.1397074608
H   H77       1.0  0.94630  0.28720  0.33640  1.0000 0.1397074608
H   H78       1.0  0.70350  0.14440  0.39670  1.0000 0.1397074608
H   H79       1.0  0.60800  0.19880  0.42160  1.0000 0.1490223342
H   H80       1.0  0.75520  0.18300  0.43080  1.0000 0.1291482248
H   H81       1.0  0.80160  0.71830  0.14620  1.0000 0.1291482248
H   H82       1.0  0.76300  0.90940  0.13960  1.0000 0.1397074608
H   H83       1.0  0.04790  0.53670  0.57860  1.0000 0.1397074608
H   H84       1.0  0.04460  0.45550  0.67600  1.0000 0.1206547746
H   H85       1.0  0.70670  0.63060  0.63460  1.0000 0.1397074608
H   H86       1.0  0.72360  0.55020  0.72690  1.0000 0.1291482248
H   H87       1.0  0.69250  0.70410  0.54190  1.0000 0.1397074608
H   H88       1.0  0.85730  0.75520  0.04170  1.0000 0.1206547746
H   H89       1.0  0.81900  0.94170  0.03450  1.0000 0.1206547746
H   H90       1.0  0.05550  0.73430  0.35810  1.0000 0.1490223342
H   H91       1.0  0.92030  0.76380  0.33200  1.0000 0.1397074608
H   H92       1.0  0.97910  0.80630  0.35950  1.0000 0.1490223342
H   H93       1.0  0.72510  0.87280  0.24260  1.0000 0.1291482248
H   H94       1.0  0.67150  0.62450  0.38430  1.0000 0.1490223342
H   H95       1.0  0.71910  0.66010  0.42240  1.0000 0.1291482248
H   H96       1.0  0.57400  0.67840  0.40900  1.0000 0.1578464339
C   C1        1.0  0.12910  0.88640  0.07230  1.0000 -0.1111048788
C   C2        1.0  0.11550  0.32060  0.07980  1.0000 -0.1111048788
C   C3        1.0  0.11440  0.84760  0.18190  1.0000 -0.1170173531
C   C4        1.0  0.10870  0.78320  0.18410  1.0000 -0.1111048788
C   C5        1.0  0.11650  0.28050  0.19020  1.0000 -0.1170173531
C   C6        1.0  0.75290  0.58960  0.12550  1.0000 -0.029153111
C   C7        1.0  0.50380  0.57880  0.12640  1.0000 -0.0186751676
C   C8        1.0  0.12420  0.38450  0.07770  1.0000 -0.1111048788
C   C9        1.0  0.12330  0.82290  0.07490  1.0000 -0.1012573657
C   C10       1.0  0.12820  0.34430  0.18710  1.0000 -0.1111048788
C   C11       1.0  0.11050  0.70190  0.13200  1.0000 0.5813454444
C   C12       1.0  0.35020  0.07280  0.13300  1.0000 0.5935638601
C   C13       1.0  0.14110  0.46660  0.12660  1.0000 0.5813454444
C   C14       1.0  0.48320  0.07800  0.13490  1.0000 -0.0186751676
C   C15       1.0  0.73450  0.09170  0.13470  1.0000 -0.0186751676
C   C16       1.0  0.87100  0.09590  0.13400  1.0000 0.5737421269
C   C17       1.0  0.10040  0.19870  0.13950  1.0000 0.5813454444
C   C18       1.0  0.21710  0.67770  0.83920  1.0000 0.1291482248
C   C19       1.0  0.36900  0.57460  0.12770  1.0000 0.5953264887
C   C20       1.0  0.13350  0.39650  0.13060  1.0000 -0.0186751676
C   C21       1.0  0.19550  0.72600  0.86650  1.0000 -0.1886878965
C   C22       1.0  0.12630  0.96920  0.12380  1.0000 0.5813454444
C   C23       1.0  0.23810  0.69740  0.77020  1.0000 -0.0186751676
C   C24       1.0  0.88760  0.59590  0.12450  1.0000 0.5813454444
C   C25       1.0  0.12560  0.89810  0.12620  1.0000 -0.0103953687
C   C26       1.0  0.11150  0.26890  0.13610  1.0000 -0.0186751676
C   C27       1.0  0.21080  0.61150  0.87600  1.0000 -0.1800935643
C   C28       1.0  0.19040  0.59640  0.93780  1.0000 0.0913518587
C   C29       1.0  0.17360  0.70640  0.92980  1.0000 0.0976434479
C   C30       1.0  0.68980  0.55350  0.17670  1.0000 -0.1012573657
C   C31       1.0  0.31320  0.65520  0.63030  1.0000 -0.0440554173
C   C32       1.0  0.28200  0.75640  0.65840  1.0000 0.0607042019
C   C33       1.0  0.67320  0.12400  0.07980  1.0000 -0.1170173531
C   C34       1.0  0.69170  0.62130  0.07310  1.0000 -0.1111048788
C   C35       1.0  0.56480  0.54780  0.17940  1.0000 -0.1012573657
C   C36       1.0  0.56870  0.61670  0.07250  1.0000 -0.1111048788
C   C37       1.0  0.67130  0.05260  0.18390  1.0000 -0.1012573657
C   C38       1.0  0.99780  0.94050  0.39390  1.0000 -0.2121442068
C   C39       1.0  0.25930  0.65620  0.73760  1.0000 -0.2121442068
C   C40       1.0  0.00070  0.99150  0.33660  1.0000 0.0976434479
C   C41       1.0  0.09480  0.88620  0.40470  1.0000 0.1291482248
C   C42       1.0  0.11510  0.77120  0.12930  1.0000 -0.029153111
C   C43       1.0  0.18560  0.93810  0.30230  1.0000 0.0816630194
C   C44       1.0  0.33650  0.62350  0.54250  1.0000 0.3269609416
C   C45       1.0  0.27910  0.67110  0.57210  1.0000 -0.1111048788
C   C46       1.0  0.28360  0.68960  0.67370  1.0000 0.0051154232
C   C47       1.0  0.19990  0.77700  0.48140  1.0000 -0.2121442068
C   C48       1.0  0.18960  0.88380  0.35810  1.0000 -0.1800935643
C   C49       1.0  0.39830  0.58560  0.64570  1.0000 0.3460340554
C   C50       1.0  0.09990  0.82930  0.46340  1.0000 -0.0186751676
C   C51       1.0  0.54770  0.11670  0.08220  1.0000 -0.1170173531
C   C52       1.0  0.44070  0.57400  0.58460  1.0000 0.2550468499
C   C53       1.0  0.55000  0.04380  0.18420  1.0000 -0.1012573657
C   C54       1.0  0.00110  0.71650  0.63250  1.0000 -0.4591256475
C   C55       1.0  0.06150  0.75070  0.57090  1.0000 0.0397210827
C   C56       1.0  0.30600  0.81260  0.59670  1.0000 -0.4591256475
C   C57       1.0  0.17930  0.73190  0.54290  1.0000 0.0397210827
C   C58       1.0  0.19370  0.23530  0.87520  1.0000 -0.1886878965
C   C59       1.0  0.25430  0.21160  0.77800  1.0000 -0.0103953687
C   C60       1.0  0.21630  0.12380  0.87930  1.0000 -0.1886878965
C   C61       1.0  0.21750  0.19170  0.84370  1.0000 0.1291482248
C   C62       1.0  0.02150  0.45930  0.39180  1.0000 -0.2121442068
C   C63       1.0  0.02290  0.50680  0.33280  1.0000 0.0913518587
C   C64       1.0  0.22080  0.40430  0.35830  1.0000 -0.1681752523
C   C65       1.0  0.12080  0.40670  0.40660  1.0000 0.1397074608
C   C66       1.0  0.20900  0.45190  0.30410  1.0000 0.0698024722
C   C67       1.0  0.23180  0.30100  0.48410  1.0000 -0.1976976639
C   C68       1.0  0.13150  0.35190  0.46740  1.0000 -0.029153111
C   C69       1.0  0.16280  0.21270  0.93820  1.0000 0.0976434479
C   C70       1.0  0.18480  0.10450  0.94260  1.0000 0.0976434479
C   C71       1.0  0.21010  0.25560  0.54560  1.0000 0.0154014522
C   C72       1.0  0.09250  0.27350  0.57400  1.0000 0.0397210827
C   C73       1.0  0.42440  0.10800  0.64750  1.0000 0.358294254
C   C74       1.0  0.33790  0.17730  0.63370  1.0000 -0.060696142
C   C75       1.0  0.02880  0.23930  0.63660  1.0000 -0.4591256475
C   C76       1.0  0.36720  0.14710  0.54520  1.0000 0.3354554827
C   C77       1.0  0.46480  0.09780  0.58430  1.0000 0.242374813
C   C78       1.0  0.27780  0.17410  0.74180  1.0000 -0.2121442068
C   C79       1.0  0.30760  0.27680  0.66680  1.0000 0.0607042019
C   C80       1.0  0.30270  0.19700  0.57550  1.0000 -0.0811471065
C   C81       1.0  0.33850  0.33350  0.60740  1.0000 -0.4701791947
C   C82       1.0  0.30740  0.20990  0.67820  1.0000 0.0154014522
C   C83       1.0  0.87090  0.11360  0.92770  1.0000 -0.1111048788
C   C84       1.0  0.88450  0.67940  0.92020  1.0000 -0.1111048788
C   C85       1.0  0.88560  0.15240  0.81810  1.0000 -0.1170173531
C   C86       1.0  0.89130  0.21680  0.81590  1.0000 -0.1111048788
C   C87       1.0  0.88350  0.71950  0.80980  1.0000 -0.1170173531
C   C88       1.0  0.24710  0.41040  0.87450  1.0000 -0.029153111
C   C89       1.0  0.49620  0.42120  0.87360  1.0000 -0.0186751676
C   C90       1.0  0.87580  0.61550  0.92230  1.0000 -0.1111048788
C   C91       1.0  0.87670  0.17710  0.92510  1.0000 -0.1012573657
C   C92       1.0  0.87180  0.65570  0.81290  1.0000 -0.1111048788
C   C93       1.0  0.88950  0.29810  0.86800  1.0000 0.5813454444
C   C94       1.0  0.64980  0.92720  0.86700  1.0000 0.5935638601
C   C95       1.0  0.85890  0.53340  0.87340  1.0000 0.5813454444
C   C96       1.0  0.51680  0.92200  0.86510  1.0000 -0.0186751676
C   C97       1.0  0.26550  0.90830  0.86530  1.0000 -0.0186751676
C   C98       1.0  0.12900  0.90410  0.86600  1.0000 0.5737421269
C   C99       1.0  0.89960  0.80130  0.86050  1.0000 0.5813454444
C   C100      1.0  0.78290  0.32230  0.16080  1.0000 0.1291482248
C   C101      1.0  0.63100  0.42540  0.87230  1.0000 0.5953264887
C   C102      1.0  0.86650  0.60350  0.86940  1.0000 -0.0186751676
C   C103      1.0  0.80450  0.27400  0.13350  1.0000 -0.1886878965
C   C104      1.0  0.87370  0.03080  0.87620  1.0000 0.5813454444
C   C105      1.0  0.76190  0.30260  0.22980  1.0000 -0.0186751676
C   C106      1.0  0.11240  0.40410  0.87550  1.0000 0.5813454444
C   C107      1.0  0.87440  0.10190  0.87380  1.0000 -0.0103953687
C   C108      1.0  0.88850  0.73110  0.86390  1.0000 -0.0186751676
C   C109      1.0  0.78920  0.38850  0.12400  1.0000 -0.1800935643
C   C110      1.0  0.80960  0.40360  0.06220  1.0000 0.0913518587
C   C111      1.0  0.82640  0.29360  0.07020  1.0000 0.0976434479
C   C112      1.0  0.31020  0.44650  0.82330  1.0000 -0.1012573657
C   C113      1.0  0.68680  0.34480  0.36970  1.0000 -0.0440554173
C   C114      1.0  0.71800  0.24360  0.34160  1.0000 0.0607042019
C   C115      1.0  0.32680  0.87600  0.92020  1.0000 -0.1170173531
C   C116      1.0  0.30830  0.37870  0.92690  1.0000 -0.1111048788
C   C117      1.0  0.43520  0.45220  0.82060  1.0000 -0.1012573657
C   C118      1.0  0.43130  0.38330  0.92750  1.0000 -0.1111048788
C   C119      1.0  0.32870  0.94740  0.81610  1.0000 -0.1012573657
C   C120      1.0  0.00220  0.05950  0.60610  1.0000 -0.2121442068
C   C121      1.0  0.74070  0.34380  0.26240  1.0000 -0.2121442068
C   C122      1.0  0.99930  0.00850  0.66340  1.0000 0.0976434479
C   C123      1.0  0.90520  0.11380  0.59530  1.0000 0.1291482248
C   C124      1.0  0.88490  0.22880  0.87070  1.0000 -0.029153111
C   C125      1.0  0.81440  0.06190  0.69770  1.0000 0.0816630194
C   C126      1.0  0.66350  0.37650  0.45750  1.0000 0.3269609416
C   C127      1.0  0.72090  0.32890  0.42790  1.0000 -0.1111048788
C   C128      1.0  0.71640  0.31040  0.32630  1.0000 0.0051154232
C   C129      1.0  0.80010  0.22300  0.51860  1.0000 -0.2121442068
C   C130      1.0  0.81040  0.11620  0.64190  1.0000 -0.1800935643
C   C131      1.0  0.60170  0.41440  0.35430  1.0000 0.3460340554
C   C132      1.0  0.90010  0.17070  0.53660  1.0000 -0.0186751676
C   C133      1.0  0.45230  0.88330  0.91780  1.0000 -0.1170173531
C   C134      1.0  0.55930  0.42600  0.41540  1.0000 0.254629677
C   C135      1.0  0.45000  0.95620  0.81580  1.0000 -0.1012573657
C   C136      1.0  0.99890  0.28350  0.36750  1.0000 -0.4591256475
C   C137      1.0  0.93850  0.24930  0.42910  1.0000 0.0397210827
C   C138      1.0  0.69400  0.18740  0.40330  1.0000 -0.4591256475
C   C139      1.0  0.82070  0.26810  0.45710  1.0000 0.0397210827
C   C140      1.0  0.80630  0.76470  0.12480  1.0000 -0.1886878965
C   C141      1.0  0.74570  0.78840  0.22200  1.0000 -0.0103953687
C   C142      1.0  0.78370  0.87620  0.12070  1.0000 -0.1886878965
C   C143      1.0  0.78250  0.80830  0.15630  1.0000 0.1291482248
C   C144      1.0  0.97850  0.54070  0.60820  1.0000 -0.2121442068
C   C145      1.0  0.97710  0.49320  0.66720  1.0000 0.0913518587
C   C146      1.0  0.77920  0.59570  0.64170  1.0000 -0.1681752523
C   C147      1.0  0.87920  0.59330  0.59340  1.0000 0.1397074608
C   C148      1.0  0.79100  0.54810  0.69590  1.0000 0.0698024722
C   C149      1.0  0.76820  0.69900  0.51590  1.0000 -0.1976976639
C   C150      1.0  0.86850  0.64810  0.53260  1.0000 -0.029153111
C   C151      1.0  0.83720  0.78730  0.06180  1.0000 0.0976434479
C   C152      1.0  0.81520  0.89550  0.05740  1.0000 0.0976434479
C   C153      1.0  0.78990  0.74440  0.45440  1.0000 0.0154014522
C   C154      1.0  0.90750  0.72650  0.42600  1.0000 0.0397210827
C   C155      1.0  0.57560  0.89200  0.35250  1.0000 0.358294254
C   C156      1.0  0.66210  0.82270  0.36630  1.0000 -0.060696142
C   C157      1.0  0.97120  0.76070  0.36340  1.0000 -0.4591256475
C   C158      1.0  0.63280  0.85290  0.45480  1.0000 0.3354554827
C   C159      1.0  0.53520  0.90220  0.41570  1.0000 0.242374813
C   C160      1.0  0.72220  0.82590  0.25820  1.0000 -0.2121442068
C   C161      1.0  0.69240  0.72320  0.33320  1.0000 0.0607042019
C   C162      1.0  0.69730  0.80300  0.42450  1.0000 -0.0811471065
C   C163      1.0  0.66150  0.66650  0.39260  1.0000 -0.4701791947
C   C164      1.0  0.69260  0.79010  0.32180  1.0000 0.0154014522
S   S1        1.0  0.97860  0.82146  0.52142  1.0000 0.0976434479
S   S2        1.0  0.24910  0.77922  0.72431  1.0000 0.0816630194
S   S3        1.0  0.26390  0.29631  0.73368  1.0000 0.0607042019
S   S4        1.0  0.00750  0.34529  0.52446  1.0000 0.0816630194
S   S5        1.0  0.02140  0.17854  0.47858  1.0000 0.0976434479
S   S6        1.0  0.75090  0.22078  0.27569  1.0000 0.0816630194
S   S7        1.0  0.73610  0.70369  0.26632  1.0000 0.0607042019
S   S8        1.0  0.99250  0.65471  0.47554  1.0000 0.0913518587
N   N1        1.0  0.17210  0.64130  0.96630  1.0000 -0.2218493541
N   N2        1.0  0.09070  0.99260  0.29090  1.0000 -0.2297252959
N   N3        1.0  0.16010  0.14780  0.97190  1.0000 -0.2218493541
N   N4        1.0  0.11130  0.50270  0.28860  1.0000 -0.2121442068
N   N5        1.0  0.82790  0.35870  0.03370  1.0000 -0.2218493541
N   N6        1.0  0.90930  0.00740  0.70910  1.0000 -0.2297252959
N   N7        1.0  0.83990  0.85220  0.02810  1.0000 -0.2218493541
N   N8        1.0  0.88870  0.49730  0.71140  1.0000 -0.2121442068
O   O1        1.0  0.14120  0.51160  0.07510  1.0000 -0.5393054491
O   O2        1.0  0.12980  0.69170  0.08110  1.0000 -0.5588250106
O   O3        1.0  0.10590  0.19140  0.08900  1.0000 -0.5494070457
O   O4        1.0  0.08810  0.65860  0.18330  1.0000 -0.5393054491
O   O5        1.0  0.13700  0.01410  0.07220  1.0000 -0.5393054491
O   O6        1.0  0.14620  0.47340  0.17640  1.0000 -0.5494070457
O   O7        1.0  0.08780  0.15430  0.19140  1.0000 -0.5317636277
O   O8        1.0  0.32770  0.58870  0.07610  1.0000 -0.5494070457
O   O9        1.0  0.94980  0.62080  0.07370  1.0000 -0.5393054491
O   O10       1.0  0.11790  0.97620  0.17450  1.0000 -0.5494070457
O   O11       1.0  0.28770  0.05190  0.18560  1.0000 -0.5494070457
O   O12       1.0  0.30260  0.55930  0.17850  1.0000 -0.5494070457
O   O13       1.0  0.93140  0.11660  0.08220  1.0000 -0.5393054491
O   O14       1.0  0.91230  0.07730  0.18390  1.0000 -0.5247307962
O   O15       1.0  0.30930  0.09200  0.08240  1.0000 -0.5317636277
O   O16       1.0  0.93260  0.57120  0.17620  1.0000 -0.5588250106
O   O17       1.0  0.85880  0.48840  0.92490  1.0000 -0.5393054491
O   O18       1.0  0.87020  0.30830  0.91890  1.0000 -0.5588250106
O   O19       1.0  0.89410  0.80860  0.91100  1.0000 -0.5494070457
O   O20       1.0  0.91190  0.34140  0.81670  1.0000 -0.5393054491
O   O21       1.0  0.86300  0.98590  0.92780  1.0000 -0.5393054491
O   O22       1.0  0.85380  0.52660  0.82360  1.0000 -0.5494070457
O   O23       1.0  0.91220  0.84570  0.80860  1.0000 -0.5393054491
O   O24       1.0  0.67230  0.41130  0.92390  1.0000 -0.5494070457
O   O25       1.0  0.05020  0.37920  0.92630  1.0000 -0.5494070457
O   O26       1.0  0.88210  0.02380  0.82550  1.0000 -0.5494070457
O   O27       1.0  0.71230  0.94810  0.81440  1.0000 -0.5494070457
O   O28       1.0  0.69740  0.44070  0.82150  1.0000 -0.5494070457
O   O29       1.0  0.06860  0.88340  0.91780  1.0000 -0.5393054491
O   O30       1.0  0.08770  0.92270  0.81610  1.0000 -0.5247307962
O   O31       1.0  0.69070  0.90800  0.91760  1.0000 -0.5317636277
O   O32       1.0  0.06740  0.42880  0.82380  1.0000 -0.5588250106
F   F1        1.0  0.55060  0.59730  0.56230  1.0000 -0.1598000398
F   F2        1.0  0.38750  0.65050  0.48470  1.0000 -0.1681752523
F   F3        1.0  0.46210  0.50980  0.58680  1.0000 -0.1503523236
F   F4        1.0  0.49100  0.57610  0.67800  1.0000 -0.1598000398
F   F5        1.0  0.25630  0.58440  0.54030  1.0000 -0.1800935643
F   F6        1.0  0.32560  0.53640  0.68060  1.0000 -0.1886878965
F   F7        1.0  0.58080  0.12370  0.56390  1.0000 -0.1976976639
F   F8        1.0  0.51920  0.10000  0.68060  1.0000 -0.1598000398
F   F9        1.0  0.41210  0.17310  0.48720  1.0000 -0.1503523236
F   F10       1.0  0.35720  0.05910  0.68260  1.0000 -0.1598000398
F   F11       1.0  0.49310  0.03520  0.58770  1.0000 -0.1319185739
F   F12       1.0  0.28160  0.10870  0.54510  1.0000 -0.1800935643
F   F13       1.0  0.44940  0.40270  0.43770  1.0000 -0.1598000398
F   F14       1.0  0.61250  0.34950  0.51530  1.0000 -0.1681752523
F   F15       1.0  0.53790  0.49020  0.41320  1.0000 -0.1503523236
F   F16       1.0  0.50900  0.42390  0.32200  1.0000 -0.1598000398
F   F17       1.0  0.74370  0.41560  0.45970  1.0000 -0.1800935643
F   F18       1.0  0.67440  0.46360  0.31940  1.0000 -0.1886878965
F   F19       1.0  0.41920  0.87630  0.43610  1.0000 -0.1976976639
F   F20       1.0  0.48080  0.90000  0.31940  1.0000 -0.1598000398
F   F21       1.0  0.58790  0.82690  0.51280  1.0000 -0.1503523236
F   F22       1.0  0.64280  0.94090  0.31740  1.0000 -0.1598000398
F   F23       1.0  0.50690  0.96480  0.41230  1.0000 -0.1319185739
F   F24       1.0  0.71840  0.89130  0.45490  1.0000 -0.1800935643
