# DDEC6 charges by PACMAN v1.1 (https://github.com/mtap-research/PACMAN-charge/)
data_2017[Cu][nbo]3[ASR]4
_chemical_formula_sum              "Cu6 H36 C78 O24"
_cell_length_a       16.9426
_cell_length_b       16.9426
_cell_length_c       16.9426
_cell_angle_alpha    66.1699
_cell_angle_beta     66.1699
_cell_angle_gamma    66.1699

_symmetry_space_group_name_H-M    "P 1"
_symmetry_Int_Tables_number       1

loop_
  _symmetry_equiv_pos_as_xyz
  'x, y, z'

loop_
  _atom_site_type_symbol
  _atom_site_label
  _atom_site_symmetry_multiplicity
  _atom_site_fract_x
  _atom_site_fract_y
  _atom_site_fract_z
  _atom_site_occupancy
  _atom_site_charge
Cu  Cu1       1.0  0.42466  0.99626  0.99626  1.0000 0.8612716572
Cu  Cu2       1.0  0.99626  0.99626  0.42466  1.0000 0.8612716572
Cu  Cu3       1.0  0.99626  0.42466  0.99626  1.0000 0.8612716572
Cu  Cu4       1.0  0.57534  0.00374  0.00374  1.0000 0.8612716572
Cu  Cu5       1.0  0.00374  0.57534  0.00374  1.0000 0.8612716572
Cu  Cu6       1.0  0.00374  0.00374  0.57534  1.0000 0.8612716572
H   H1        1.0  0.50670  0.94840  0.29190  1.0000 0.1318453812
H   H2        1.0  0.94840  0.29190  0.50670  1.0000 0.1318453812
H   H3        1.0  0.29190  0.50670  0.94840  1.0000 0.1318453812
H   H4        1.0  0.49330  0.70810  0.05160  1.0000 0.1318453812
H   H5        1.0  0.05160  0.49330  0.70810  1.0000 0.1318453812
H   H6        1.0  0.70810  0.05160  0.49330  1.0000 0.1318453812
H   H7        1.0  0.49330  0.05160  0.70810  1.0000 0.1318453812
H   H8        1.0  0.05160  0.70810  0.49330  1.0000 0.1318453812
H   H9        1.0  0.70810  0.49330  0.05160  1.0000 0.1318453812
H   H10       1.0  0.50670  0.29190  0.94840  1.0000 0.1318453812
H   H11       1.0  0.94840  0.50670  0.29190  1.0000 0.1318453812
H   H12       1.0  0.29190  0.94840  0.50670  1.0000 0.1318453812
H   H13       1.0  0.27030  0.97270  0.27030  1.0000 0.1425461845
H   H14       1.0  0.49920  0.79900  0.49920  1.0000 0.1181119309
H   H15       1.0  0.39595  0.10060  0.39595  1.0000 0.1116979924
H   H16       1.0  0.40825  0.22090  0.40825  1.0000 0.1116979924
H   H17       1.0  0.97270  0.27030  0.27030  1.0000 0.1425461845
H   H18       1.0  0.79900  0.49920  0.49920  1.0000 0.1181119309
H   H19       1.0  0.10060  0.39595  0.39595  1.0000 0.1116979924
H   H20       1.0  0.22090  0.40825  0.40825  1.0000 0.1116979924
H   H21       1.0  0.27030  0.27030  0.97270  1.0000 0.1425461845
H   H22       1.0  0.49920  0.49920  0.79900  1.0000 0.1181119309
H   H23       1.0  0.39595  0.39595  0.10060  1.0000 0.1116979924
H   H24       1.0  0.40825  0.40825  0.22090  1.0000 0.1116979924
H   H25       1.0  0.72970  0.72970  0.02730  1.0000 0.1425461845
H   H26       1.0  0.50080  0.50080  0.20100  1.0000 0.1181119309
H   H27       1.0  0.60405  0.60405  0.89940  1.0000 0.1116979924
H   H28       1.0  0.59175  0.59175  0.77910  1.0000 0.1116979924
H   H29       1.0  0.02730  0.72970  0.72970  1.0000 0.1425461845
H   H30       1.0  0.20100  0.50080  0.50080  1.0000 0.1181119309
H   H31       1.0  0.89940  0.60405  0.60405  1.0000 0.1116979924
H   H32       1.0  0.77910  0.59175  0.59175  1.0000 0.1116979924
H   H33       1.0  0.72970  0.02730  0.72970  1.0000 0.1425461845
H   H34       1.0  0.50080  0.20100  0.50080  1.0000 0.1181119309
H   H35       1.0  0.60405  0.89940  0.60405  1.0000 0.1116979924
H   H36       1.0  0.59175  0.77910  0.59175  1.0000 0.1116979924
C   C1        1.0  0.43445  0.97675  0.16555  1.0000 0.578898348
C   C2        1.0  0.39593  0.96403  0.26503  1.0000 -0.020814428
C   C3        1.0  0.44580  0.95190  0.31810  1.0000 -0.1395791544
C   C4        1.0  0.97675  0.16555  0.43445  1.0000 0.578898348
C   C5        1.0  0.96403  0.26503  0.39593  1.0000 -0.020814428
C   C6        1.0  0.95190  0.31810  0.44580  1.0000 -0.1395791544
C   C7        1.0  0.16555  0.43445  0.97675  1.0000 0.578898348
C   C8        1.0  0.26503  0.39593  0.96403  1.0000 -0.020814428
C   C9        1.0  0.31810  0.44580  0.95190  1.0000 -0.1395791544
C   C10       1.0  0.56555  0.83445  0.02325  1.0000 0.578898348
C   C11       1.0  0.60407  0.73497  0.03597  1.0000 -0.020814428
C   C12       1.0  0.55420  0.68190  0.04810  1.0000 -0.1395791544
C   C13       1.0  0.02325  0.56555  0.83445  1.0000 0.578898348
C   C14       1.0  0.03597  0.60407  0.73497  1.0000 -0.020814428
C   C15       1.0  0.04810  0.55420  0.68190  1.0000 -0.1395791544
C   C16       1.0  0.83445  0.02325  0.56555  1.0000 0.578898348
C   C17       1.0  0.73497  0.03597  0.60407  1.0000 -0.020814428
C   C18       1.0  0.68190  0.04810  0.55420  1.0000 -0.1395791544
C   C19       1.0  0.56555  0.02325  0.83445  1.0000 0.578898348
C   C20       1.0  0.60407  0.03597  0.73497  1.0000 -0.020814428
C   C21       1.0  0.55420  0.04810  0.68190  1.0000 -0.1395791544
C   C22       1.0  0.02325  0.83445  0.56555  1.0000 0.578898348
C   C23       1.0  0.03597  0.73497  0.60407  1.0000 -0.020814428
C   C24       1.0  0.04810  0.68190  0.55420  1.0000 -0.1395791544
C   C25       1.0  0.83445  0.56555  0.02325  1.0000 0.578898348
C   C26       1.0  0.73497  0.60407  0.03597  1.0000 -0.020814428
C   C27       1.0  0.68190  0.55420  0.04810  1.0000 -0.1395791544
C   C28       1.0  0.43445  0.16555  0.97675  1.0000 0.578898348
C   C29       1.0  0.39593  0.26503  0.96403  1.0000 -0.020814428
C   C30       1.0  0.44580  0.31810  0.95190  1.0000 -0.1395791544
C   C31       1.0  0.97675  0.43445  0.16555  1.0000 0.578898348
C   C32       1.0  0.96403  0.39593  0.26503  1.0000 -0.020814428
C   C33       1.0  0.95190  0.44580  0.31810  1.0000 -0.1395791544
C   C34       1.0  0.16555  0.97675  0.43445  1.0000 0.578898348
C   C35       1.0  0.26503  0.96403  0.39593  1.0000 -0.020814428
C   C36       1.0  0.31810  0.95190  0.44580  1.0000 -0.1395791544
C   C37       1.0  0.30441  0.96781  0.30441  1.0000 -0.1119419608
C   C38       1.0  0.40880  0.94470  0.40880  1.0000 0.0599685387
C   C39       1.0  0.46395  0.93550  0.46395  1.0000 0.0139060267
C   C40       1.0  0.50540  0.84810  0.50540  1.0000 -0.1583331325
C   C41       1.0  0.47364  0.00549  0.47364  1.0000 0.0385776983
C   C42       1.0  0.43080  0.09240  0.43080  1.0000 -0.1583331325
C   C43       1.0  0.43785  0.16350  0.43785  1.0000 -0.0940669252
C   C44       1.0  0.96781  0.30441  0.30441  1.0000 -0.1119419608
C   C45       1.0  0.94470  0.40880  0.40880  1.0000 0.0599685387
C   C46       1.0  0.93550  0.46395  0.46395  1.0000 0.0139060267
C   C47       1.0  0.84810  0.50540  0.50540  1.0000 -0.1583331325
C   C48       1.0  0.00549  0.47364  0.47364  1.0000 0.0385776983
C   C49       1.0  0.09240  0.43080  0.43080  1.0000 -0.1583331325
C   C50       1.0  0.16350  0.43785  0.43785  1.0000 -0.0940669252
C   C51       1.0  0.30441  0.30441  0.96781  1.0000 -0.1119419608
C   C52       1.0  0.40880  0.40880  0.94470  1.0000 0.0599685387
C   C53       1.0  0.46395  0.46395  0.93550  1.0000 0.0139060267
C   C54       1.0  0.50540  0.50540  0.84810  1.0000 -0.1583331325
C   C55       1.0  0.47364  0.47364  0.00549  1.0000 0.0385776983
C   C56       1.0  0.43080  0.43080  0.09240  1.0000 -0.1583331325
C   C57       1.0  0.43785  0.43785  0.16350  1.0000 -0.0940669252
C   C58       1.0  0.69559  0.69559  0.03219  1.0000 -0.1119419608
C   C59       1.0  0.59120  0.59120  0.05530  1.0000 0.0599685387
C   C60       1.0  0.53605  0.53605  0.06450  1.0000 0.0139060267
C   C61       1.0  0.49460  0.49460  0.15190  1.0000 -0.1583331325
C   C62       1.0  0.52636  0.52636  0.99451  1.0000 0.0385776983
C   C63       1.0  0.56920  0.56920  0.90760  1.0000 -0.1583331325
C   C64       1.0  0.56215  0.56215  0.83650  1.0000 -0.0940669252
C   C65       1.0  0.03219  0.69559  0.69559  1.0000 -0.1119419608
C   C66       1.0  0.05530  0.59120  0.59120  1.0000 0.0599685387
C   C67       1.0  0.06450  0.53605  0.53605  1.0000 0.0139060267
C   C68       1.0  0.15190  0.49460  0.49460  1.0000 -0.1583331325
C   C69       1.0  0.99451  0.52636  0.52636  1.0000 0.0385776983
C   C70       1.0  0.90760  0.56920  0.56920  1.0000 -0.1583331325
C   C71       1.0  0.83650  0.56215  0.56215  1.0000 -0.0940669252
C   C72       1.0  0.69559  0.03219  0.69559  1.0000 -0.1119419608
C   C73       1.0  0.59120  0.05530  0.59120  1.0000 0.0599685387
C   C74       1.0  0.53605  0.06450  0.53605  1.0000 0.0139060267
C   C75       1.0  0.49460  0.15190  0.49460  1.0000 -0.1583331325
C   C76       1.0  0.52636  0.99451  0.52636  1.0000 0.0385776983
C   C77       1.0  0.56920  0.90760  0.56920  1.0000 -0.1583331325
C   C78       1.0  0.56215  0.83650  0.56215  1.0000 -0.0940669252
O   O1        1.0  0.38726  0.97766  0.12516  1.0000 -0.5014860331
O   O2        1.0  0.51296  0.98336  0.13266  1.0000 -0.5164155487
O   O3        1.0  0.97766  0.12516  0.38726  1.0000 -0.5014860331
O   O4        1.0  0.98336  0.13266  0.51296  1.0000 -0.5164155487
O   O5        1.0  0.12516  0.38726  0.97766  1.0000 -0.5014860331
O   O6        1.0  0.13266  0.51296  0.98336  1.0000 -0.5164155487
O   O7        1.0  0.61274  0.87484  0.02234  1.0000 -0.5014860331
O   O8        1.0  0.48704  0.86734  0.01664  1.0000 -0.5164155487
O   O9        1.0  0.02234  0.61274  0.87484  1.0000 -0.5014860331
O   O10       1.0  0.01664  0.48704  0.86734  1.0000 -0.5164155487
O   O11       1.0  0.87484  0.02234  0.61274  1.0000 -0.5014860331
O   O12       1.0  0.86734  0.01664  0.48704  1.0000 -0.5164155487
O   O13       1.0  0.61274  0.02234  0.87484  1.0000 -0.5014860331
O   O14       1.0  0.48704  0.01664  0.86734  1.0000 -0.5164155487
O   O15       1.0  0.02234  0.87484  0.61274  1.0000 -0.5014860331
O   O16       1.0  0.01664  0.86734  0.48704  1.0000 -0.5164155487
O   O17       1.0  0.87484  0.61274  0.02234  1.0000 -0.5014860331
O   O18       1.0  0.86734  0.48704  0.01664  1.0000 -0.5164155487
O   O19       1.0  0.38726  0.12516  0.97766  1.0000 -0.5014860331
O   O20       1.0  0.51296  0.13266  0.98336  1.0000 -0.5164155487
O   O21       1.0  0.97766  0.38726  0.12516  1.0000 -0.5014860331
O   O22       1.0  0.98336  0.51296  0.13266  1.0000 -0.5164155487
O   O23       1.0  0.12516  0.97766  0.38726  1.0000 -0.5014860331
O   O24       1.0  0.13266  0.98336  0.51296  1.0000 -0.5164155487
