# DDEC6 charges by PACMAN v1.1 (https://github.com/mtap-research/PACMAN-charge/)
data_2017[Ag][hcb]2[ASR]13
_chemical_formula_sum              "Ag2 H42 C54 N6 O12"
_cell_length_a       8.7104
_cell_length_b       13.4891
_cell_length_c       15.0462
_cell_angle_alpha    104.031
_cell_angle_beta     92.472
_cell_angle_gamma    103.393

_symmetry_space_group_name_H-M    "P 1"
_symmetry_Int_Tables_number       1

loop_
  _symmetry_equiv_pos_as_xyz
  'x, y, z'

loop_
  _atom_site_type_symbol
  _atom_site_label
  _atom_site_symmetry_multiplicity
  _atom_site_fract_x
  _atom_site_fract_y
  _atom_site_fract_z
  _atom_site_occupancy
  _atom_site_charge
Ag  Ag1       1.0  0.22628  0.51931  0.68548  1.0000 0.2338875333
Ag  Ag2       1.0  0.77372  0.48069  0.31452  1.0000 0.2338875333
H   H1        1.0  0.15450  0.64340  0.53680  1.0000 0.0917178409
H   H2        1.0  0.04200  0.77590  0.51670  1.0000 0.1296841278
H   H3        1.0  0.93290  0.81710  0.77920  1.0000 0.1392019005
H   H4        1.0  0.04080  0.68030  0.79130  1.0000 0.1005908319
H   H5        1.0  0.69360  0.96790  0.56580  1.0000 0.108155605
H   H6        1.0  0.85690  0.04950  0.56010  1.0000 0.108155605
H   H7        1.0  0.25150  0.49290  0.46700  1.0000 0.0917178409
H   H8        1.0  0.33550  0.39270  0.34030  1.0000 0.1179223889
H   H9        1.0  0.49990  0.23790  0.50790  1.0000 0.1296841278
H   H10       1.0  0.41030  0.34280  0.62900  1.0000 0.0917178409
H   H11       1.0  0.45580  0.03790  0.23370  1.0000 0.1179223889
H   H12       1.0  0.62640  0.11460  0.23270  1.0000 0.1005908319
H   H13       1.0  0.24140  0.61440  0.90260  1.0000 0.1005908319
H   H14       1.0  0.42290  0.68120  0.03380  1.0000 0.1392019005
H   H15       1.0  0.73810  0.55060  0.89190  1.0000 0.1296841278
H   H16       1.0  0.55160  0.49110  0.76350  1.0000 0.0917178409
H   H17       1.0  0.80510  0.71410  0.23790  1.0000 0.0917178409
H   H18       1.0  0.90580  0.79850  0.19000  1.0000 0.1179223889
H   H19       1.0  0.84250  0.82760  0.38940  1.0000 0.108155605
H   H20       1.0  0.64620  0.07650  0.44590  1.0000 0.1179223889
H   H21       1.0  0.64810  0.91580  0.18130  1.0000 0.1179223889
H   H22       1.0  0.84550  0.35660  0.46320  1.0000 0.0917178409
H   H23       1.0  0.95800  0.22410  0.48330  1.0000 0.1296841278
H   H24       1.0  0.06710  0.18290  0.22080  1.0000 0.1392019005
H   H25       1.0  0.95920  0.31970  0.20870  1.0000 0.1005908319
H   H26       1.0  0.30640  0.03210  0.43420  1.0000 0.108155605
H   H27       1.0  0.14310  0.95050  0.43990  1.0000 0.108155605
H   H28       1.0  0.74850  0.50710  0.53300  1.0000 0.0917178409
H   H29       1.0  0.66450  0.60730  0.65970  1.0000 0.1179223889
H   H30       1.0  0.50010  0.76210  0.49210  1.0000 0.1296841278
H   H31       1.0  0.58970  0.65720  0.37100  1.0000 0.0917178409
H   H32       1.0  0.54420  0.96210  0.76630  1.0000 0.1179223889
H   H33       1.0  0.37360  0.88540  0.76730  1.0000 0.1005908319
H   H34       1.0  0.75860  0.38560  0.09740  1.0000 0.1005908319
H   H35       1.0  0.57710  0.31880  0.96620  1.0000 0.1392019005
H   H36       1.0  0.26190  0.44940  0.10810  1.0000 0.1296841278
H   H37       1.0  0.44840  0.50890  0.23650  1.0000 0.0917178409
H   H38       1.0  0.19490  0.28590  0.76210  1.0000 0.0917178409
H   H39       1.0  0.09420  0.20150  0.81000  1.0000 0.1179223889
H   H40       1.0  0.15750  0.17240  0.61060  1.0000 0.108155605
H   H41       1.0  0.35380  0.92350  0.55410  1.0000 0.1179223889
H   H42       1.0  0.35190  0.08420  0.81870  1.0000 0.1179223889
C   C1        1.0  0.10780  0.67900  0.58670  1.0000 0.0336471596
C   C2        1.0  0.04230  0.75840  0.57420  1.0000 -0.1683379931
C   C3        1.0  0.97660  0.81240  0.64640  1.0000 -0.0044624371
C   C4        1.0  0.97760  0.78170  0.72810  1.0000 -0.1683379931
C   C5        1.0  0.04280  0.70070  0.73510  1.0000 0.0437515278
C   C6        1.0  0.89800  0.89720  0.63880  1.0000 0.4912292535
C   C7        1.0  0.79200  0.97630  0.53490  1.0000 -0.0818439065
C   C8        1.0  0.30180  0.43990  0.47510  1.0000 0.0437515278
C   C9        1.0  0.35150  0.38050  0.39920  1.0000 -0.1805376722
C   C10       1.0  0.42500  0.30300  0.40960  1.0000 -0.0052628783
C   C11       1.0  0.44810  0.28950  0.49760  1.0000 -0.1805376722
C   C12       1.0  0.39420  0.35260  0.56920  1.0000 0.046945467
C   C13       1.0  0.46880  0.23360  0.32640  1.0000 0.4802278677
C   C14       1.0  0.55610  0.07930  0.27190  1.0000 -0.0818439065
C   C15       1.0  0.34450  0.60240  0.89970  1.0000 0.0733989054
C   C16       1.0  0.45200  0.64190  0.97860  1.0000 -0.1683379931
C   C17       1.0  0.59920  0.62360  0.97590  1.0000 0.0112373164
C   C18       1.0  0.63710  0.56590  0.89550  1.0000 -0.1683379931
C   C19       1.0  0.52460  0.53040  0.81940  1.0000 0.046945467
C   C20       1.0  0.72110  0.66060  0.05810  1.0000 0.4912292535
C   C21       1.0  0.79950  0.77130  0.20820  1.0000 -0.088477624
C   C22       1.0  0.75090  0.85840  0.27450  1.0000 0.108155605
C   C23       1.0  0.78980  0.87340  0.36870  1.0000 -0.2352575859
C   C24       1.0  0.75140  0.95530  0.43250  1.0000 0.1005908319
C   C25       1.0  0.67360  0.02120  0.40230  1.0000 -0.2302799246
C   C26       1.0  0.63480  0.00750  0.30870  1.0000 0.1005908319
C   C27       1.0  0.67420  0.92560  0.24530  1.0000 -0.2083170614
C   C28       1.0  0.89220  0.32100  0.41330  1.0000 0.0336471596
C   C29       1.0  0.95770  0.24160  0.42580  1.0000 -0.1683379931
C   C30       1.0  0.02340  0.18760  0.35360  1.0000 -0.0044624371
C   C31       1.0  0.02240  0.21830  0.27190  1.0000 -0.1683379931
C   C32       1.0  0.95720  0.29930  0.26490  1.0000 0.0437515278
C   C33       1.0  0.10200  0.10280  0.36120  1.0000 0.4912292535
C   C34       1.0  0.20800  0.02370  0.46510  1.0000 -0.0818439065
C   C35       1.0  0.69820  0.56010  0.52490  1.0000 0.046945467
C   C36       1.0  0.64850  0.61950  0.60080  1.0000 -0.1805376722
C   C37       1.0  0.57500  0.69700  0.59040  1.0000 -0.0052628783
C   C38       1.0  0.55190  0.71050  0.50240  1.0000 -0.1805376722
C   C39       1.0  0.60580  0.64740  0.43080  1.0000 0.046945467
C   C40       1.0  0.53120  0.76640  0.67360  1.0000 0.4802278677
C   C41       1.0  0.44390  0.92070  0.72810  1.0000 -0.0818439065
C   C42       1.0  0.65550  0.39760  0.10030  1.0000 0.0733989054
C   C43       1.0  0.54800  0.35810  0.02140  1.0000 -0.1636294624
C   C44       1.0  0.40080  0.37640  0.02410  1.0000 0.0112373164
C   C45       1.0  0.36290  0.43410  0.10450  1.0000 -0.1683379931
C   C46       1.0  0.47540  0.46960  0.18060  1.0000 0.046945467
C   C47       1.0  0.27890  0.33940  0.94190  1.0000 0.4912292535
C   C48       1.0  0.20050  0.22870  0.79180  1.0000 -0.088477624
C   C49       1.0  0.24910  0.14160  0.72550  1.0000 0.108155605
C   C50       1.0  0.21020  0.12660  0.63130  1.0000 -0.2352575859
C   C51       1.0  0.24860  0.04470  0.56750  1.0000 0.1005908319
C   C52       1.0  0.32640  0.97880  0.59770  1.0000 -0.2302799246
C   C53       1.0  0.36520  0.99250  0.69130  1.0000 0.1005908319
C   C54       1.0  0.32580  0.07440  0.75470  1.0000 -0.2083170614
N   N1        1.0  0.10990  0.64850  0.66560  1.0000 -0.2021674043
N   N2        1.0  0.32090  0.42650  0.56030  1.0000 -0.2021674043
N   N3        1.0  0.38070  0.54860  0.82050  1.0000 -0.1899837082
N   N4        1.0  0.89010  0.35150  0.33440  1.0000 -0.2021674043
N   N5        1.0  0.67910  0.57350  0.43970  1.0000 -0.2021674043
N   N6        1.0  0.61930  0.45140  0.17950  1.0000 -0.1899837082
O   O1        1.0  0.85220  0.95180  0.70220  1.0000 -0.4535081735
O   O2        1.0  0.87930  0.90260  0.55126  1.0000 -0.2302799246
O   O3        1.0  0.45180  0.24400  0.25000  1.0000 -0.4743464044
O   O4        1.0  0.52390  0.15730  0.34810  1.0000 -0.221695607
O   O5        1.0  0.84060  0.63190  0.06120  1.0000 -0.4743464044
O   O6        1.0  0.68360  0.73060  0.12730  1.0000 -0.2302799246
O   O7        1.0  0.14780  0.04820  0.29780  1.0000 -0.4535081735
O   O8        1.0  0.12070  0.09740  0.44874  1.0000 -0.2302799246
O   O9        1.0  0.54820  0.75600  0.75000  1.0000 -0.4743464044
O   O10       1.0  0.47610  0.84270  0.65190  1.0000 -0.221695607
O   O11       1.0  0.15940  0.36810  0.93880  1.0000 -0.4743464044
O   O12       1.0  0.31640  0.26940  0.87270  1.0000 -0.2352575859
