# DDEC6 charges by PACMAN v1.1 (https://github.com/mtap-research/PACMAN-charge/)
data_2017[Co][sql]2[ASR]9
_chemical_formula_sum              "Co2 H40 C54 N4 O16"
_cell_length_a       10.1883
_cell_length_b       11.308
_cell_length_c       14.5703
_cell_angle_alpha    99.895
_cell_angle_beta     106.032
_cell_angle_gamma    104.609

_symmetry_space_group_name_H-M    "P 1"
_symmetry_Int_Tables_number       1

loop_
  _symmetry_equiv_pos_as_xyz
  'x, y, z'

loop_
  _atom_site_type_symbol
  _atom_site_label
  _atom_site_symmetry_multiplicity
  _atom_site_fract_x
  _atom_site_fract_y
  _atom_site_fract_z
  _atom_site_occupancy
  _atom_site_charge
Co  Co1       1.0  0.35047  0.60812  0.44934  1.0000 0.8495037361
Co  Co2       1.0  0.64953  0.39188  0.55066  1.0000 0.8495037361
H   H1        1.0  0.23890  0.89800  0.67040  1.0000 0.3680188759
H   H2        1.0  0.09150  0.39590  0.53600  1.0000 0.130334675
H   H3        1.0  0.31380  0.15890  0.60740  1.0000 0.1209779733
H   H4        1.0  0.91730  0.09740  0.62700  1.0000 0.1209779733
H   H5        1.0  0.90390  0.07900  0.08980  1.0000 0.1209779733
H   H6        1.0  0.08530  0.37380  0.35370  1.0000 0.1098135167
H   H7        1.0  0.55630  0.63110  0.65150  1.0000 0.1098135167
H   H8        1.0  0.93970  0.23810  0.20460  1.0000 0.130334675
H   H9        1.0  0.08920  0.32860  0.83010  1.0000 0.1209779733
H   H10       1.0  0.08590  0.46820  0.85360  1.0000 0.130334675
H   H11       1.0  0.94500  0.35780  0.78840  1.0000 0.1209779733
H   H12       1.0  0.45790  0.89880  0.54140  1.0000 0.1098135167
H   H13       1.0  0.82970  0.16970  0.78710  1.0000 0.130334675
H   H14       1.0  0.19240  0.42900  0.07660  1.0000 0.130334675
H   H15       1.0  0.33180  0.55700  0.22970  1.0000 0.1209779733
H   H16       1.0  0.61440  0.05050  0.68050  1.0000 0.1379288985
H   H17       1.0  0.87250  0.88370  0.07900  1.0000 0.1209779733
H   H18       1.0  0.72980  0.76890  0.03750  1.0000 0.130334675
H   H19       1.0  0.72700  0.90440  0.08170  1.0000 0.130334675
H   H20       1.0  0.71410  0.77390  0.79490  1.0000 0.1209779733
H   H21       1.0  0.76110  0.10200  0.32960  1.0000 0.3680188759
H   H22       1.0  0.90850  0.60410  0.46400  1.0000 0.130334675
H   H23       1.0  0.68620  0.84110  0.39260  1.0000 0.1209779733
H   H24       1.0  0.08270  0.90260  0.37300  1.0000 0.1209779733
H   H25       1.0  0.09610  0.92100  0.91020  1.0000 0.1209779733
H   H26       1.0  0.91470  0.62620  0.64630  1.0000 0.1098135167
H   H27       1.0  0.44370  0.36890  0.34850  1.0000 0.1098135167
H   H28       1.0  0.06030  0.76190  0.79540  1.0000 0.130334675
H   H29       1.0  0.91080  0.67140  0.16990  1.0000 0.1209779733
H   H30       1.0  0.91410  0.53180  0.14640  1.0000 0.130334675
H   H31       1.0  0.05500  0.64220  0.21160  1.0000 0.1209779733
H   H32       1.0  0.54210  0.10120  0.45860  1.0000 0.1098135167
H   H33       1.0  0.17030  0.83030  0.21290  1.0000 0.130334675
H   H34       1.0  0.80760  0.57100  0.92340  1.0000 0.130334675
H   H35       1.0  0.66820  0.44300  0.77030  1.0000 0.1209779733
H   H36       1.0  0.38560  0.94950  0.31950  1.0000 0.1379288985
H   H37       1.0  0.12750  0.11630  0.92100  1.0000 0.1209779733
H   H38       1.0  0.27020  0.23110  0.96250  1.0000 0.130334675
H   H39       1.0  0.27300  0.09560  0.91830  1.0000 0.130334675
H   H40       1.0  0.28590  0.22610  0.20510  1.0000 0.1209779733
C   C1        1.0  0.85190  0.29326  0.56947  1.0000 0.5307451888
C   C2        1.0  0.35465  0.37670  0.55760  1.0000 0.5775941415
C   C3        1.0  0.09888  0.32521  0.55893  1.0000 -0.1134043829
C   C4        1.0  0.98393  0.25210  0.58017  1.0000 -0.0172765119
C   C5        1.0  0.22470  0.29259  0.57204  1.0000 -0.0172765119
C   C6        1.0  0.23171  0.18304  0.60128  1.0000 -0.1266835229
C   C7        1.0  0.99334  0.14526  0.61194  1.0000 -0.1237463214
C   C8        1.0  0.89000  0.09756  0.02877  1.0000 -0.270718594
C   C9        1.0  0.11630  0.10884  0.62150  1.0000 -0.0363859543
C   C10       1.0  0.10760  0.38515  0.29745  1.0000 0.0932717762
C   C11       1.0  0.56680  0.71650  0.65782  1.0000 0.0966382726
C   C12       1.0  0.93300  0.24531  0.93261  1.0000 0.1911467715
C   C13       1.0  0.68230  0.93101  0.75756  1.0000 0.1379288985
C   C14       1.0  0.01920  0.30280  0.20745  1.0000 -0.2003447161
C   C15       1.0  0.80530  0.00243  0.94441  1.0000 0.1980681671
C   C16       1.0  0.77830  0.02784  0.85096  1.0000 -0.0172765119
C   C17       1.0  0.95540  0.22050  0.02597  1.0000 -0.0172765119
C   C18       1.0  0.03250  0.38120  0.84350  1.0000 -0.2325411634
C   C19       1.0  0.04760  0.31509  0.12104  1.0000 0.1209779733
C   C20       1.0  0.50960  0.87325  0.59339  1.0000 0.0811372391
C   C21       1.0  0.84500  0.15070  0.84807  1.0000 -0.270718594
C   C22       1.0  0.12650  0.99430  0.65791  1.0000 0.5307451888
C   C23       1.0  0.16810  0.41470  0.13171  1.0000 -0.2003447161
C   C24       1.0  0.25100  0.49207  0.22448  1.0000 0.0730542644
C   C25       1.0  0.60360  0.96561  0.67734  1.0000 -0.1913287835
C   C26       1.0  0.77070  0.85770  0.04466  1.0000 -0.2399418549
C   C27       1.0  0.66270  0.80240  0.74483  1.0000 -0.1913287835
C   C28       1.0  0.14810  0.70674  0.43053  1.0000 0.5307451888
C   C29       1.0  0.64535  0.62330  0.44240  1.0000 0.5775941415
C   C30       1.0  0.90112  0.67479  0.44107  1.0000 -0.1134043829
C   C31       1.0  0.01607  0.74790  0.41983  1.0000 -0.0172765119
C   C32       1.0  0.77530  0.70741  0.42796  1.0000 -0.0172765119
C   C33       1.0  0.76829  0.81696  0.39872  1.0000 -0.1266835229
C   C34       1.0  0.00666  0.85474  0.38806  1.0000 -0.1237463214
C   C35       1.0  0.11000  0.90244  0.97123  1.0000 -0.270718594
C   C36       1.0  0.88370  0.89116  0.37850  1.0000 -0.0363859543
C   C37       1.0  0.89240  0.61485  0.70255  1.0000 0.0932717762
C   C38       1.0  0.43320  0.28350  0.34218  1.0000 0.0966382726
C   C39       1.0  0.06700  0.75469  0.06739  1.0000 0.1911467715
C   C40       1.0  0.31770  0.06899  0.24244  1.0000 0.1379288985
C   C41       1.0  0.98080  0.69720  0.79255  1.0000 -0.2003447161
C   C42       1.0  0.19470  0.99757  0.05559  1.0000 0.1980681671
C   C43       1.0  0.22170  0.97216  0.14904  1.0000 -0.0172765119
C   C44       1.0  0.04460  0.77950  0.97403  1.0000 -0.0172765119
C   C45       1.0  0.96750  0.61880  0.15650  1.0000 -0.2325411634
C   C46       1.0  0.95240  0.68491  0.87896  1.0000 0.1209779733
C   C47       1.0  0.49040  0.12675  0.40661  1.0000 0.0811372391
C   C48       1.0  0.15500  0.84930  0.15193  1.0000 -0.270718594
C   C49       1.0  0.87350  0.00570  0.34209  1.0000 0.5307451888
C   C50       1.0  0.83190  0.58530  0.86829  1.0000 -0.2003447161
C   C51       1.0  0.74900  0.50793  0.77552  1.0000 0.0730542644
C   C52       1.0  0.39640  0.03439  0.32266  1.0000 -0.1913287835
C   C53       1.0  0.22930  0.14230  0.95534  1.0000 -0.2399418549
C   C54       1.0  0.33730  0.19760  0.25517  1.0000 -0.1913287835
N   N1        1.0  0.22353  0.48040  0.30767  1.0000 -0.2486793072
N   N2        1.0  0.48865  0.74902  0.58270  1.0000 -0.2486793072
N   N3        1.0  0.77647  0.51960  0.69233  1.0000 -0.2486793072
N   N4        1.0  0.51135  0.25098  0.41730  1.0000 -0.2486793072
O   O1        1.0  0.99910  0.36503  0.92917  1.0000 -0.1413419144
O   O2        1.0  0.74506  0.88157  0.94906  1.0000 -0.1473693298
O   O3        1.0  0.83913  0.37787  0.52465  1.0000 -0.5311462776
O   O4        1.0  0.75935  0.24653  0.60641  1.0000 -0.5705278115
O   O5        1.0  0.04650  0.94440  0.69650  1.0000 -0.4962282376
O   O6        1.0  0.23490  0.95800  0.64636  1.0000 -0.4364049332
O   O7        1.0  0.33613  0.45641  0.51074  1.0000 -0.549371262
O   O8        1.0  0.47396  0.36015  0.59612  1.0000 -0.5600246386
O   O9        1.0  0.00090  0.63497  0.07083  1.0000 -0.1413419144
O   O10       1.0  0.25494  0.11843  0.05094  1.0000 -0.1473693298
O   O11       1.0  0.16087  0.62213  0.47535  1.0000 -0.5311462776
O   O12       1.0  0.24065  0.75347  0.39359  1.0000 -0.5705278115
O   O13       1.0  0.95350  0.05560  0.30350  1.0000 -0.4962282376
O   O14       1.0  0.76510  0.04200  0.35364  1.0000 -0.4364049332
O   O15       1.0  0.66387  0.54359  0.48926  1.0000 -0.549371262
O   O16       1.0  0.52604  0.63985  0.40388  1.0000 -0.5600246386
