# DDEC6 charges by PACMAN v1.1 (https://github.com/mtap-research/PACMAN-charge/)
data_2017[Cu][sql]2[ASR]5
_chemical_formula_sum              "Cu4 H96 C96 N48"
_cell_length_a       16.048
_cell_length_b       11.871
_cell_length_c       24.39
_cell_angle_alpha    90
_cell_angle_beta     96.325
_cell_angle_gamma    90

_symmetry_space_group_name_H-M    "P 1"
_symmetry_Int_Tables_number       1

loop_
  _symmetry_equiv_pos_as_xyz
  'x, y, z'

loop_
  _atom_site_type_symbol
  _atom_site_label
  _atom_site_symmetry_multiplicity
  _atom_site_fract_x
  _atom_site_fract_y
  _atom_site_fract_z
  _atom_site_occupancy
  _atom_site_charge
Cu  Cu1       1.0  0.26930  0.77552  0.25170  1.0000 0.2499743336
Cu  Cu2       1.0  0.23070  0.27552  0.74830  1.0000 0.2499743336
Cu  Cu3       1.0  0.73070  0.22448  0.74830  1.0000 0.2499743336
Cu  Cu4       1.0  0.76930  0.72448  0.25170  1.0000 0.2499743336
H   H1        1.0  0.34600  0.59130  0.33520  1.0000 0.1190862476
H   H2        1.0  0.37920  0.91250  0.35150  1.0000 0.1020704256
H   H3        1.0  0.43860  0.52260  0.42060  1.0000 0.1190862476
H   H4        1.0  0.51370  0.60630  0.43410  1.0000 0.1277675608
H   H5        1.0  0.51350  0.73470  0.51460  1.0000 0.1190862476
H   H6        1.0  0.48200  0.75200  0.60380  1.0000 0.1190862476
H   H7        1.0  0.30400  0.51720  0.57490  1.0000 0.1190862476
H   H8        1.0  0.33610  0.49910  0.48600  1.0000 0.1190862476
H   H9        1.0  0.31500  0.69380  0.65550  1.0000 0.1190862476
H   H10       1.0  0.41040  0.69420  0.67780  1.0000 0.1277675608
H   H11       1.0  0.41820  0.31940  0.72540  1.0000 0.1020704256
H   H12       1.0  0.23530  0.53140  0.69660  1.0000 0.1083453202
H   H13       1.0  0.15810  0.61860  0.16500  1.0000 0.1020704256
H   H14       1.0  0.17930  0.94300  0.16200  1.0000 0.1190862476
H   H15       1.0  0.00080  0.89400  0.07380  1.0000 0.1190862476
H   H16       1.0  0.06870  0.98880  0.08290  1.0000 0.1190862476
H   H17       1.0  0.00080  0.76750  0.99290  1.0000 0.1277675608
H   H18       1.0  0.01600  0.76510  0.90030  1.0000 0.1190862476
H   H19       1.0  0.18000  0.01840  0.92190  1.0000 0.1190862476
H   H20       1.0  0.16220  0.02290  0.01400  1.0000 0.1190862476
H   H21       1.0  0.04950  0.86290  0.82120  1.0000 0.1277675608
H   H22       1.0  0.14710  0.84760  0.83060  1.0000 0.1277675608
H   H23       1.0  0.06120  0.24820  0.80180  1.0000 0.1083453202
H   H24       1.0  0.21900  0.00840  0.78260  1.0000 0.1083453202
H   H25       1.0  0.15400  0.09130  0.66480  1.0000 0.1190862476
H   H26       1.0  0.12080  0.41250  0.64850  1.0000 0.1020704256
H   H27       1.0  0.06140  0.02260  0.57940  1.0000 0.1190862476
H   H28       1.0  0.98630  0.10630  0.56590  1.0000 0.1277675608
H   H29       1.0  0.98650  0.23470  0.48540  1.0000 0.1190862476
H   H30       1.0  0.01800  0.25200  0.39620  1.0000 0.1190862476
H   H31       1.0  0.19600  0.01720  0.42510  1.0000 0.1190862476
H   H32       1.0  0.16390  0.99910  0.51400  1.0000 0.1190862476
H   H33       1.0  0.18500  0.19380  0.34450  1.0000 0.1190862476
H   H34       1.0  0.08960  0.19420  0.32220  1.0000 0.1277675608
H   H35       1.0  0.08180  0.81940  0.27460  1.0000 0.1020704256
H   H36       1.0  0.26470  0.03140  0.30340  1.0000 0.1083453202
H   H37       1.0  0.34190  0.11860  0.83500  1.0000 0.1020704256
H   H38       1.0  0.32070  0.44300  0.83800  1.0000 0.1190862476
H   H39       1.0  0.49920  0.39400  0.92620  1.0000 0.1277675608
H   H40       1.0  0.43130  0.48880  0.91710  1.0000 0.1190862476
H   H41       1.0  0.49920  0.26750  0.00710  1.0000 0.1277675608
H   H42       1.0  0.48400  0.26510  0.09970  1.0000 0.1190862476
H   H43       1.0  0.32000  0.51840  0.07810  1.0000 0.1190862476
H   H44       1.0  0.33780  0.52290  0.98600  1.0000 0.1190862476
H   H45       1.0  0.45050  0.36290  0.17880  1.0000 0.1277675608
H   H46       1.0  0.35290  0.34760  0.16940  1.0000 0.1277675608
H   H47       1.0  0.43880  0.74820  0.19820  1.0000 0.1083453202
H   H48       1.0  0.28100  0.50840  0.21740  1.0000 0.1083453202
H   H49       1.0  0.65400  0.40870  0.66480  1.0000 0.1190862476
H   H50       1.0  0.62080  0.08750  0.64850  1.0000 0.1020704256
H   H51       1.0  0.56140  0.47740  0.57940  1.0000 0.1190862476
H   H52       1.0  0.48630  0.39370  0.56590  1.0000 0.1277675608
H   H53       1.0  0.48650  0.26530  0.48540  1.0000 0.1190862476
H   H54       1.0  0.51800  0.24800  0.39620  1.0000 0.1190862476
H   H55       1.0  0.69600  0.48280  0.42510  1.0000 0.1190862476
H   H56       1.0  0.66390  0.50090  0.51400  1.0000 0.1190862476
H   H57       1.0  0.68500  0.30620  0.34450  1.0000 0.1190862476
H   H58       1.0  0.58960  0.30580  0.32220  1.0000 0.1277675608
H   H59       1.0  0.58180  0.68060  0.27460  1.0000 0.1020704256
H   H60       1.0  0.76470  0.46860  0.30340  1.0000 0.1083453202
H   H61       1.0  0.84190  0.38140  0.83500  1.0000 0.1020704256
H   H62       1.0  0.82070  0.05700  0.83800  1.0000 0.1190862476
H   H63       1.0  0.99920  0.10600  0.92620  1.0000 0.1277675608
H   H64       1.0  0.93130  0.01120  0.91710  1.0000 0.1190862476
H   H65       1.0  0.99920  0.23250  0.00710  1.0000 0.1277675608
H   H66       1.0  0.98400  0.23490  0.09970  1.0000 0.1190862476
H   H67       1.0  0.82000  0.98160  0.07810  1.0000 0.1190862476
H   H68       1.0  0.83780  0.97710  0.98600  1.0000 0.1190862476
H   H69       1.0  0.95050  0.13710  0.17880  1.0000 0.1277675608
H   H70       1.0  0.85290  0.15240  0.16940  1.0000 0.1277675608
H   H71       1.0  0.93880  0.75180  0.19820  1.0000 0.1083453202
H   H72       1.0  0.78100  0.99160  0.21740  1.0000 0.1083453202
H   H73       1.0  0.84600  0.90870  0.33520  1.0000 0.1190862476
H   H74       1.0  0.87920  0.58750  0.35150  1.0000 0.1020704256
H   H75       1.0  0.93860  0.97740  0.42060  1.0000 0.1190862476
H   H76       1.0  0.01370  0.89370  0.43410  1.0000 0.1277675608
H   H77       1.0  0.01350  0.76530  0.51460  1.0000 0.1190862476
H   H78       1.0  0.98200  0.74800  0.60380  1.0000 0.1190862476
H   H79       1.0  0.80400  0.98280  0.57490  1.0000 0.1190862476
H   H80       1.0  0.83610  0.00090  0.48600  1.0000 0.1190862476
H   H81       1.0  0.81500  0.80620  0.65550  1.0000 0.1190862476
H   H82       1.0  0.91040  0.80580  0.67780  1.0000 0.1277675608
H   H83       1.0  0.91820  0.18060  0.72540  1.0000 0.1020704256
H   H84       1.0  0.73530  0.96860  0.69660  1.0000 0.1083453202
H   H85       1.0  0.65810  0.88140  0.16500  1.0000 0.1020704256
H   H86       1.0  0.67930  0.55700  0.16200  1.0000 0.1190862476
H   H87       1.0  0.50080  0.60600  0.07380  1.0000 0.1277675608
H   H88       1.0  0.56870  0.51120  0.08290  1.0000 0.1190862476
H   H89       1.0  0.50080  0.73250  0.99290  1.0000 0.1277675608
H   H90       1.0  0.51600  0.73490  0.90030  1.0000 0.1190862476
H   H91       1.0  0.68000  0.48160  0.92190  1.0000 0.1190862476
H   H92       1.0  0.66220  0.47710  0.01400  1.0000 0.1190862476
H   H93       1.0  0.54950  0.63710  0.82120  1.0000 0.1277675608
H   H94       1.0  0.64710  0.65240  0.83060  1.0000 0.1277675608
H   H95       1.0  0.56120  0.25180  0.80180  1.0000 0.1083453202
H   H96       1.0  0.71900  0.49160  0.78260  1.0000 0.1083453202
C   C1        1.0  0.36310  0.66190  0.34857  1.0000 0.0317549407
C   C2        1.0  0.38190  0.83540  0.35832  1.0000 0.1190862476
C   C3        1.0  0.45340  0.59820  0.43330  1.0000 -0.2200676057
C   C4        1.0  0.42900  0.61350  0.49110  1.0000 0.0723559354
C   C5        1.0  0.47160  0.69020  0.52683  1.0000 -0.1631816458
C   C6        1.0  0.45230  0.70110  0.58009  1.0000 -0.1631816458
C   C7        1.0  0.38920  0.63700  0.59882  1.0000 0.0723559354
C   C8        1.0  0.34640  0.56120  0.56289  1.0000 -0.1672277398
C   C9        1.0  0.36580  0.55000  0.50973  1.0000 -0.1672277398
C   C10       1.0  0.36680  0.65140  0.65647  1.0000 -0.2200676057
C   C11       1.0  0.38800  0.38390  0.71422  1.0000 0.0912043833
C   C12       1.0  0.28760  0.49700  0.69903  1.0000 0.007706785
C   C13       1.0  0.15110  0.69350  0.15422  1.0000 0.1083453202
C   C14       1.0  0.16360  0.86910  0.15340  1.0000 0.061158019
C   C15       1.0  0.05950  0.91090  0.07186  1.0000 -0.2200676057
C   C16       1.0  0.07810  0.89820  0.01304  1.0000 0.0723559354
C   C17       1.0  0.03580  0.81960  0.97852  1.0000 -0.1631816458
C   C18       1.0  0.04520  0.81810  0.92304  1.0000 -0.1631816458
C   C19       1.0  0.09745  0.89420  0.90075  1.0000 0.0723559354
C   C20       1.0  0.14242  0.96910  0.93569  1.0000 -0.1672277398
C   C21       1.0  0.13200  0.97110  0.99105  1.0000 -0.1672277398
C   C22       1.0  0.10100  0.89470  0.83935  1.0000 -0.2257512204
C   C23       1.0  0.08680  0.17780  0.80302  1.0000 0.1083453202
C   C24       1.0  0.17344  0.04940  0.79218  1.0000 0.020020314
C   C25       1.0  0.13690  0.16190  0.65143  1.0000 0.0317549407
C   C26       1.0  0.11810  0.33540  0.64168  1.0000 0.1190862476
C   C27       1.0  0.04660  0.09820  0.56670  1.0000 -0.2200676057
C   C28       1.0  0.07100  0.11350  0.50890  1.0000 0.0723559354
C   C29       1.0  0.02840  0.19020  0.47317  1.0000 -0.1631816458
C   C30       1.0  0.04770  0.20110  0.41991  1.0000 -0.1631816458
C   C31       1.0  0.11080  0.13700  0.40118  1.0000 0.0723559354
C   C32       1.0  0.15360  0.06120  0.43711  1.0000 -0.1672277398
C   C33       1.0  0.13420  0.05000  0.49027  1.0000 -0.1672277398
C   C34       1.0  0.13320  0.15140  0.34353  1.0000 -0.2200676057
C   C35       1.0  0.11200  0.88390  0.28578  1.0000 0.0912043833
C   C36       1.0  0.21240  0.99700  0.30097  1.0000 0.007706785
C   C37       1.0  0.34890  0.19350  0.84578  1.0000 0.1083453202
C   C38       1.0  0.33640  0.36910  0.84660  1.0000 0.061158019
C   C39       1.0  0.44050  0.41090  0.92814  1.0000 -0.2200676057
C   C40       1.0  0.42190  0.39820  0.98696  1.0000 0.0723559354
C   C41       1.0  0.46420  0.31960  0.02148  1.0000 -0.1672277398
C   C42       1.0  0.45480  0.31810  0.07696  1.0000 -0.1631816458
C   C43       1.0  0.40255  0.39420  0.09925  1.0000 0.0723559354
C   C44       1.0  0.35758  0.46910  0.06431  1.0000 -0.1672277398
C   C45       1.0  0.36800  0.47110  0.00895  1.0000 -0.1672277398
C   C46       1.0  0.39900  0.39470  0.16065  1.0000 -0.2257512204
C   C47       1.0  0.41320  0.67780  0.19698  1.0000 0.1083453202
C   C48       1.0  0.32656  0.54940  0.20782  1.0000 0.020020314
C   C49       1.0  0.63690  0.33810  0.65143  1.0000 0.0317549407
C   C50       1.0  0.61810  0.16460  0.64168  1.0000 0.1190862476
C   C51       1.0  0.54660  0.40180  0.56670  1.0000 -0.2200676057
C   C52       1.0  0.57100  0.38650  0.50890  1.0000 0.0723559354
C   C53       1.0  0.52840  0.30980  0.47317  1.0000 -0.1631816458
C   C54       1.0  0.54770  0.29890  0.41991  1.0000 -0.1631816458
C   C55       1.0  0.61080  0.36300  0.40118  1.0000 0.0759829924
C   C56       1.0  0.65360  0.43880  0.43711  1.0000 -0.1672277398
C   C57       1.0  0.63420  0.45000  0.49027  1.0000 -0.1672277398
C   C58       1.0  0.63320  0.34860  0.34353  1.0000 -0.2200676057
C   C59       1.0  0.61200  0.61610  0.28578  1.0000 0.0912043833
C   C60       1.0  0.71240  0.50300  0.30097  1.0000 0.007706785
C   C61       1.0  0.84890  0.30650  0.84578  1.0000 0.1083453202
C   C62       1.0  0.83640  0.13090  0.84660  1.0000 0.061158019
C   C63       1.0  0.94050  0.08910  0.92814  1.0000 -0.2200676057
C   C64       1.0  0.92190  0.10180  0.98696  1.0000 0.0723559354
C   C65       1.0  0.96420  0.18040  0.02148  1.0000 -0.1631816458
C   C66       1.0  0.95480  0.18190  0.07696  1.0000 -0.1631816458
C   C67       1.0  0.90255  0.10580  0.09925  1.0000 0.0723559354
C   C68       1.0  0.85758  0.03090  0.06431  1.0000 -0.1672277398
C   C69       1.0  0.86800  0.02890  0.00895  1.0000 -0.1672277398
C   C70       1.0  0.89900  0.10530  0.16065  1.0000 -0.2257512204
C   C71       1.0  0.91320  0.82220  0.19698  1.0000 0.1083453202
C   C72       1.0  0.82656  0.95060  0.20782  1.0000 0.020020314
C   C73       1.0  0.86310  0.83810  0.34857  1.0000 0.0317549407
C   C74       1.0  0.88190  0.66460  0.35832  1.0000 0.1190862476
C   C75       1.0  0.95340  0.90180  0.43330  1.0000 -0.2200676057
C   C76       1.0  0.92900  0.88650  0.49110  1.0000 0.0723559354
C   C77       1.0  0.97160  0.80980  0.52683  1.0000 -0.1631816458
C   C78       1.0  0.95230  0.79890  0.58009  1.0000 -0.1631816458
C   C79       1.0  0.88920  0.86300  0.59882  1.0000 0.0759829924
C   C80       1.0  0.84640  0.93880  0.56289  1.0000 -0.1672277398
C   C81       1.0  0.86580  0.95000  0.50973  1.0000 -0.1672277398
C   C82       1.0  0.86680  0.84860  0.65647  1.0000 -0.2200676057
C   C83       1.0  0.88800  0.11610  0.71422  1.0000 0.0912043833
C   C84       1.0  0.78760  0.00300  0.69903  1.0000 0.007706785
C   C85       1.0  0.65110  0.80650  0.15422  1.0000 0.1083453202
C   C86       1.0  0.66360  0.63090  0.15340  1.0000 0.061158019
C   C87       1.0  0.55950  0.58910  0.07186  1.0000 -0.2200676057
C   C88       1.0  0.57810  0.60180  0.01304  1.0000 0.0723559354
C   C89       1.0  0.53580  0.68040  0.97852  1.0000 -0.1631816458
C   C90       1.0  0.54520  0.68190  0.92304  1.0000 -0.1631816458
C   C91       1.0  0.59745  0.60580  0.90075  1.0000 0.0723559354
C   C92       1.0  0.64242  0.53090  0.93569  1.0000 -0.1672277398
C   C93       1.0  0.63200  0.52890  0.99105  1.0000 -0.1672277398
C   C94       1.0  0.60100  0.60530  0.83935  1.0000 -0.2257512204
C   C95       1.0  0.58680  0.32220  0.80302  1.0000 0.1083453202
C   C96       1.0  0.67344  0.45060  0.79218  1.0000 0.020020314
N   N1        1.0  0.34165  0.75870  0.32409  1.0000 -0.2992308802
N   N2        1.0  0.42520  0.79170  0.40194  1.0000 -0.2585190265
N   N3        1.0  0.41192  0.68000  0.39436  1.0000 0.1607471545
N   N4        1.0  0.35660  0.54310  0.68346  1.0000 0.1403513535
N   N5        1.0  0.42249  0.47160  0.69305  1.0000 -0.2846133849
N   N6        1.0  0.30457  0.39490  0.71853  1.0000 -0.3170392753
N   N7        1.0  0.19167  0.77920  0.18188  1.0000 -0.2992308802
N   N8        1.0  0.10010  0.72530  0.11028  1.0000 -0.2675696156
N   N9        1.0  0.11038  0.83840  0.11122  1.0000 0.1607471545
N   N10       1.0  0.11208  0.00860  0.81824  1.0000 0.1403513535
N   N11       1.0  0.05538  0.09000  0.82514  1.0000 -0.2585190265
N   N12       1.0  0.15996  0.15810  0.78183  1.0000 -0.3170392753
N   N13       1.0  0.15835  0.25870  0.67591  1.0000 -0.2992308802
N   N14       1.0  0.07480  0.29170  0.59806  1.0000 -0.2585190265
N   N15       1.0  0.08808  0.18000  0.60564  1.0000 0.1607471545
N   N16       1.0  0.14340  0.04310  0.31654  1.0000 0.1403513535
N   N17       1.0  0.07751  0.97160  0.30695  1.0000 -0.2846133849
N   N18       1.0  0.19543  0.89490  0.28147  1.0000 -0.3170392753
N   N19       1.0  0.30833  0.27920  0.81812  1.0000 -0.2992308802
N   N20       1.0  0.39990  0.22530  0.88972  1.0000 -0.2675696156
N   N21       1.0  0.38962  0.33840  0.88878  1.0000 0.1607471545
N   N22       1.0  0.38792  0.50860  0.18176  1.0000 0.1277675608
N   N23       1.0  0.44462  0.59000  0.17486  1.0000 -0.2585190265
N   N24       1.0  0.34004  0.65810  0.21817  1.0000 -0.3170392753
N   N25       1.0  0.65835  0.24130  0.67591  1.0000 -0.2992308802
N   N26       1.0  0.57480  0.20830  0.59806  1.0000 -0.2585190265
N   N27       1.0  0.58808  0.32000  0.60564  1.0000 0.1607471545
N   N28       1.0  0.64340  0.45690  0.31654  1.0000 0.1403513535
N   N29       1.0  0.57751  0.52840  0.30695  1.0000 -0.2857822023
N   N30       1.0  0.69543  0.60510  0.28147  1.0000 -0.314052119
N   N31       1.0  0.80833  0.22080  0.81812  1.0000 -0.2992308802
N   N32       1.0  0.89990  0.27470  0.88972  1.0000 -0.2675696156
N   N33       1.0  0.88962  0.16160  0.88878  1.0000 0.1607471545
N   N34       1.0  0.88792  0.99140  0.18176  1.0000 0.1403513535
N   N35       1.0  0.94462  0.91000  0.17486  1.0000 -0.2585190265
N   N36       1.0  0.84004  0.84190  0.21817  1.0000 -0.3170392753
N   N37       1.0  0.84165  0.74130  0.32409  1.0000 -0.2992308802
N   N38       1.0  0.92520  0.70830  0.40194  1.0000 -0.2585190265
N   N39       1.0  0.91192  0.82000  0.39436  1.0000 0.1607471545
N   N40       1.0  0.85660  0.95690  0.68346  1.0000 0.1403513535
N   N41       1.0  0.92249  0.02840  0.69305  1.0000 -0.2857822023
N   N42       1.0  0.80457  0.10510  0.71853  1.0000 -0.314052119
N   N43       1.0  0.69167  0.72080  0.18188  1.0000 -0.2992308802
N   N44       1.0  0.60010  0.77470  0.11028  1.0000 -0.2675696156
N   N45       1.0  0.61038  0.66160  0.11122  1.0000 0.1607471545
N   N46       1.0  0.61208  0.49140  0.81824  1.0000 0.1277675608
N   N47       1.0  0.55538  0.41000  0.82514  1.0000 -0.2585190265
N   N48       1.0  0.65996  0.34190  0.78183  1.0000 -0.3170392753
