# DDEC6 charges by PACMAN v1.1 (https://github.com/mtap-research/PACMAN-charge/)
data_2017[Zn][lvt]3[ASR]1
_chemical_formula_sum              "Zn4 H32 C64 N4 O16"
_cell_length_a       19.3055
_cell_length_b       19.3055
_cell_length_c       19.3055
_cell_angle_alpha    148.703
_cell_angle_beta     110.591
_cell_angle_gamma    78.1007

_symmetry_space_group_name_H-M    "P 1"
_symmetry_Int_Tables_number       1

loop_
  _symmetry_equiv_pos_as_xyz
  'x, y, z'

loop_
  _atom_site_type_symbol
  _atom_site_label
  _atom_site_symmetry_multiplicity
  _atom_site_fract_x
  _atom_site_fract_y
  _atom_site_fract_z
  _atom_site_occupancy
  _atom_site_charge
Zn  Zn1       1.0  0.98408  0.61798  0.63390  1.0000 0.9465090256
Zn  Zn2       1.0  0.51592  0.14982  0.63390  1.0000 0.9465090256
Zn  Zn3       1.0  0.48408  0.85018  0.36610  1.0000 0.9465090256
Zn  Zn4       1.0  0.01592  0.38202  0.36610  1.0000 0.9465090256
H   H1        1.0  0.94580  0.85980  0.64860  1.0000 0.1295048168
H   H2        1.0  0.55420  0.20280  0.91400  1.0000 0.1295048168
H   H3        1.0  0.71120  0.79720  0.35140  1.0000 0.1295048168
H   H4        1.0  0.78880  0.14020  0.08600  1.0000 0.1295048168
H   H5        1.0  0.05420  0.14020  0.35140  1.0000 0.1295048168
H   H6        1.0  0.44580  0.79720  0.08600  1.0000 0.1295048168
H   H7        1.0  0.28880  0.20280  0.64860  1.0000 0.1295048168
H   H8        1.0  0.21120  0.85980  0.91400  1.0000 0.1295048168
H   H9        1.0  0.94640  0.98050  0.65010  1.0000 0.1196016144
H   H10       1.0  0.55360  0.20370  0.03410  1.0000 0.1196016144
H   H11       1.0  0.83040  0.79630  0.34990  1.0000 0.1196016144
H   H12       1.0  0.66960  0.01950  0.96590  1.0000 0.1196016144
H   H13       1.0  0.05360  0.01950  0.34990  1.0000 0.1196016144
H   H14       1.0  0.44640  0.79630  0.96590  1.0000 0.1196016144
H   H15       1.0  0.16960  0.20370  0.65010  1.0000 0.1196016144
H   H16       1.0  0.33040  0.98050  0.03410  1.0000 0.1196016144
H   H17       1.0  0.00970  0.55610  0.30760  1.0000 0.1295048168
H   H18       1.0  0.49030  0.79790  0.54640  1.0000 0.1295048168
H   H19       1.0  0.74850  0.20210  0.69240  1.0000 0.1295048168
H   H20       1.0  0.75150  0.44390  0.45360  1.0000 0.1295048168
H   H21       1.0  0.99030  0.44390  0.69240  1.0000 0.1295048168
H   H22       1.0  0.50970  0.20210  0.45360  1.0000 0.1295048168
H   H23       1.0  0.25150  0.79790  0.30760  1.0000 0.1295048168
H   H24       1.0  0.24850  0.55610  0.54640  1.0000 0.1295048168
H   H25       1.0  0.01520  0.68150  0.31570  1.0000 0.1295048168
H   H26       1.0  0.48480  0.80050  0.66630  1.0000 0.1295048168
H   H27       1.0  0.86580  0.19950  0.68430  1.0000 0.1295048168
H   H28       1.0  0.63420  0.31850  0.33370  1.0000 0.1295048168
H   H29       1.0  0.98480  0.31850  0.68430  1.0000 0.1295048168
H   H30       1.0  0.51520  0.19950  0.33370  1.0000 0.1295048168
H   H31       1.0  0.13420  0.80050  0.31570  1.0000 0.1295048168
H   H32       1.0  0.36580  0.68150  0.66630  1.0000 0.1295048168
C   C1        1.0  0.98017  0.61960  0.48117  1.0000 0.5943158488
C   C2        1.0  0.51983  0.00100  0.63943  1.0000 0.5943158488
C   C3        1.0  0.63843  0.99900  0.51883  1.0000 0.5943158488
C   C4        1.0  0.86157  0.38040  0.36057  1.0000 0.5943158488
C   C5        1.0  0.01983  0.38040  0.51883  1.0000 0.5943158488
C   C6        1.0  0.48017  0.99900  0.36057  1.0000 0.5943158488
C   C7        1.0  0.36157  0.00100  0.48117  1.0000 0.5943158488
C   C8        1.0  0.13843  0.61960  0.63943  1.0000 0.5943158488
C   C9        1.0  0.97839  0.69587  0.47872  1.0000 -0.0394190312
C   C10       1.0  0.52161  0.00033  0.71748  1.0000 -0.0394190312
C   C11       1.0  0.71715  0.99967  0.52128  1.0000 -0.0394190312
C   C12       1.0  0.78285  0.30413  0.28252  1.0000 -0.0394190312
C   C13       1.0  0.02161  0.30413  0.52128  1.0000 -0.0394190312
C   C14       1.0  0.47839  0.99967  0.28252  1.0000 -0.0394190312
C   C15       1.0  0.28285  0.00033  0.47872  1.0000 -0.0394190312
C   C16       1.0  0.21715  0.69587  0.71748  1.0000 -0.0394190312
C   C17       1.0  0.95931  0.82306  0.58065  1.0000 -0.0871439222
C   C18       1.0  0.54069  0.12134  0.86375  1.0000 -0.0871439222
C   C19       1.0  0.74241  0.87866  0.41935  1.0000 -0.0871439222
C   C20       1.0  0.75759  0.17694  0.13625  1.0000 -0.0871439222
C   C21       1.0  0.04069  0.17694  0.41935  1.0000 -0.0871439222
C   C22       1.0  0.45931  0.87866  0.13625  1.0000 -0.0871439222
C   C23       1.0  0.25759  0.12134  0.58065  1.0000 -0.0871439222
C   C24       1.0  0.24241  0.82306  0.86375  1.0000 -0.0871439222
C   C25       1.0  0.96014  0.89583  0.58211  1.0000 -0.1573574324
C   C26       1.0  0.53986  0.12197  0.93569  1.0000 -0.1573574324
C   C27       1.0  0.81372  0.87803  0.41789  1.0000 -0.1573574324
C   C28       1.0  0.68628  0.10417  0.06431  1.0000 -0.1573574324
C   C29       1.0  0.03986  0.10417  0.41789  1.0000 -0.1573574324
C   C30       1.0  0.46014  0.87803  0.06431  1.0000 -0.1573574324
C   C31       1.0  0.18628  0.12197  0.58211  1.0000 -0.1573574324
C   C32       1.0  0.31372  0.89583  0.93569  1.0000 -0.1573574324
C   C33       1.0  0.98123  0.84389  0.48354  1.0000 0.0505676018
C   C34       1.0  0.51877  0.00231  0.86266  1.0000 0.0505676018
C   C35       1.0  0.86035  0.99769  0.51646  1.0000 0.0505676018
C   C36       1.0  0.63965  0.15611  0.13734  1.0000 0.0505676018
C   C37       1.0  0.01877  0.15611  0.51646  1.0000 0.0505676018
C   C38       1.0  0.48123  0.99769  0.13734  1.0000 0.0505676018
C   C39       1.0  0.13965  0.00231  0.48354  1.0000 0.0505676018
C   C40       1.0  0.36035  0.84389  0.86266  1.0000 0.0505676018
C   C41       1.0  0.99801  0.64244  0.37817  1.0000 -0.0871439222
C   C42       1.0  0.50199  0.88016  0.64443  1.0000 -0.0871439222
C   C43       1.0  0.76427  0.11984  0.62183  1.0000 -0.0871439222
C   C44       1.0  0.73573  0.35756  0.35557  1.0000 -0.0871439222
C   C45       1.0  0.00199  0.35756  0.62183  1.0000 -0.0871439222
C   C46       1.0  0.49801  0.11984  0.35557  1.0000 -0.0871439222
C   C47       1.0  0.23573  0.88016  0.37817  1.0000 -0.0871439222
C   C48       1.0  0.26427  0.64244  0.64443  1.0000 -0.0871439222
C   C49       1.0  0.00044  0.71713  0.38211  1.0000 -0.1436633211
C   C50       1.0  0.49956  0.88167  0.71669  1.0000 -0.1436633211
C   C51       1.0  0.83502  0.11833  0.61789  1.0000 -0.1436633211
C   C52       1.0  0.66498  0.28287  0.28331  1.0000 -0.1436633211
C   C53       1.0  0.99956  0.28287  0.61789  1.0000 -0.1436633211
C   C54       1.0  0.50044  0.11833  0.28331  1.0000 -0.1436633211
C   C55       1.0  0.16498  0.88167  0.38211  1.0000 -0.1436633211
C   C56       1.0  0.33502  0.71713  0.71669  1.0000 -0.1436633211
C   C57       1.0  0.98810  0.92482  0.49008  1.0000 0.1051687743
C   C58       1.0  0.51190  0.00198  0.93672  1.0000 0.1041720208
C   C59       1.0  0.93474  0.99802  0.50992  1.0000 0.1041720208
C   C60       1.0  0.56526  0.07518  0.06328  1.0000 0.1041720208
C   C61       1.0  0.01190  0.07518  0.50992  1.0000 0.1041720208
C   C62       1.0  0.48810  0.99802  0.06328  1.0000 0.1041720208
C   C63       1.0  0.06526  0.00198  0.49008  1.0000 0.1041720208
C   C64       1.0  0.43474  0.92482  0.93672  1.0000 0.1041720208
N   N1        1.0  0.05193  0.92530  0.47723  1.0000 -0.2858394066
N   N2        1.0  0.44807  0.92530  0.87337  1.0000 -0.2858394066
N   N3        1.0  0.94807  0.07470  0.52277  1.0000 -0.2838460286
N   N4        1.0  0.55193  0.07470  0.12663  1.0000 -0.2858394066
O   O1        1.0  0.96868  0.67899  0.58241  1.0000 -0.5321966041
O   O2        1.0  0.53132  0.11373  0.71031  1.0000 -0.5321966041
O   O3        1.0  0.59658  0.88627  0.41759  1.0000 -0.5321966041
O   O4        1.0  0.90342  0.32101  0.28969  1.0000 -0.5321966041
O   O5        1.0  0.03132  0.32101  0.41759  1.0000 -0.5321966041
O   O6        1.0  0.46868  0.88627  0.28969  1.0000 -0.5321966041
O   O7        1.0  0.40342  0.11373  0.58241  1.0000 -0.5321966041
O   O8        1.0  0.09658  0.67899  0.71031  1.0000 -0.5321966041
O   O9        1.0  0.99396  0.50162  0.38098  1.0000 -0.5409558792
O   O10       1.0  0.50604  0.88702  0.50766  1.0000 -0.5409558792
O   O11       1.0  0.62064  0.11298  0.61902  1.0000 -0.5409558792
O   O12       1.0  0.87936  0.49838  0.49234  1.0000 -0.5409558792
O   O13       1.0  0.00604  0.49838  0.61902  1.0000 -0.5409558792
O   O14       1.0  0.49396  0.11298  0.49234  1.0000 -0.5409558792
O   O15       1.0  0.37936  0.88702  0.38098  1.0000 -0.5409558792
O   O16       1.0  0.12064  0.50162  0.50766  1.0000 -0.5409558792
