# DDEC6 charges by PACMAN v1.1 (https://github.com/mtap-research/PACMAN-charge/)
data_2017[Zr][scu]3[ASR]5
_chemical_formula_sum              "Zr12 H104 C168 O56"
_cell_length_a       20.2074
_cell_length_b       20.2074
_cell_length_c       31.4259
_cell_angle_alpha    90
_cell_angle_beta     90
_cell_angle_gamma    119.068

_symmetry_space_group_name_H-M    "P 1"
_symmetry_Int_Tables_number       1

loop_
  _symmetry_equiv_pos_as_xyz
  'x, y, z'

loop_
  _atom_site_type_symbol
  _atom_site_label
  _atom_site_symmetry_multiplicity
  _atom_site_fract_x
  _atom_site_fract_y
  _atom_site_fract_z
  _atom_site_occupancy
  _atom_site_charge
Zr  Zr1       1.0  0.91517  0.91129  0.19362  1.0000 2.4605921029
Zr  Zr2       1.0  0.08483  0.08871  0.69362  1.0000 2.4654825448
Zr  Zr3       1.0  0.08871  0.08483  0.30638  1.0000 2.4654825448
Zr  Zr4       1.0  0.91129  0.91517  0.80638  1.0000 2.4605921029
Zr  Zr5       1.0  0.08483  0.08871  0.80638  1.0000 2.4654825448
Zr  Zr6       1.0  0.91517  0.91129  0.30638  1.0000 2.4605921029
Zr  Zr7       1.0  0.91129  0.91517  0.69362  1.0000 2.4605921029
Zr  Zr8       1.0  0.08871  0.08483  0.19362  1.0000 2.4654825448
Zr  Zr9       1.0  0.07203  0.92797  0.25000  1.0000 2.3500617265
Zr  Zr10      1.0  0.93225  0.06775  0.25000  1.0000 2.3500617265
Zr  Zr11      1.0  0.92797  0.07203  0.75000  1.0000 2.3500617265
Zr  Zr12      1.0  0.06775  0.93225  0.75000  1.0000 2.3500617265
H   H1        1.0  0.28910  0.10170  0.37980  1.0000 0.1091572382
H   H2        1.0  0.38730  0.09810  0.41770  1.0000 0.1091572382
H   H3        1.0  0.59650  0.99210  0.46990  1.0000 0.1091572382
H   H4        1.0  0.76290  0.09110  0.32060  1.0000 0.12017818
H   H5        1.0  0.41090  0.01550  0.46690  1.0000 0.1091572382
H   H6        1.0  0.72030  0.90350  0.38470  1.0000 0.1091572382
H   H7        1.0  0.65670  0.08870  0.35020  1.0000 0.1091572382
H   H8        1.0  0.26260  0.92540  0.30760  1.0000 0.1280395879
H   H9        1.0  0.36070  0.92170  0.34520  1.0000 0.1091572382
H   H10       1.0  0.61570  0.90270  0.41660  1.0000 0.12017818
H   H11       1.0  0.55060  0.12620  0.34710  1.0000 0.1091572382
H   H12       1.0  0.48580  0.08640  0.31190  1.0000 0.12017818
H   H13       1.0  0.56990  0.10230  0.30210  1.0000 0.12017818
H   H14       1.0  0.71090  0.89830  0.87980  1.0000 0.1091572382
H   H15       1.0  0.61270  0.90190  0.91770  1.0000 0.1091572382
H   H16       1.0  0.40350  0.00790  0.96990  1.0000 0.1091572382
H   H17       1.0  0.23710  0.90890  0.82060  1.0000 0.12017818
H   H18       1.0  0.58910  0.98450  0.96690  1.0000 0.1091572382
H   H19       1.0  0.27970  0.09650  0.88470  1.0000 0.1035608619
H   H20       1.0  0.34330  0.91130  0.85020  1.0000 0.1091572382
H   H21       1.0  0.73740  0.07460  0.80760  1.0000 0.1280395879
H   H22       1.0  0.63930  0.07830  0.84520  1.0000 0.1091572382
H   H23       1.0  0.38430  0.09730  0.91660  1.0000 0.12017818
H   H24       1.0  0.44940  0.87380  0.84710  1.0000 0.1091572382
H   H25       1.0  0.51420  0.91360  0.81190  1.0000 0.12017818
H   H26       1.0  0.43010  0.89770  0.80210  1.0000 0.12017818
H   H27       1.0  0.89830  0.71090  0.12020  1.0000 0.1091572382
H   H28       1.0  0.90190  0.61270  0.08230  1.0000 0.1091572382
H   H29       1.0  0.00790  0.40350  0.03010  1.0000 0.1091572382
H   H30       1.0  0.90890  0.23710  0.17940  1.0000 0.12017818
H   H31       1.0  0.98450  0.58910  0.03310  1.0000 0.1091572382
H   H32       1.0  0.09650  0.27970  0.11530  1.0000 0.1035608619
H   H33       1.0  0.91130  0.34330  0.14980  1.0000 0.1091572382
H   H34       1.0  0.07460  0.73740  0.19240  1.0000 0.1280395879
H   H35       1.0  0.07830  0.63930  0.15480  1.0000 0.1091572382
H   H36       1.0  0.09730  0.38430  0.08340  1.0000 0.12017818
H   H37       1.0  0.87380  0.44940  0.15290  1.0000 0.1091572382
H   H38       1.0  0.91360  0.51420  0.18810  1.0000 0.12017818
H   H39       1.0  0.89770  0.43010  0.19790  1.0000 0.12017818
H   H40       1.0  0.10170  0.28910  0.62020  1.0000 0.1091572382
H   H41       1.0  0.09810  0.38730  0.58230  1.0000 0.1091572382
H   H42       1.0  0.99210  0.59650  0.53010  1.0000 0.1091572382
H   H43       1.0  0.09110  0.76290  0.67940  1.0000 0.12017818
H   H44       1.0  0.01550  0.41090  0.53310  1.0000 0.1091572382
H   H45       1.0  0.90350  0.72030  0.61530  1.0000 0.1091572382
H   H46       1.0  0.08870  0.65670  0.64980  1.0000 0.1091572382
H   H47       1.0  0.92540  0.26260  0.69240  1.0000 0.1280395879
H   H48       1.0  0.92170  0.36070  0.65480  1.0000 0.1091572382
H   H49       1.0  0.90270  0.61570  0.58340  1.0000 0.12017818
H   H50       1.0  0.12620  0.55060  0.65290  1.0000 0.1091572382
H   H51       1.0  0.08640  0.48580  0.68810  1.0000 0.12017818
H   H52       1.0  0.10230  0.56990  0.69790  1.0000 0.12017818
H   H53       1.0  0.71090  0.89830  0.62020  1.0000 0.1091572382
H   H54       1.0  0.61270  0.90190  0.58230  1.0000 0.1091572382
H   H55       1.0  0.40350  0.00790  0.53010  1.0000 0.1091572382
H   H56       1.0  0.23710  0.90890  0.67940  1.0000 0.12017818
H   H57       1.0  0.58910  0.98450  0.53310  1.0000 0.1091572382
H   H58       1.0  0.27970  0.09650  0.61530  1.0000 0.1035608619
H   H59       1.0  0.34330  0.91130  0.64980  1.0000 0.1091572382
H   H60       1.0  0.73740  0.07460  0.69240  1.0000 0.1280395879
H   H61       1.0  0.63930  0.07830  0.65480  1.0000 0.1091572382
H   H62       1.0  0.38430  0.09730  0.58340  1.0000 0.12017818
H   H63       1.0  0.44940  0.87380  0.65290  1.0000 0.1091572382
H   H64       1.0  0.51420  0.91360  0.68810  1.0000 0.12017818
H   H65       1.0  0.43010  0.89770  0.69790  1.0000 0.12017818
H   H66       1.0  0.28910  0.10170  0.12020  1.0000 0.1091572382
H   H67       1.0  0.38730  0.09810  0.08230  1.0000 0.1091572382
H   H68       1.0  0.59650  0.99210  0.03010  1.0000 0.1091572382
H   H69       1.0  0.76290  0.09110  0.17940  1.0000 0.12017818
H   H70       1.0  0.41090  0.01550  0.03310  1.0000 0.1091572382
H   H71       1.0  0.72030  0.90350  0.11530  1.0000 0.1091572382
H   H72       1.0  0.65670  0.08870  0.14980  1.0000 0.1091572382
H   H73       1.0  0.26260  0.92540  0.19240  1.0000 0.1280395879
H   H74       1.0  0.36070  0.92170  0.15480  1.0000 0.1091572382
H   H75       1.0  0.61570  0.90270  0.08340  1.0000 0.12017818
H   H76       1.0  0.55060  0.12620  0.15290  1.0000 0.1091572382
H   H77       1.0  0.48580  0.08640  0.18810  1.0000 0.12017818
H   H78       1.0  0.56990  0.10230  0.19790  1.0000 0.12017818
H   H79       1.0  0.10170  0.28910  0.87980  1.0000 0.1091572382
H   H80       1.0  0.09810  0.38730  0.91770  1.0000 0.1091572382
H   H81       1.0  0.99210  0.59650  0.96990  1.0000 0.1091572382
H   H82       1.0  0.09110  0.76290  0.82060  1.0000 0.12017818
H   H83       1.0  0.01550  0.41090  0.96690  1.0000 0.1091572382
H   H84       1.0  0.90350  0.72030  0.88470  1.0000 0.1091572382
H   H85       1.0  0.08870  0.65670  0.85020  1.0000 0.1091572382
H   H86       1.0  0.92540  0.26260  0.80760  1.0000 0.1280395879
H   H87       1.0  0.92170  0.36070  0.84520  1.0000 0.1091572382
H   H88       1.0  0.90270  0.61570  0.91660  1.0000 0.12017818
H   H89       1.0  0.12620  0.55060  0.84710  1.0000 0.1091572382
H   H90       1.0  0.08640  0.48580  0.81190  1.0000 0.12017818
H   H91       1.0  0.10230  0.56990  0.80210  1.0000 0.12017818
H   H92       1.0  0.89830  0.71090  0.37980  1.0000 0.1091572382
H   H93       1.0  0.90190  0.61270  0.41770  1.0000 0.1091572382
H   H94       1.0  0.00790  0.40350  0.46990  1.0000 0.1091572382
H   H95       1.0  0.90890  0.23710  0.32060  1.0000 0.12017818
H   H96       1.0  0.98450  0.58910  0.46690  1.0000 0.1091572382
H   H97       1.0  0.09650  0.27970  0.38470  1.0000 0.1035608619
H   H98       1.0  0.91130  0.34330  0.35020  1.0000 0.1091572382
H   H99       1.0  0.07460  0.73740  0.30760  1.0000 0.1280395879
H   H100      1.0  0.07830  0.63930  0.34520  1.0000 0.1091572382
H   H101      1.0  0.09730  0.38430  0.41660  1.0000 0.12017818
H   H102      1.0  0.87380  0.44940  0.34710  1.0000 0.1091572382
H   H103      1.0  0.91360  0.51420  0.31190  1.0000 0.12017818
H   H104      1.0  0.89770  0.43010  0.30210  1.0000 0.12017818
C   C1        1.0  0.20244  0.01436  0.31819  1.0000 0.6321201741
C   C2        1.0  0.80867  0.98873  0.32256  1.0000 0.6321201741
C   C3        1.0  0.50143  0.00117  0.47680  1.0000 0.0694331571
C   C4        1.0  0.26754  0.01546  0.34244  1.0000 -0.0381960676
C   C5        1.0  0.74744  0.99316  0.34692  1.0000 -0.0457443179
C   C6        1.0  0.30353  0.06467  0.37291  1.0000 -0.0988294941
C   C7        1.0  0.36285  0.06295  0.39536  1.0000 -0.1592843814
C   C8        1.0  0.55923  0.99777  0.45430  1.0000 -0.1995637746
C   C9        1.0  0.73130  0.05090  0.33920  1.0000 -0.0988294941
C   C10       1.0  0.44944  0.01016  0.45257  1.0000 -0.1995637746
C   C11       1.0  0.62715  0.99805  0.38807  1.0000 0.0859916933
C   C12       1.0  0.70673  0.94087  0.37705  1.0000 -0.0926731465
C   C13       1.0  0.38568  0.01212  0.38566  1.0000 0.0840314862
C   C14       1.0  0.56500  0.00220  0.41040  1.0000 -0.0234332762
C   C15       1.0  0.50840  0.00760  0.38742  1.0000 0.1418418853
C   C16       1.0  0.45045  0.01195  0.40814  1.0000 -0.032878548
C   C17       1.0  0.66986  0.05114  0.35810  1.0000 -0.1528336585
C   C18       1.0  0.28802  0.95998  0.33010  1.0000 -0.0988294941
C   C19       1.0  0.34632  0.95868  0.35220  1.0000 -0.1528336585
C   C20       1.0  0.64546  0.94154  0.39680  1.0000 -0.1592843814
C   C21       1.0  0.53120  0.08840  0.32430  1.0000 -0.3212116466
C   C22       1.0  0.79756  0.98564  0.81819  1.0000 0.6321201741
C   C23       1.0  0.19133  0.01127  0.82256  1.0000 0.6321201741
C   C24       1.0  0.49857  0.99883  0.97680  1.0000 0.0694331571
C   C25       1.0  0.73246  0.98454  0.84244  1.0000 -0.0381960676
C   C26       1.0  0.25256  0.00684  0.84692  1.0000 -0.0457443179
C   C27       1.0  0.69647  0.93533  0.87291  1.0000 -0.0988294941
C   C28       1.0  0.63715  0.93705  0.89536  1.0000 -0.1592843814
C   C29       1.0  0.44077  0.00223  0.95430  1.0000 -0.1995637746
C   C30       1.0  0.26870  0.94910  0.83920  1.0000 -0.0988294941
C   C31       1.0  0.55056  0.98984  0.95257  1.0000 -0.1995637746
C   C32       1.0  0.37285  0.00195  0.88807  1.0000 0.0859916933
C   C33       1.0  0.29327  0.05913  0.87705  1.0000 -0.0926731465
C   C34       1.0  0.61432  0.98788  0.88566  1.0000 0.0859916933
C   C35       1.0  0.43500  0.99780  0.91040  1.0000 -0.0234332762
C   C36       1.0  0.49160  0.99240  0.88742  1.0000 0.1418418853
C   C37       1.0  0.54955  0.98805  0.90814  1.0000 -0.0381960676
C   C38       1.0  0.33014  0.94886  0.85810  1.0000 -0.1528336585
C   C39       1.0  0.71198  0.04002  0.83010  1.0000 -0.0988294941
C   C40       1.0  0.65368  0.04132  0.85220  1.0000 -0.1592843814
C   C41       1.0  0.35454  0.05846  0.89680  1.0000 -0.1592843814
C   C42       1.0  0.46880  0.91160  0.82430  1.0000 -0.3212116466
C   C43       1.0  0.98564  0.79756  0.18181  1.0000 0.6321201741
C   C44       1.0  0.01127  0.19133  0.17744  1.0000 0.6321201741
C   C45       1.0  0.99883  0.49857  0.02320  1.0000 0.0694331571
C   C46       1.0  0.98454  0.73246  0.15756  1.0000 -0.0381960676
C   C47       1.0  0.00684  0.25256  0.15308  1.0000 -0.0457443179
C   C48       1.0  0.93533  0.69647  0.12709  1.0000 -0.0988294941
C   C49       1.0  0.93705  0.63715  0.10464  1.0000 -0.1592843814
C   C50       1.0  0.00223  0.44077  0.04570  1.0000 -0.1995637746
C   C51       1.0  0.94910  0.26870  0.16080  1.0000 -0.0988294941
C   C52       1.0  0.98984  0.55056  0.04743  1.0000 -0.1995637746
C   C53       1.0  0.00195  0.37285  0.11193  1.0000 0.0840314862
C   C54       1.0  0.05913  0.29327  0.12295  1.0000 -0.0926731465
C   C55       1.0  0.98788  0.61432  0.11434  1.0000 0.0859916933
C   C56       1.0  0.99780  0.43500  0.08960  1.0000 -0.0234332762
C   C57       1.0  0.99240  0.49160  0.11258  1.0000 0.1418418853
C   C58       1.0  0.98805  0.54955  0.09186  1.0000 -0.032878548
C   C59       1.0  0.94886  0.33014  0.14190  1.0000 -0.1528336585
C   C60       1.0  0.04002  0.71198  0.16990  1.0000 -0.0988294941
C   C61       1.0  0.04132  0.65368  0.14780  1.0000 -0.1592843814
C   C62       1.0  0.05846  0.35454  0.10320  1.0000 -0.1592843814
C   C63       1.0  0.91160  0.46880  0.17570  1.0000 -0.3212116466
C   C64       1.0  0.01436  0.20244  0.68181  1.0000 0.6321201741
C   C65       1.0  0.98873  0.80867  0.67744  1.0000 0.6321201741
C   C66       1.0  0.00117  0.50143  0.52320  1.0000 0.0694331571
C   C67       1.0  0.01546  0.26754  0.65756  1.0000 -0.0381960676
C   C68       1.0  0.99316  0.74744  0.65308  1.0000 -0.0381960676
C   C69       1.0  0.06467  0.30353  0.62709  1.0000 -0.0988294941
C   C70       1.0  0.06295  0.36285  0.60464  1.0000 -0.1592843814
C   C71       1.0  0.99777  0.55923  0.54570  1.0000 -0.1995637746
C   C72       1.0  0.05090  0.73130  0.66080  1.0000 -0.0988294941
C   C73       1.0  0.01016  0.44944  0.54743  1.0000 -0.1995637746
C   C74       1.0  0.99805  0.62715  0.61193  1.0000 0.0859916933
C   C75       1.0  0.94087  0.70673  0.62295  1.0000 -0.0926731465
C   C76       1.0  0.01212  0.38568  0.61434  1.0000 0.0840314862
C   C77       1.0  0.00220  0.56500  0.58960  1.0000 -0.0234332762
C   C78       1.0  0.00760  0.50840  0.61258  1.0000 0.1418418853
C   C79       1.0  0.01195  0.45045  0.59186  1.0000 -0.0381960676
C   C80       1.0  0.05114  0.66986  0.64190  1.0000 -0.1528336585
C   C81       1.0  0.95998  0.28802  0.66990  1.0000 -0.0988294941
C   C82       1.0  0.95868  0.34632  0.64780  1.0000 -0.1592843814
C   C83       1.0  0.94154  0.64546  0.60320  1.0000 -0.1528336585
C   C84       1.0  0.08840  0.53120  0.67570  1.0000 -0.3212116466
C   C85       1.0  0.79756  0.98564  0.68181  1.0000 0.6321201741
C   C86       1.0  0.19133  0.01127  0.67744  1.0000 0.6321201741
C   C87       1.0  0.49857  0.99883  0.52320  1.0000 0.0694331571
C   C88       1.0  0.73246  0.98454  0.65756  1.0000 -0.0381960676
C   C89       1.0  0.25256  0.00684  0.65308  1.0000 -0.0457443179
C   C90       1.0  0.69647  0.93533  0.62709  1.0000 -0.0988294941
C   C91       1.0  0.63715  0.93705  0.60464  1.0000 -0.1592843814
C   C92       1.0  0.44077  0.00223  0.54570  1.0000 -0.1995637746
C   C93       1.0  0.26870  0.94910  0.66080  1.0000 -0.0988294941
C   C94       1.0  0.55056  0.98984  0.54743  1.0000 -0.1995637746
C   C95       1.0  0.37285  0.00195  0.61193  1.0000 0.0859916933
C   C96       1.0  0.29327  0.05913  0.62295  1.0000 -0.0926731465
C   C97       1.0  0.61432  0.98788  0.61434  1.0000 0.0840314862
C   C98       1.0  0.43500  0.99780  0.58960  1.0000 -0.0234332762
C   C99       1.0  0.49160  0.99240  0.61258  1.0000 0.1418418853
C   C100      1.0  0.54955  0.98805  0.59186  1.0000 -0.0381960676
C   C101      1.0  0.33014  0.94886  0.64190  1.0000 -0.1528336585
C   C102      1.0  0.71198  0.04002  0.66990  1.0000 -0.0988294941
C   C103      1.0  0.65368  0.04132  0.64780  1.0000 -0.1592843814
C   C104      1.0  0.35454  0.05846  0.60320  1.0000 -0.1592843814
C   C105      1.0  0.46880  0.91160  0.67570  1.0000 -0.3212116466
C   C106      1.0  0.20244  0.01436  0.18181  1.0000 0.6321201741
C   C107      1.0  0.80867  0.98873  0.17744  1.0000 0.6321201741
C   C108      1.0  0.50143  0.00117  0.02320  1.0000 0.0694331571
C   C109      1.0  0.26754  0.01546  0.15756  1.0000 -0.0381960676
C   C110      1.0  0.74744  0.99316  0.15308  1.0000 -0.0457443179
C   C111      1.0  0.30353  0.06467  0.12709  1.0000 -0.0988294941
C   C112      1.0  0.36285  0.06295  0.10464  1.0000 -0.1592843814
C   C113      1.0  0.55923  0.99777  0.04570  1.0000 -0.1995637746
C   C114      1.0  0.73130  0.05090  0.16080  1.0000 -0.0988294941
C   C115      1.0  0.44944  0.01016  0.04743  1.0000 -0.1995637746
C   C116      1.0  0.62715  0.99805  0.11193  1.0000 0.0859916933
C   C117      1.0  0.70673  0.94087  0.12295  1.0000 -0.0926731465
C   C118      1.0  0.38568  0.01212  0.11434  1.0000 0.0840314862
C   C119      1.0  0.56500  0.00220  0.08960  1.0000 -0.0234332762
C   C120      1.0  0.50840  0.00760  0.11258  1.0000 0.1418418853
C   C121      1.0  0.45045  0.01195  0.09186  1.0000 -0.032878548
C   C122      1.0  0.66986  0.05114  0.14190  1.0000 -0.1528336585
C   C123      1.0  0.28802  0.95998  0.16990  1.0000 -0.0988294941
C   C124      1.0  0.34632  0.95868  0.14780  1.0000 -0.1528336585
C   C125      1.0  0.64546  0.94154  0.10320  1.0000 -0.1592843814
C   C126      1.0  0.53120  0.08840  0.17570  1.0000 -0.3212116466
C   C127      1.0  0.01436  0.20244  0.81819  1.0000 0.6321201741
C   C128      1.0  0.98873  0.80867  0.82256  1.0000 0.6321201741
C   C129      1.0  0.00117  0.50143  0.97680  1.0000 0.0694331571
C   C130      1.0  0.01546  0.26754  0.84244  1.0000 -0.0381960676
C   C131      1.0  0.99316  0.74744  0.84692  1.0000 -0.0381960676
C   C132      1.0  0.06467  0.30353  0.87291  1.0000 -0.0988294941
C   C133      1.0  0.06295  0.36285  0.89536  1.0000 -0.1592843814
C   C134      1.0  0.99777  0.55923  0.95430  1.0000 -0.1995637746
C   C135      1.0  0.05090  0.73130  0.83920  1.0000 -0.0988294941
C   C136      1.0  0.01016  0.44944  0.95257  1.0000 -0.1995637746
C   C137      1.0  0.99805  0.62715  0.88807  1.0000 0.0859916933
C   C138      1.0  0.94087  0.70673  0.87705  1.0000 -0.0926731465
C   C139      1.0  0.01212  0.38568  0.88566  1.0000 0.0840314862
C   C140      1.0  0.00220  0.56500  0.91040  1.0000 -0.032878548
C   C141      1.0  0.00760  0.50840  0.88742  1.0000 0.1418418853
C   C142      1.0  0.01195  0.45045  0.90814  1.0000 -0.0381960676
C   C143      1.0  0.05114  0.66986  0.85810  1.0000 -0.1528336585
C   C144      1.0  0.95998  0.28802  0.83010  1.0000 -0.0988294941
C   C145      1.0  0.95868  0.34632  0.85220  1.0000 -0.1592843814
C   C146      1.0  0.94154  0.64546  0.89680  1.0000 -0.1528336585
C   C147      1.0  0.08840  0.53120  0.82430  1.0000 -0.3212116466
C   C148      1.0  0.98564  0.79756  0.31819  1.0000 0.6321201741
C   C149      1.0  0.01127  0.19133  0.32256  1.0000 0.6321201741
C   C150      1.0  0.99883  0.49857  0.47680  1.0000 0.0694331571
C   C151      1.0  0.98454  0.73246  0.34244  1.0000 -0.0381960676
C   C152      1.0  0.00684  0.25256  0.34692  1.0000 -0.0457443179
C   C153      1.0  0.93533  0.69647  0.37291  1.0000 -0.0988294941
C   C154      1.0  0.93705  0.63715  0.39536  1.0000 -0.1592843814
C   C155      1.0  0.00223  0.44077  0.45430  1.0000 -0.1995637746
C   C156      1.0  0.94910  0.26870  0.33920  1.0000 -0.0988294941
C   C157      1.0  0.98984  0.55056  0.45257  1.0000 -0.1995637746
C   C158      1.0  0.00195  0.37285  0.38807  1.0000 0.0840314862
C   C159      1.0  0.05913  0.29327  0.37705  1.0000 -0.0926731465
C   C160      1.0  0.98788  0.61432  0.38566  1.0000 0.0859916933
C   C161      1.0  0.99780  0.43500  0.41040  1.0000 -0.0234332762
C   C162      1.0  0.99240  0.49160  0.38742  1.0000 0.1418418853
C   C163      1.0  0.98805  0.54955  0.40814  1.0000 -0.032878548
C   C164      1.0  0.94886  0.33014  0.35810  1.0000 -0.1528336585
C   C165      1.0  0.04002  0.71198  0.33010  1.0000 -0.0988294941
C   C166      1.0  0.04132  0.65368  0.35220  1.0000 -0.1592843814
C   C167      1.0  0.05846  0.35454  0.39680  1.0000 -0.1592843814
C   C168      1.0  0.91160  0.46880  0.32430  1.0000 -0.3212116466
O   O1        1.0  0.16867  0.96025  0.29173  1.0000 -0.5799558566
O   O2        1.0  0.83689  0.03631  0.29255  1.0000 -0.5799558566
O   O3        1.0  0.18354  0.06386  0.32771  1.0000 -0.6217271121
O   O4        1.0  0.82647  0.93993  0.33189  1.0000 -0.6015490175
O   O5        1.0  0.51032  0.00668  0.34340  1.0000 -0.1592843814
O   O6        1.0  0.83133  0.03975  0.79173  1.0000 -0.5799558566
O   O7        1.0  0.16311  0.96369  0.79255  1.0000 -0.5799558566
O   O8        1.0  0.81646  0.93614  0.82771  1.0000 -0.6217271121
O   O9        1.0  0.17353  0.06007  0.83189  1.0000 -0.6015490175
O   O10       1.0  0.48968  0.99332  0.84340  1.0000 -0.1592843814
O   O11       1.0  0.03975  0.83133  0.20827  1.0000 -0.5799558566
O   O12       1.0  0.96369  0.16311  0.20745  1.0000 -0.5799558566
O   O13       1.0  0.93614  0.81646  0.17229  1.0000 -0.6217271121
O   O14       1.0  0.06007  0.17353  0.16811  1.0000 -0.6015490175
O   O15       1.0  0.99332  0.48968  0.15660  1.0000 -0.1655824811
O   O16       1.0  0.96025  0.16867  0.70827  1.0000 -0.5799558566
O   O17       1.0  0.03631  0.83689  0.70745  1.0000 -0.5799558566
O   O18       1.0  0.06386  0.18354  0.67229  1.0000 -0.6217271121
O   O19       1.0  0.93993  0.82647  0.66811  1.0000 -0.6015490175
O   O20       1.0  0.00668  0.51032  0.65660  1.0000 -0.1592843814
O   O21       1.0  0.83133  0.03975  0.70827  1.0000 -0.5799558566
O   O22       1.0  0.16311  0.96369  0.70745  1.0000 -0.5799558566
O   O23       1.0  0.81646  0.93614  0.67229  1.0000 -0.6217271121
O   O24       1.0  0.17353  0.06007  0.66811  1.0000 -0.6015490175
O   O25       1.0  0.48968  0.99332  0.65660  1.0000 -0.1655824811
O   O26       1.0  0.16867  0.96025  0.20827  1.0000 -0.5799558566
O   O27       1.0  0.83689  0.03631  0.20745  1.0000 -0.5799558566
O   O28       1.0  0.18354  0.06386  0.17229  1.0000 -0.6217271121
O   O29       1.0  0.82647  0.93993  0.16811  1.0000 -0.6015490175
O   O30       1.0  0.51032  0.00668  0.15660  1.0000 -0.1592843814
O   O31       1.0  0.96025  0.16867  0.79173  1.0000 -0.5799558566
O   O32       1.0  0.03631  0.83689  0.79255  1.0000 -0.5799558566
O   O33       1.0  0.06386  0.18354  0.82771  1.0000 -0.6217271121
O   O34       1.0  0.93993  0.82647  0.83189  1.0000 -0.6015490175
O   O35       1.0  0.00668  0.51032  0.84340  1.0000 -0.1592843814
O   O36       1.0  0.03975  0.83133  0.29173  1.0000 -0.5799558566
O   O37       1.0  0.96369  0.16311  0.29255  1.0000 -0.5799558566
O   O38       1.0  0.93614  0.81646  0.32771  1.0000 -0.6217271121
O   O39       1.0  0.06007  0.17353  0.33189  1.0000 -0.6015490175
O   O40       1.0  0.99332  0.48968  0.34340  1.0000 -0.1655824811
O   O41       1.0  0.97085  0.02915  0.19881  1.0000 -1.1698046738
O   O42       1.0  0.03871  0.96129  0.18862  1.0000 -1.1779756626
O   O43       1.0  0.02915  0.97085  0.69881  1.0000 -1.1698046738
O   O44       1.0  0.96129  0.03871  0.68862  1.0000 -1.1698046738
O   O45       1.0  0.97085  0.02915  0.30119  1.0000 -1.1698046738
O   O46       1.0  0.03871  0.96129  0.31138  1.0000 -1.1779756626
O   O47       1.0  0.02915  0.97085  0.80119  1.0000 -1.1698046738
O   O48       1.0  0.96129  0.03871  0.81138  1.0000 -1.1698046738
O   O49       1.0  0.95478  0.88802  0.25000  1.0000 -1.1625836671
O   O50       1.0  0.86947  0.93833  0.25000  1.0000 -1.1698046738
O   O51       1.0  0.04522  0.11198  0.75000  1.0000 -1.1625836671
O   O52       1.0  0.13053  0.06167  0.75000  1.0000 -1.1779756626
O   O53       1.0  0.11198  0.04522  0.25000  1.0000 -1.1625836671
O   O54       1.0  0.06167  0.13053  0.25000  1.0000 -1.1698046738
O   O55       1.0  0.88802  0.95478  0.75000  1.0000 -1.1625836671
O   O56       1.0  0.93833  0.86947  0.75000  1.0000 -1.1698046738
