# DDEC6 charges by PACMAN v1.1 (https://github.com/mtap-research/PACMAN-charge/)
data_2017[Zn][pcu]3[ASR]18
_chemical_formula_sum              "Zn4 H72 C112 N4 O16"
_cell_length_a       13.3744
_cell_length_b       13.3744
_cell_length_c       15.8421
_cell_angle_alpha    86.7139
_cell_angle_beta     93.2861
_cell_angle_gamma    68.7359

_symmetry_space_group_name_H-M    "P 1"
_symmetry_Int_Tables_number       1

loop_
  _symmetry_equiv_pos_as_xyz
  'x, y, z'

loop_
  _atom_site_type_symbol
  _atom_site_label
  _atom_site_symmetry_multiplicity
  _atom_site_fract_x
  _atom_site_fract_y
  _atom_site_fract_z
  _atom_site_occupancy
  _atom_site_charge
Zn  Zn1       1.0  0.43608  0.57106  0.56074  1.0000 0.8302153515
Zn  Zn2       1.0  0.57106  0.43608  0.93926  1.0000 0.8302153515
Zn  Zn3       1.0  0.56392  0.42894  0.43926  1.0000 0.8302153515
Zn  Zn4       1.0  0.42894  0.56392  0.06074  1.0000 0.8302153515
H   H1        1.0  0.45640  0.65640  0.73090  1.0000 0.1190915402
H   H2        1.0  0.34780  0.76360  0.82410  1.0000 0.1292301359
H   H3        1.0  0.09280  0.81360  0.65520  1.0000 0.1292301359
H   H4        1.0  0.20850  0.70630  0.56690  1.0000 0.1025342834
H   H5        1.0  0.06340  0.91540  0.78050  1.0000 0.1190915402
H   H6        1.0  0.21980  0.82920  0.91220  1.0000 0.1190915402
H   H7        1.0  0.25120  0.97820  0.95160  1.0000 0.1109573854
H   H8        1.0  0.30620  0.08220  0.03770  1.0000 0.1109573854
H   H9        1.0  0.18730  0.18730  0.13310  1.0000 0.1025342834
H   H10       1.0  0.01510  0.18550  0.13590  1.0000 0.1109573854
H   H11       1.0  0.52080  0.68320  0.23080  1.0000 0.1190915402
H   H12       1.0  0.51610  0.83610  0.15080  1.0000 0.1109573854
H   H13       1.0  0.38930  0.01730  0.34160  1.0000 0.1109573854
H   H14       1.0  0.38890  0.86470  0.41940  1.0000 0.1190915402
H   H15       1.0  0.55840  0.96660  0.10260  1.0000 0.1109573854
H   H16       1.0  0.56230  0.12070  0.02940  1.0000 0.1190915402
H   H17       1.0  0.35940  0.30440  0.18560  1.0000 0.1109573854
H   H18       1.0  0.35130  0.15130  0.25720  1.0000 0.1109573854
H   H19       1.0  0.65640  0.45640  0.76910  1.0000 0.1190915402
H   H20       1.0  0.76360  0.34780  0.67590  1.0000 0.1292301359
H   H21       1.0  0.81360  0.09280  0.84480  1.0000 0.1292301359
H   H22       1.0  0.70630  0.20850  0.93310  1.0000 0.1025342834
H   H23       1.0  0.91540  0.06340  0.71950  1.0000 0.1190915402
H   H24       1.0  0.82920  0.21980  0.58780  1.0000 0.1190915402
H   H25       1.0  0.97820  0.25120  0.54840  1.0000 0.1109573854
H   H26       1.0  0.08220  0.30620  0.46230  1.0000 0.1109573854
H   H27       1.0  0.18730  0.18730  0.36690  1.0000 0.1025342834
H   H28       1.0  0.18550  0.01510  0.36410  1.0000 0.1109573854
H   H29       1.0  0.68320  0.52080  0.26920  1.0000 0.1190915402
H   H30       1.0  0.83610  0.51610  0.34920  1.0000 0.1109573854
H   H31       1.0  0.01730  0.38930  0.15840  1.0000 0.1109573854
H   H32       1.0  0.86470  0.38890  0.08060  1.0000 0.1190915402
H   H33       1.0  0.96660  0.55840  0.39740  1.0000 0.1109573854
H   H34       1.0  0.12070  0.56230  0.47060  1.0000 0.1190915402
H   H35       1.0  0.30440  0.35940  0.31440  1.0000 0.1109573854
H   H36       1.0  0.15130  0.35130  0.24280  1.0000 0.1109573854
H   H37       1.0  0.54360  0.34360  0.26910  1.0000 0.1190915402
H   H38       1.0  0.65220  0.23640  0.17590  1.0000 0.1292301359
H   H39       1.0  0.90720  0.18640  0.34480  1.0000 0.1292301359
H   H40       1.0  0.79150  0.29370  0.43310  1.0000 0.1025342834
H   H41       1.0  0.93660  0.08460  0.21950  1.0000 0.1190915402
H   H42       1.0  0.78020  0.17080  0.08780  1.0000 0.1190915402
H   H43       1.0  0.74880  0.02180  0.04840  1.0000 0.1109573854
H   H44       1.0  0.69380  0.91780  0.96230  1.0000 0.1109573854
H   H45       1.0  0.81270  0.81270  0.86690  1.0000 0.1025342834
H   H46       1.0  0.98490  0.81450  0.86410  1.0000 0.1109573854
H   H47       1.0  0.47920  0.31680  0.76920  1.0000 0.1190915402
H   H48       1.0  0.48390  0.16390  0.84920  1.0000 0.1109573854
H   H49       1.0  0.61070  0.98270  0.65840  1.0000 0.1109573854
H   H50       1.0  0.61110  0.13530  0.58060  1.0000 0.1190915402
H   H51       1.0  0.44160  0.03340  0.89740  1.0000 0.1109573854
H   H52       1.0  0.43770  0.87930  0.97060  1.0000 0.1109573854
H   H53       1.0  0.64060  0.69560  0.81440  1.0000 0.1109573854
H   H54       1.0  0.64870  0.84870  0.74280  1.0000 0.1109573854
H   H55       1.0  0.34360  0.54360  0.23090  1.0000 0.1190915402
H   H56       1.0  0.23640  0.65220  0.32410  1.0000 0.1292301359
H   H57       1.0  0.18640  0.90720  0.15520  1.0000 0.1292301359
H   H58       1.0  0.29370  0.79150  0.06690  1.0000 0.1025342834
H   H59       1.0  0.08460  0.93660  0.28050  1.0000 0.1190915402
H   H60       1.0  0.17080  0.78020  0.41220  1.0000 0.1190915402
H   H61       1.0  0.02180  0.74880  0.45160  1.0000 0.1109573854
H   H62       1.0  0.91780  0.69380  0.53770  1.0000 0.1109573854
H   H63       1.0  0.81270  0.81270  0.63310  1.0000 0.1025342834
H   H64       1.0  0.81450  0.98490  0.63590  1.0000 0.1109573854
H   H65       1.0  0.31680  0.47920  0.73080  1.0000 0.1190915402
H   H66       1.0  0.16390  0.48390  0.65080  1.0000 0.1109573854
H   H67       1.0  0.98270  0.61070  0.84160  1.0000 0.1109573854
H   H68       1.0  0.13530  0.61110  0.91940  1.0000 0.1190915402
H   H69       1.0  0.03340  0.44160  0.60260  1.0000 0.1109573854
H   H70       1.0  0.87930  0.43770  0.52940  1.0000 0.1109573854
H   H71       1.0  0.69560  0.64060  0.68560  1.0000 0.1109573854
H   H72       1.0  0.84870  0.64870  0.75720  1.0000 0.1109573854
C   C1        1.0  0.38146  0.69006  0.71500  1.0000 0.1025342834
C   C2        1.0  0.31728  0.75388  0.77100  1.0000 -0.1794649793
C   C3        1.0  0.20740  0.80380  0.74920  1.0000 0.1743258925
C   C4        1.0  0.16780  0.78320  0.67190  1.0000 -0.1904569102
C   C5        1.0  0.23720  0.71900  0.61970  1.0000 0.0880213024
C   C6        1.0  0.13240  0.87000  0.80570  1.0000 -0.1605719162
C   C7        1.0  0.15030  0.87290  0.88700  1.0000 -0.1089614166
C   C8        1.0  0.07239  0.93819  0.94360  1.0000 0.0030572309
C   C9        1.0  0.10160  0.00740  0.99420  1.0000 0.0205735283
C   C10       1.0  0.20380  0.01740  0.99070  1.0000 -0.1497232947
C   C11       1.0  0.23630  0.08010  0.04050  1.0000 -0.1003766967
C   C12       1.0  0.16490  0.14330  0.09740  1.0000 -0.1003766967
C   C13       1.0  0.06340  0.14000  0.10030  1.0000 -0.1497232947
C   C14       1.0  0.02890  0.07050  0.05170  1.0000 0.0285542345
C   C15       1.0  0.46712  0.66032  0.38970  1.0000 0.5767862069
C   C16       1.0  0.45835  0.75795  0.33430  1.0000 -0.037838638
C   C17       1.0  0.49429  0.75109  0.25370  1.0000 -0.0905128353
C   C18       1.0  0.49200  0.84240  0.20620  1.0000 -0.1442865861
C   C19       1.0  0.45491  0.94331  0.23830  1.0000 0.0715549233
C   C20       1.0  0.41640  0.94940  0.31850  1.0000 -0.1497232947
C   C21       1.0  0.41710  0.85810  0.36540  1.0000 -0.1003766967
C   C22       1.0  0.45743  0.04103  0.19000  1.0000 0.0829553249
C   C23       1.0  0.51799  0.03519  0.12060  1.0000 -0.1605719162
C   C24       1.0  0.52082  0.12722  0.07700  1.0000 -0.1089614166
C   C25       1.0  0.46407  0.22787  0.10220  1.0000 -0.037838638
C   C26       1.0  0.40082  0.23542  0.16880  1.0000 -0.1089614166
C   C27       1.0  0.39650  0.14390  0.21200  1.0000 -0.1605719162
C   C28       1.0  0.47397  0.32757  0.06080  1.0000 0.5745977627
C   C29       1.0  0.69006  0.38146  0.78500  1.0000 0.1025342834
C   C30       1.0  0.75388  0.31728  0.72900  1.0000 -0.1794649793
C   C31       1.0  0.80380  0.20740  0.75080  1.0000 0.1743258925
C   C32       1.0  0.78320  0.16780  0.82810  1.0000 -0.1904569102
C   C33       1.0  0.71900  0.23720  0.88030  1.0000 0.0880213024
C   C34       1.0  0.87000  0.13240  0.69430  1.0000 -0.1605719162
C   C35       1.0  0.87290  0.15030  0.61300  1.0000 -0.1089614166
C   C36       1.0  0.93819  0.07239  0.55640  1.0000 0.0030572309
C   C37       1.0  0.00740  0.10160  0.50580  1.0000 0.0205735283
C   C38       1.0  0.01740  0.20380  0.50930  1.0000 -0.1497232947
C   C39       1.0  0.08010  0.23630  0.45950  1.0000 -0.1003766967
C   C40       1.0  0.14330  0.16490  0.40260  1.0000 -0.1003766967
C   C41       1.0  0.14000  0.06340  0.39970  1.0000 -0.1497232947
C   C42       1.0  0.07050  0.02890  0.44830  1.0000 0.0285542345
C   C43       1.0  0.66032  0.46712  0.11030  1.0000 0.5767862069
C   C44       1.0  0.75795  0.45835  0.16570  1.0000 -0.037838638
C   C45       1.0  0.75109  0.49429  0.24630  1.0000 -0.0905128353
C   C46       1.0  0.84240  0.49200  0.29380  1.0000 -0.1442865861
C   C47       1.0  0.94331  0.45491  0.26170  1.0000 0.0715549233
C   C48       1.0  0.94940  0.41640  0.18150  1.0000 -0.1497232947
C   C49       1.0  0.85810  0.41710  0.13460  1.0000 -0.1003766967
C   C50       1.0  0.04103  0.45743  0.31000  1.0000 0.0829553249
C   C51       1.0  0.03519  0.51799  0.37940  1.0000 -0.1605719162
C   C52       1.0  0.12722  0.52082  0.42300  1.0000 -0.1089614166
C   C53       1.0  0.22787  0.46407  0.39780  1.0000 -0.037838638
C   C54       1.0  0.23542  0.40082  0.33120  1.0000 -0.1089614166
C   C55       1.0  0.14390  0.39650  0.28800  1.0000 -0.1605719162
C   C56       1.0  0.32757  0.47397  0.43920  1.0000 0.5745977627
C   C57       1.0  0.61854  0.30994  0.28500  1.0000 0.1025342834
C   C58       1.0  0.68272  0.24612  0.22900  1.0000 -0.1794649793
C   C59       1.0  0.79260  0.19620  0.25080  1.0000 0.1743258925
C   C60       1.0  0.83220  0.21680  0.32810  1.0000 -0.1904569102
C   C61       1.0  0.76280  0.28100  0.38030  1.0000 0.0880213024
C   C62       1.0  0.86760  0.13000  0.19430  1.0000 -0.1605719162
C   C63       1.0  0.84970  0.12710  0.11300  1.0000 -0.1089614166
C   C64       1.0  0.92761  0.06181  0.05640  1.0000 0.0030572309
C   C65       1.0  0.89840  0.99260  0.00580  1.0000 0.0205735283
C   C66       1.0  0.79620  0.98260  0.00930  1.0000 -0.1497232947
C   C67       1.0  0.76370  0.91990  0.95950  1.0000 -0.0905128353
C   C68       1.0  0.83510  0.85670  0.90260  1.0000 -0.1003766967
C   C69       1.0  0.93660  0.86000  0.89970  1.0000 -0.1497232947
C   C70       1.0  0.97110  0.92950  0.94830  1.0000 0.0285542345
C   C71       1.0  0.53288  0.33968  0.61030  1.0000 0.5767862069
C   C72       1.0  0.54165  0.24205  0.66570  1.0000 -0.037838638
C   C73       1.0  0.50571  0.24891  0.74630  1.0000 -0.0905128353
C   C74       1.0  0.50800  0.15760  0.79380  1.0000 -0.1442865861
C   C75       1.0  0.54509  0.05669  0.76170  1.0000 0.0715549233
C   C76       1.0  0.58360  0.05060  0.68150  1.0000 -0.1497232947
C   C77       1.0  0.58290  0.14190  0.63460  1.0000 -0.1003766967
C   C78       1.0  0.54257  0.95897  0.81000  1.0000 0.0829553249
C   C79       1.0  0.48201  0.96481  0.87940  1.0000 -0.1605719162
C   C80       1.0  0.47918  0.87278  0.92300  1.0000 -0.1089614166
C   C81       1.0  0.53593  0.77213  0.89780  1.0000 -0.037838638
C   C82       1.0  0.59918  0.76458  0.83120  1.0000 -0.1089614166
C   C83       1.0  0.60350  0.85610  0.78800  1.0000 -0.1605719162
C   C84       1.0  0.52603  0.67243  0.93920  1.0000 0.5745977627
C   C85       1.0  0.30994  0.61854  0.21500  1.0000 0.1025342834
C   C86       1.0  0.24612  0.68272  0.27100  1.0000 -0.1794649793
C   C87       1.0  0.19620  0.79260  0.24920  1.0000 0.1743258925
C   C88       1.0  0.21680  0.83220  0.17190  1.0000 -0.1904569102
C   C89       1.0  0.28100  0.76280  0.11970  1.0000 0.0880213024
C   C90       1.0  0.13000  0.86760  0.30570  1.0000 -0.1605719162
C   C91       1.0  0.12710  0.84970  0.38700  1.0000 -0.1089614166
C   C92       1.0  0.06181  0.92761  0.44360  1.0000 0.0030572309
C   C93       1.0  0.99260  0.89840  0.49420  1.0000 0.0205735283
C   C94       1.0  0.98260  0.79620  0.49070  1.0000 -0.1497232947
C   C95       1.0  0.91990  0.76370  0.54050  1.0000 -0.0905128353
C   C96       1.0  0.85670  0.83510  0.59740  1.0000 -0.1003766967
C   C97       1.0  0.86000  0.93660  0.60030  1.0000 -0.1497232947
C   C98       1.0  0.92950  0.97110  0.55170  1.0000 0.0285542345
C   C99       1.0  0.33968  0.53288  0.88970  1.0000 0.5767862069
C   C100      1.0  0.24205  0.54165  0.83430  1.0000 -0.037838638
C   C101      1.0  0.24891  0.50571  0.75370  1.0000 -0.0905128353
C   C102      1.0  0.15760  0.50800  0.70620  1.0000 -0.1442865861
C   C103      1.0  0.05669  0.54509  0.73830  1.0000 0.0715549233
C   C104      1.0  0.05060  0.58360  0.81850  1.0000 -0.1497232947
C   C105      1.0  0.14190  0.58290  0.86540  1.0000 -0.1003766967
C   C106      1.0  0.95897  0.54257  0.69000  1.0000 0.0829553249
C   C107      1.0  0.96481  0.48201  0.62060  1.0000 -0.1605719162
C   C108      1.0  0.87278  0.47918  0.57700  1.0000 -0.1089614166
C   C109      1.0  0.77213  0.53593  0.60220  1.0000 -0.037838638
C   C110      1.0  0.76458  0.59918  0.66880  1.0000 -0.1089614166
C   C111      1.0  0.85610  0.60350  0.71200  1.0000 -0.1605719162
C   C112      1.0  0.67243  0.52603  0.56080  1.0000 0.5745977627
N   N1        1.0  0.34369  0.67309  0.63950  1.0000 -0.2157332508
N   N2        1.0  0.67309  0.34369  0.86050  1.0000 -0.2157332508
N   N3        1.0  0.65631  0.32691  0.36050  1.0000 -0.2157332508
N   N4        1.0  0.32691  0.65631  0.13950  1.0000 -0.2157332508
O   O1        1.0  0.42117  0.67515  0.45772  1.0000 -0.5484717024
O   O2        1.0  0.52088  0.56996  0.36572  1.0000 -0.5345831049
O   O3        1.0  0.42501  0.41511  0.09160  1.0000 -0.5408457202
O   O4        1.0  0.53173  0.31609  0.99995  1.0000 -0.5408457202
O   O5        1.0  0.67515  0.42117  0.04228  1.0000 -0.5484717024
O   O6        1.0  0.56996  0.52088  0.13428  1.0000 -0.5345831049
O   O7        1.0  0.41511  0.42501  0.40840  1.0000 -0.5408457202
O   O8        1.0  0.31609  0.53173  0.50005  1.0000 -0.5408457202
O   O9        1.0  0.57883  0.32485  0.54228  1.0000 -0.5484717024
O   O10       1.0  0.47912  0.43004  0.63428  1.0000 -0.5345831049
O   O11       1.0  0.57499  0.58489  0.90840  1.0000 -0.5408457202
O   O12       1.0  0.46827  0.68391  0.00005  1.0000 -0.5408457202
O   O13       1.0  0.32485  0.57883  0.95772  1.0000 -0.5484717024
O   O14       1.0  0.43004  0.47912  0.86572  1.0000 -0.5345831049
O   O15       1.0  0.58489  0.57499  0.59160  1.0000 -0.5408457202
O   O16       1.0  0.68391  0.46827  0.49995  1.0000 -0.5408457202
