# DDEC6 charges by PACMAN v1.1 (https://github.com/mtap-research/PACMAN-charge/)
data_2017[Cu][nan]3[ASR]9
_chemical_formula_sum              "Cu4 H30 C46 O18"
_cell_length_a       15.6308
_cell_length_b       15.6308
_cell_length_c       5.781
_cell_angle_alpha    84.8147
_cell_angle_beta     95.1853
_cell_angle_gamma    70.1213

_symmetry_space_group_name_H-M    "P 1"
_symmetry_Int_Tables_number       1

loop_
  _symmetry_equiv_pos_as_xyz
  'x, y, z'

loop_
  _atom_site_type_symbol
  _atom_site_label
  _atom_site_symmetry_multiplicity
  _atom_site_fract_x
  _atom_site_fract_y
  _atom_site_fract_z
  _atom_site_occupancy
  _atom_site_charge
Cu  Cu1       1.0  0.06178  0.89504  0.95289  1.0000 0.9554012351
Cu  Cu2       1.0  0.89504  0.06178  0.54711  1.0000 0.9554012351
Cu  Cu3       1.0  0.93822  0.10496  0.04711  1.0000 0.9554012351
Cu  Cu4       1.0  0.10496  0.93822  0.45289  1.0000 0.9554012351
H   H1        1.0  0.74600  0.89380  0.44600  1.0000 0.1350186847
H   H2        1.0  0.60040  0.93500  0.28680  1.0000 0.1079144187
H   H3        1.0  0.64220  0.86600  0.10910  1.0000 0.1211864062
H   H4        1.0  0.53840  0.83360  0.82910  1.0000 0.1262976255
H   H5        1.0  0.39290  0.84150  0.68670  1.0000 0.1211864062
H   H6        1.0  0.29780  0.95320  0.24920  1.0000 0.1262976255
H   H7        1.0  0.44180  0.94920  0.38330  1.0000 0.1211864062
H   H8        1.0  0.89380  0.74600  0.05400  1.0000 0.1350186847
H   H9        1.0  0.93500  0.60040  0.21320  1.0000 0.1079144187
H   H10       1.0  0.86600  0.64220  0.39090  1.0000 0.1211864062
H   H11       1.0  0.83360  0.53840  0.67090  1.0000 0.1262976255
H   H12       1.0  0.84150  0.39290  0.81330  1.0000 0.1211864062
H   H13       1.0  0.95320  0.29780  0.25080  1.0000 0.1262976255
H   H14       1.0  0.94920  0.44180  0.11670  1.0000 0.1211864062
H   H15       1.0  0.25400  0.10620  0.55400  1.0000 0.1350186847
H   H16       1.0  0.39960  0.06500  0.71320  1.0000 0.1079144187
H   H17       1.0  0.35780  0.13400  0.89090  1.0000 0.1211864062
H   H18       1.0  0.46160  0.16640  0.17090  1.0000 0.1262976255
H   H19       1.0  0.60710  0.15850  0.31330  1.0000 0.1211864062
H   H20       1.0  0.70220  0.04680  0.75080  1.0000 0.1262976255
H   H21       1.0  0.55820  0.05080  0.61670  1.0000 0.1211864062
H   H22       1.0  0.10620  0.25400  0.94600  1.0000 0.1350186847
H   H23       1.0  0.06500  0.39960  0.78680  1.0000 0.1079144187
H   H24       1.0  0.13400  0.35780  0.60910  1.0000 0.1211864062
H   H25       1.0  0.16640  0.46160  0.32910  1.0000 0.1262976255
H   H26       1.0  0.15850  0.60710  0.18670  1.0000 0.1211864062
H   H27       1.0  0.04680  0.70220  0.74920  1.0000 0.1262976255
H   H28       1.0  0.05080  0.55820  0.88330  1.0000 0.1211864062
H   H29       1.0  0.68380  0.68380  0.75000  1.0000 0.1700929634
H   H30       1.0  0.31620  0.31620  0.25000  1.0000 0.1700929634
C   C1        1.0  0.75674  0.84676  0.56760  1.0000 -0.2944046624
C   C2        1.0  0.70217  0.79257  0.57360  1.0000 0.267174118
C   C3        1.0  0.60064  0.87884  0.22670  1.0000 -0.0746960632
C   C4        1.0  0.50613  0.88833  0.12420  1.0000 0.0912720568
C   C5        1.0  0.49004  0.85764  0.91460  1.0000 -0.1582234271
C   C6        1.0  0.40277  0.86197  0.82940  1.0000 -0.0997078449
C   C7        1.0  0.33044  0.89664  0.95550  1.0000 -0.0236341452
C   C8        1.0  0.34619  0.92899  0.16360  1.0000 -0.0876661867
C   C9        1.0  0.43258  0.92578  0.24470  1.0000 -0.1582234271
C   C10       1.0  0.23653  0.89941  0.86680  1.0000 0.5894387297
C   C11       1.0  0.84676  0.75674  0.93240  1.0000 -0.2944046624
C   C12       1.0  0.79257  0.70217  0.92640  1.0000 0.267174118
C   C13       1.0  0.87884  0.60064  0.27330  1.0000 -0.0746960632
C   C14       1.0  0.88833  0.50613  0.37580  1.0000 0.0912720568
C   C15       1.0  0.85764  0.49004  0.58540  1.0000 -0.1582234271
C   C16       1.0  0.86197  0.40277  0.67060  1.0000 -0.0997078449
C   C17       1.0  0.89664  0.33044  0.54450  1.0000 -0.0236341452
C   C18       1.0  0.92899  0.34619  0.33640  1.0000 -0.0876661867
C   C19       1.0  0.92578  0.43258  0.25530  1.0000 -0.1582234271
C   C20       1.0  0.89941  0.23653  0.63320  1.0000 0.5894387297
C   C21       1.0  0.24326  0.15324  0.43240  1.0000 -0.2944046624
C   C22       1.0  0.29783  0.20743  0.42640  1.0000 0.267174118
C   C23       1.0  0.39936  0.12116  0.77330  1.0000 -0.0746960632
C   C24       1.0  0.49387  0.11167  0.87580  1.0000 0.0912720568
C   C25       1.0  0.50996  0.14236  0.08540  1.0000 -0.1582234271
C   C26       1.0  0.59723  0.13803  0.17060  1.0000 -0.0997078449
C   C27       1.0  0.66956  0.10336  0.04450  1.0000 -0.0236341452
C   C28       1.0  0.65381  0.07101  0.83640  1.0000 -0.0876661867
C   C29       1.0  0.56742  0.07422  0.75530  1.0000 -0.1582234271
C   C30       1.0  0.76347  0.10059  0.13320  1.0000 0.5894387297
C   C31       1.0  0.15324  0.24326  0.06760  1.0000 -0.2950509556
C   C32       1.0  0.20743  0.29783  0.07360  1.0000 0.267174118
C   C33       1.0  0.12116  0.39936  0.72670  1.0000 -0.0746960632
C   C34       1.0  0.11167  0.49387  0.62420  1.0000 0.0912720568
C   C35       1.0  0.14236  0.50996  0.41460  1.0000 -0.1582234271
C   C36       1.0  0.13803  0.59723  0.32940  1.0000 -0.0997078449
C   C37       1.0  0.10336  0.66956  0.45550  1.0000 -0.0236341452
C   C38       1.0  0.07101  0.65381  0.66360  1.0000 -0.0876661867
C   C39       1.0  0.07422  0.56742  0.74470  1.0000 -0.1582234271
C   C40       1.0  0.10059  0.76347  0.36680  1.0000 0.5894387297
C   C41       1.0  0.82827  0.82827  0.75000  1.0000 0.0292199625
C   C42       1.0  0.72020  0.72020  0.75000  1.0000 -0.33956284
C   C43       1.0  0.88672  0.88672  0.75000  1.0000 0.5735713176
C   C44       1.0  0.17173  0.17173  0.25000  1.0000 0.0292199625
C   C45       1.0  0.27980  0.27980  0.25000  1.0000 -0.33956284
C   C46       1.0  0.11328  0.11328  0.25000  1.0000 0.5735713176
O   O1        1.0  0.17765  0.91451  0.00790  1.0000 -0.5193633802
O   O2        1.0  0.62818  0.80438  0.41200  1.0000 -0.1681925274
O   O3        1.0  0.94888  0.86906  0.91930  1.0000 -0.4778548695
O   O4        1.0  0.22210  0.88788  0.65600  1.0000 -0.5193633802
O   O5        1.0  0.91451  0.17765  0.49210  1.0000 -0.5193633802
O   O6        1.0  0.80438  0.62818  0.08800  1.0000 -0.1681925274
O   O7        1.0  0.86906  0.94888  0.58070  1.0000 -0.4778548695
O   O8        1.0  0.88788  0.22210  0.84400  1.0000 -0.5193633802
O   O9        1.0  0.82235  0.08549  0.99210  1.0000 -0.5193633802
O   O10       1.0  0.37182  0.19562  0.58800  1.0000 -0.1681925274
O   O11       1.0  0.05112  0.13094  0.08070  1.0000 -0.4778548695
O   O12       1.0  0.77790  0.11212  0.34400  1.0000 -0.5193633802
O   O13       1.0  0.08549  0.82235  0.50790  1.0000 -0.5193633802
O   O14       1.0  0.19562  0.37182  0.91200  1.0000 -0.1681925274
O   O15       1.0  0.13094  0.05112  0.41930  1.0000 -0.4778548695
O   O16       1.0  0.11212  0.77790  0.15600  1.0000 -0.5193633802
O   O17       1.0  0.01008  0.01008  0.75000  1.0000 -0.7945139475
O   O18       1.0  0.98992  0.98992  0.25000  1.0000 -0.7956577607
