# DDEC6 charges by PACMAN v1.1 (https://github.com/mtap-research/PACMAN-charge/)
data_2017[Cu][scu]3[ASR]3
_chemical_formula_sum              "Cu8 H56 C116 O32"
_cell_length_a       22.2993
_cell_length_b       22.2993
_cell_length_c       22.2993
_cell_angle_alpha    130.441
_cell_angle_beta     130.441
_cell_angle_gamma    72.7025

_symmetry_space_group_name_H-M    "P 1"
_symmetry_Int_Tables_number       1

loop_
  _symmetry_equiv_pos_as_xyz
  'x, y, z'

loop_
  _atom_site_type_symbol
  _atom_site_label
  _atom_site_symmetry_multiplicity
  _atom_site_fract_x
  _atom_site_fract_y
  _atom_site_fract_z
  _atom_site_occupancy
  _atom_site_charge
Cu  Cu1       1.0  0.50006  0.94188  0.00000  1.0000 0.8617963987
Cu  Cu2       1.0  0.05812  0.05812  0.55818  1.0000 0.8617963987
Cu  Cu3       1.0  0.94188  0.50006  0.00000  1.0000 0.8617963987
Cu  Cu4       1.0  0.49994  0.49994  0.44182  1.0000 0.8617963987
Cu  Cu5       1.0  0.51344  0.51344  0.57774  1.0000 0.8668903905
Cu  Cu6       1.0  0.48656  0.06430  0.00000  1.0000 0.8668903905
Cu  Cu7       1.0  0.93570  0.93570  0.42226  1.0000 0.8668903905
Cu  Cu8       1.0  0.06430  0.48656  0.00000  1.0000 0.8668903905
H   H1        1.0  0.52590  0.14960  0.56570  1.0000 0.1207085195
H   H2        1.0  0.85040  0.41610  0.37630  1.0000 0.1207085195
H   H3        1.0  0.58390  0.96020  0.43430  1.0000 0.1207085195
H   H4        1.0  0.03980  0.47410  0.62370  1.0000 0.1207085195
H   H5        1.0  0.47410  0.03980  0.62370  1.0000 0.1207085195
H   H6        1.0  0.41610  0.85040  0.37630  1.0000 0.1207085195
H   H7        1.0  0.96020  0.58390  0.43430  1.0000 0.1207085195
H   H8        1.0  0.14960  0.52590  0.56570  1.0000 0.1207085195
H   H9        1.0  0.52650  0.21000  0.51150  1.0000 0.1207085195
H   H10       1.0  0.79000  0.30150  0.31650  1.0000 0.1207085195
H   H11       1.0  0.69850  0.01500  0.48850  1.0000 0.1207085195
H   H12       1.0  0.98500  0.47350  0.68350  1.0000 0.1207085195
H   H13       1.0  0.47350  0.98500  0.68350  1.0000 0.1207085195
H   H14       1.0  0.30150  0.79000  0.31650  1.0000 0.1207085195
H   H15       1.0  0.01500  0.69850  0.48850  1.0000 0.1207085195
H   H16       1.0  0.21000  0.52650  0.51150  1.0000 0.1207085195
H   H17       1.0  0.38380  0.00570  0.22190  1.0000 0.1134779203
H   H18       1.0  0.99430  0.21620  0.37810  1.0000 0.1134779203
H   H19       1.0  0.78380  0.16190  0.77810  1.0000 0.1134779203
H   H20       1.0  0.83810  0.61620  0.62190  1.0000 0.1134779203
H   H21       1.0  0.61620  0.83810  0.62190  1.0000 0.1134779203
H   H22       1.0  0.21620  0.99430  0.37810  1.0000 0.1134779203
H   H23       1.0  0.16190  0.78380  0.77810  1.0000 0.1134779203
H   H24       1.0  0.00570  0.38380  0.22190  1.0000 0.1134779203
H   H25       1.0  0.38170  0.94710  0.27700  1.0000 0.1207085195
H   H26       1.0  0.05290  0.32990  0.43460  1.0000 0.1207085195
H   H27       1.0  0.67010  0.10470  0.72300  1.0000 0.1207085195
H   H28       1.0  0.89530  0.61830  0.56540  1.0000 0.1207085195
H   H29       1.0  0.61830  0.89530  0.56540  1.0000 0.1207085195
H   H30       1.0  0.32990  0.05290  0.43460  1.0000 0.1207085195
H   H31       1.0  0.10470  0.67010  0.72300  1.0000 0.1207085195
H   H32       1.0  0.94710  0.38170  0.27700  1.0000 0.1207085195
H   H33       1.0  0.47160  0.26540  0.43580  1.0000 0.1207085195
H   H34       1.0  0.73460  0.17040  0.20620  1.0000 0.1207085195
H   H35       1.0  0.82960  0.03580  0.56420  1.0000 0.1207085195
H   H36       1.0  0.96420  0.52840  0.79380  1.0000 0.1207085195
H   H37       1.0  0.52840  0.96420  0.79380  1.0000 0.1207085195
H   H38       1.0  0.17040  0.73460  0.20620  1.0000 0.1207085195
H   H39       1.0  0.03580  0.82960  0.56420  1.0000 0.1207085195
H   H40       1.0  0.26540  0.47160  0.43580  1.0000 0.1207085195
H   H41       1.0  0.48360  0.24330  0.24910  1.0000 0.1409664835
H   H42       1.0  0.75670  0.00580  0.24030  1.0000 0.1409664835
H   H43       1.0  0.99420  0.23450  0.75090  1.0000 0.1409664835
H   H44       1.0  0.76550  0.51640  0.75970  1.0000 0.1409664835
H   H45       1.0  0.51640  0.76550  0.75970  1.0000 0.1409664835
H   H46       1.0  0.00580  0.75670  0.24030  1.0000 0.1409664835
H   H47       1.0  0.23450  0.99420  0.75090  1.0000 0.1409664835
H   H48       1.0  0.24330  0.48360  0.24910  1.0000 0.1409664835
H   H49       1.0  0.46120  0.04640  0.21320  1.0000 0.1207085195
H   H50       1.0  0.95360  0.16680  0.41480  1.0000 0.1207085195
H   H51       1.0  0.83320  0.24800  0.78680  1.0000 0.1207085195
H   H52       1.0  0.75200  0.53880  0.58520  1.0000 0.1207085195
H   H53       1.0  0.53880  0.75200  0.58520  1.0000 0.1207085195
H   H54       1.0  0.16680  0.95360  0.41480  1.0000 0.1207085195
H   H55       1.0  0.24800  0.83320  0.78680  1.0000 0.1207085195
H   H56       1.0  0.04640  0.46120  0.21320  1.0000 0.1207085195
C   C1        1.0  0.46410  0.00000  0.46410  1.0000 -0.0280391154
C   C2        1.0  0.00000  0.46410  0.46410  1.0000 -0.0280391154
C   C3        1.0  0.53590  0.00000  0.53590  1.0000 -0.0280391154
C   C4        1.0  0.00000  0.53590  0.53590  1.0000 -0.0280391154
C   C5        1.0  0.45771  0.04059  0.42754  1.0000 0.0701732804
C   C6        1.0  0.95941  0.38695  0.41712  1.0000 0.0701732804
C   C7        1.0  0.61305  0.03017  0.57246  1.0000 0.0701732804
C   C8        1.0  0.96983  0.54229  0.58288  1.0000 0.0701732804
C   C9        1.0  0.54229  0.96983  0.58288  1.0000 0.0701732804
C   C10       1.0  0.38695  0.95941  0.41712  1.0000 0.0701732804
C   C11       1.0  0.03017  0.61305  0.57246  1.0000 0.0701732804
C   C12       1.0  0.04059  0.45771  0.42754  1.0000 0.0701732804
C   C13       1.0  0.49806  0.11959  0.49579  1.0000 -0.1483372711
C   C14       1.0  0.88041  0.37620  0.37847  1.0000 -0.1483372711
C   C15       1.0  0.62380  0.00227  0.50421  1.0000 -0.1483372711
C   C16       1.0  0.99773  0.50194  0.62153  1.0000 -0.1483372711
C   C17       1.0  0.50194  0.99773  0.62153  1.0000 -0.1483372711
C   C18       1.0  0.37620  0.88041  0.37847  1.0000 -0.1483372711
C   C19       1.0  0.00227  0.62380  0.50421  1.0000 -0.1483372711
C   C20       1.0  0.11959  0.49806  0.49579  1.0000 -0.1483372711
C   C21       1.0  0.49852  0.15562  0.46356  1.0000 -0.1420108529
C   C22       1.0  0.84438  0.30794  0.34290  1.0000 -0.1483372711
C   C23       1.0  0.69206  0.03496  0.53644  1.0000 -0.1420108529
C   C24       1.0  0.96504  0.50148  0.65710  1.0000 -0.1483372711
C   C25       1.0  0.50148  0.96504  0.65710  1.0000 -0.1483372711
C   C26       1.0  0.30794  0.84438  0.34290  1.0000 -0.1483372711
C   C27       1.0  0.03496  0.69206  0.53644  1.0000 -0.1483372711
C   C28       1.0  0.15562  0.49852  0.46356  1.0000 -0.1483372711
C   C29       1.0  0.45870  0.11305  0.36245  1.0000 0.0701732804
C   C30       1.0  0.88695  0.24940  0.34565  1.0000 0.0701732804
C   C31       1.0  0.75060  0.09625  0.63755  1.0000 0.0701732804
C   C32       1.0  0.90375  0.54130  0.65435  1.0000 0.0701732804
C   C33       1.0  0.54130  0.90375  0.65435  1.0000 0.0701732804
C   C34       1.0  0.24940  0.88695  0.34565  1.0000 0.0701732804
C   C35       1.0  0.09625  0.75060  0.63755  1.0000 0.0701732804
C   C36       1.0  0.11305  0.45870  0.36245  1.0000 0.0701732804
C   C37       1.0  0.41379  0.03476  0.29209  1.0000 -0.1483372711
C   C38       1.0  0.96524  0.25733  0.37903  1.0000 -0.1483372711
C   C39       1.0  0.74267  0.12170  0.70791  1.0000 -0.1483372711
C   C40       1.0  0.87830  0.58621  0.62097  1.0000 -0.1483372711
C   C41       1.0  0.58621  0.87830  0.62097  1.0000 -0.1483372711
C   C42       1.0  0.25733  0.96524  0.37903  1.0000 -0.1483372711
C   C43       1.0  0.12170  0.74267  0.70791  1.0000 -0.1483372711
C   C44       1.0  0.03476  0.41379  0.29209  1.0000 -0.1483372711
C   C45       1.0  0.41309  0.99978  0.32509  1.0000 -0.155491392
C   C46       1.0  0.00022  0.32531  0.41331  1.0000 -0.155491392
C   C47       1.0  0.67469  0.08800  0.67491  1.0000 -0.1483372711
C   C48       1.0  0.91200  0.58691  0.58669  1.0000 -0.1483372711
C   C49       1.0  0.58691  0.91200  0.58669  1.0000 -0.1483372711
C   C50       1.0  0.32531  0.00022  0.41331  1.0000 -0.1483372711
C   C51       1.0  0.08800  0.67469  0.67491  1.0000 -0.1483372711
C   C52       1.0  0.99978  0.41309  0.32509  1.0000 -0.1483372711
C   C53       1.0  0.46539  0.14951  0.32890  1.0000 0.0626796476
C   C54       1.0  0.85049  0.17939  0.31588  1.0000 0.0626796476
C   C55       1.0  0.82061  0.13649  0.67110  1.0000 0.0626796476
C   C56       1.0  0.86351  0.53461  0.68412  1.0000 0.0626796476
C   C57       1.0  0.53461  0.86351  0.68412  1.0000 0.0626796476
C   C58       1.0  0.17939  0.85049  0.31588  1.0000 0.0626796476
C   C59       1.0  0.13649  0.82061  0.67110  1.0000 0.0626796476
C   C60       1.0  0.14951  0.46539  0.32890  1.0000 0.0626796476
C   C61       1.0  0.47211  0.23249  0.38038  1.0000 -0.1420108529
C   C62       1.0  0.76751  0.14789  0.23962  1.0000 -0.1420108529
C   C63       1.0  0.85211  0.09173  0.61962  1.0000 -0.1420108529
C   C64       1.0  0.90827  0.52789  0.76038  1.0000 -0.1420108529
C   C65       1.0  0.52789  0.90827  0.76038  1.0000 -0.1420108529
C   C66       1.0  0.14789  0.76751  0.23962  1.0000 -0.1420108529
C   C67       1.0  0.09173  0.85211  0.61962  1.0000 -0.1420108529
C   C68       1.0  0.23249  0.47211  0.38038  1.0000 -0.1420108529
C   C69       1.0  0.47946  0.26718  0.35124  1.0000 -0.0179031219
C   C70       1.0  0.73282  0.08406  0.21228  1.0000 -0.0179031219
C   C71       1.0  0.91594  0.12822  0.64876  1.0000 -0.0179031219
C   C72       1.0  0.87178  0.52054  0.78772  1.0000 -0.0179031219
C   C73       1.0  0.52054  0.87178  0.78772  1.0000 -0.0179031219
C   C74       1.0  0.08406  0.73282  0.21228  1.0000 -0.0179031219
C   C75       1.0  0.12822  0.91594  0.64876  1.0000 -0.0179031219
C   C76       1.0  0.26718  0.47946  0.35124  1.0000 -0.0179031219
C   C77       1.0  0.47946  0.21945  0.26965  1.0000 -0.094592898
C   C78       1.0  0.78055  0.05020  0.26001  1.0000 -0.094592898
C   C79       1.0  0.94980  0.20981  0.73035  1.0000 -0.094592898
C   C80       1.0  0.79019  0.52054  0.73999  1.0000 -0.094592898
C   C81       1.0  0.52054  0.79019  0.73999  1.0000 -0.094592898
C   C82       1.0  0.05020  0.78055  0.26001  1.0000 -0.094592898
C   C83       1.0  0.20981  0.94980  0.73035  1.0000 -0.094592898
C   C84       1.0  0.21945  0.47946  0.26965  1.0000 -0.094592898
C   C85       1.0  0.47351  0.13775  0.21870  1.0000 -0.0179031219
C   C86       1.0  0.86225  0.08095  0.33576  1.0000 -0.0179031219
C   C87       1.0  0.91905  0.25481  0.78130  1.0000 -0.0179031219
C   C88       1.0  0.74519  0.52649  0.66424  1.0000 -0.0179031219
C   C89       1.0  0.52649  0.74519  0.66424  1.0000 -0.0179031219
C   C90       1.0  0.08095  0.86225  0.33576  1.0000 -0.0179031219
C   C91       1.0  0.25481  0.91905  0.78130  1.0000 -0.0179031219
C   C92       1.0  0.13775  0.47351  0.21870  1.0000 -0.0179031219
C   C93       1.0  0.46592  0.10287  0.24877  1.0000 -0.1420108529
C   C94       1.0  0.89713  0.14590  0.36305  1.0000 -0.1420108529
C   C95       1.0  0.85410  0.21715  0.75123  1.0000 -0.1420108529
C   C96       1.0  0.78285  0.53408  0.63695  1.0000 -0.1420108529
C   C97       1.0  0.53408  0.78285  0.63695  1.0000 -0.1420108529
C   C98       1.0  0.14590  0.89713  0.36305  1.0000 -0.1420108529
C   C99       1.0  0.21715  0.85410  0.75123  1.0000 -0.1420108529
C   C100      1.0  0.10287  0.46592  0.24877  1.0000 -0.1420108529
C   C101      1.0  0.47863  0.08647  0.13546  1.0000 0.5832633573
C   C102      1.0  0.91353  0.04899  0.39216  1.0000 0.5832633573
C   C103      1.0  0.95101  0.34317  0.86454  1.0000 0.5832633573
C   C104      1.0  0.65683  0.52137  0.60784  1.0000 0.5832633573
C   C105      1.0  0.52137  0.65683  0.60784  1.0000 0.5832633573
C   C106      1.0  0.04899  0.91353  0.39216  1.0000 0.5832633573
C   C107      1.0  0.34317  0.95101  0.86454  1.0000 0.5832633573
C   C108      1.0  0.08647  0.47863  0.13546  1.0000 0.5832633573
C   C109      1.0  0.48989  0.35668  0.41017  1.0000 0.5832633573
C   C110      1.0  0.64332  0.05349  0.13321  1.0000 0.5832633573
C   C111      1.0  0.94651  0.07972  0.58983  1.0000 0.5832633573
C   C112      1.0  0.92028  0.51011  0.86679  1.0000 0.5832633573
C   C113      1.0  0.51011  0.92028  0.86679  1.0000 0.5832633573
C   C114      1.0  0.05349  0.64332  0.13321  1.0000 0.5832633573
C   C115      1.0  0.07972  0.94651  0.58983  1.0000 0.5832633573
C   C116      1.0  0.35668  0.48989  0.41017  1.0000 0.5832633573
O   O1        1.0  0.48583  0.01540  0.10309  1.0000 -0.518849532
O   O2        1.0  0.98460  0.08769  0.47043  1.0000 -0.518849532
O   O3        1.0  0.91231  0.38274  0.89691  1.0000 -0.518849532
O   O4        1.0  0.61726  0.51417  0.52957  1.0000 -0.518849532
O   O5        1.0  0.51417  0.61726  0.52957  1.0000 -0.518849532
O   O6        1.0  0.08769  0.98460  0.47043  1.0000 -0.518849532
O   O7        1.0  0.38274  0.91231  0.89691  1.0000 -0.518849532
O   O8        1.0  0.01540  0.48583  0.10309  1.0000 -0.518849532
O   O9        1.0  0.47602  0.11946  0.10442  1.0000 -0.518849532
O   O10       1.0  0.88054  0.98496  0.35656  1.0000 -0.518849532
O   O11       1.0  0.01504  0.37160  0.89558  1.0000 -0.518849532
O   O12       1.0  0.62840  0.52398  0.64344  1.0000 -0.518849532
O   O13       1.0  0.52398  0.62840  0.64344  1.0000 -0.518849532
O   O14       1.0  0.98496  0.88054  0.35656  1.0000 -0.518849532
O   O15       1.0  0.37160  0.01504  0.89558  1.0000 -0.518849532
O   O16       1.0  0.11946  0.47602  0.10442  1.0000 -0.518849532
O   O17       1.0  0.49920  0.39655  0.48995  1.0000 -0.518849532
O   O18       1.0  0.60345  0.09340  0.10265  1.0000 -0.518849532
O   O19       1.0  0.90660  0.00925  0.51005  1.0000 -0.518849532
O   O20       1.0  0.99075  0.50080  0.89735  1.0000 -0.518849532
O   O21       1.0  0.50080  0.99075  0.89735  1.0000 -0.518849532
O   O22       1.0  0.09340  0.60345  0.10265  1.0000 -0.518849532
O   O23       1.0  0.00925  0.90660  0.51005  1.0000 -0.518849532
O   O24       1.0  0.39655  0.49920  0.48995  1.0000 -0.518849532
O   O25       1.0  0.48870  0.38465  0.37543  1.0000 -0.5133383078
O   O26       1.0  0.61535  0.99078  0.10405  1.0000 -0.5133383078
O   O27       1.0  0.00922  0.11327  0.62457  1.0000 -0.5133383078
O   O28       1.0  0.88673  0.51130  0.89595  1.0000 -0.5133383078
O   O29       1.0  0.51130  0.88673  0.89595  1.0000 -0.5133383078
O   O30       1.0  0.99078  0.61535  0.10405  1.0000 -0.5133383078
O   O31       1.0  0.11327  0.00922  0.62457  1.0000 -0.5133383078
O   O32       1.0  0.38465  0.48870  0.37543  1.0000 -0.5133383078
