# DDEC6 charges by PACMAN v1.1 (https://github.com/mtap-research/PACMAN-charge/)
data_2017[Zn][nan]3[ASR]26
_chemical_formula_sum              "Zn12 H88 C160 N8 O48"
_cell_length_a       16.7962
_cell_length_b       16.7962
_cell_length_c       26.737
_cell_angle_alpha    88.5691
_cell_angle_beta     91.4309
_cell_angle_gamma    95.253

_symmetry_space_group_name_H-M    "P 1"
_symmetry_Int_Tables_number       1

loop_
  _symmetry_equiv_pos_as_xyz
  'x, y, z'

loop_
  _atom_site_type_symbol
  _atom_site_label
  _atom_site_symmetry_multiplicity
  _atom_site_fract_x
  _atom_site_fract_y
  _atom_site_fract_z
  _atom_site_occupancy
  _atom_site_charge
Zn  Zn1       1.0  0.54863  0.93309  0.01132  1.0000 0.8283643896
Zn  Zn2       1.0  0.03533  0.52827  0.90253  1.0000 0.8283643896
Zn  Zn3       1.0  0.94630  0.70038  0.88663  1.0000 0.9429746369
Zn  Zn4       1.0  0.93309  0.54863  0.48868  1.0000 0.8283643896
Zn  Zn5       1.0  0.52827  0.03533  0.59747  1.0000 0.8283643896
Zn  Zn6       1.0  0.70038  0.94630  0.61337  1.0000 0.9429746369
Zn  Zn7       1.0  0.45137  0.06691  0.98868  1.0000 0.8283643896
Zn  Zn8       1.0  0.96467  0.47173  0.09747  1.0000 0.8283643896
Zn  Zn9       1.0  0.05370  0.29962  0.11337  1.0000 0.9429746369
Zn  Zn10      1.0  0.06691  0.45137  0.51132  1.0000 0.8283643896
Zn  Zn11      1.0  0.47173  0.96467  0.40253  1.0000 0.8283643896
Zn  Zn12      1.0  0.29962  0.05370  0.38663  1.0000 0.9429746369
H   H1        1.0  0.76280  0.08160  0.05600  1.0000 0.1209249174
H   H2        1.0  0.87290  0.17010  0.06980  1.0000 0.1292242351
H   H3        1.0  0.64330  0.26390  0.00120  1.0000 0.1209249174
H   H4        1.0  0.85940  0.39940  0.97890  1.0000 0.1209249174
H   H5        1.0  0.64060  0.39980  0.03460  1.0000 0.1209249174
H   H6        1.0  0.63140  0.52440  0.00010  1.0000 0.1120116917
H   H7        1.0  0.73850  0.59130  0.95940  1.0000 0.1209249174
H   H8        1.0  0.02090  0.45970  0.75300  1.0000 0.1209249174
H   H9        1.0  0.94870  0.67630  0.73080  1.0000 0.1292242351
H   H10       1.0  0.03090  0.44950  0.66830  1.0000 0.1292242351
H   H11       1.0  0.05580  0.69460  0.59260  1.0000 0.1209249174
H   H12       1.0  0.04920  0.81520  0.55040  1.0000 0.1209249174
H   H13       1.0  0.92860  0.87600  0.55410  1.0000 0.1209249174
H   H14       1.0  0.85420  0.72000  0.66240  1.0000 0.1209249174
H   H15       1.0  0.03300  0.37860  0.96750  1.0000 0.1209249174
H   H16       1.0  0.17670  0.47350  0.86870  1.0000 0.1209249174
H   H17       1.0  0.11560  0.27580  0.98400  1.0000 0.1562265555
H   H18       1.0  0.26560  0.37440  0.88170  1.0000 0.1400135557
H   H19       1.0  0.22790  0.23250  0.02020  1.0000 0.1400135557
H   H20       1.0  0.30550  0.25270  0.88210  1.0000 0.1292242351
H   H21       1.0  0.30930  0.12610  0.03200  1.0000 0.1036264846
H   H22       1.0  0.40380  0.17220  0.90320  1.0000 0.1292242351
H   H23       1.0  0.08160  0.76280  0.44400  1.0000 0.1209249174
H   H24       1.0  0.17010  0.87290  0.43020  1.0000 0.1292242351
H   H25       1.0  0.26390  0.64330  0.49880  1.0000 0.1209249174
H   H26       1.0  0.39940  0.85940  0.52110  1.0000 0.1209249174
H   H27       1.0  0.39980  0.64060  0.46540  1.0000 0.1209249174
H   H28       1.0  0.52440  0.63140  0.49990  1.0000 0.1120116917
H   H29       1.0  0.59130  0.73850  0.54060  1.0000 0.1209249174
H   H30       1.0  0.45970  0.02090  0.74700  1.0000 0.1209249174
H   H31       1.0  0.67630  0.94870  0.76920  1.0000 0.1292242351
H   H32       1.0  0.44950  0.03090  0.83170  1.0000 0.1292242351
H   H33       1.0  0.69460  0.05580  0.90740  1.0000 0.1209249174
H   H34       1.0  0.81520  0.04920  0.94960  1.0000 0.1209249174
H   H35       1.0  0.87600  0.92860  0.94590  1.0000 0.1209249174
H   H36       1.0  0.72000  0.85420  0.83760  1.0000 0.1209249174
H   H37       1.0  0.37860  0.03300  0.53250  1.0000 0.1209249174
H   H38       1.0  0.47350  0.17670  0.63130  1.0000 0.1209249174
H   H39       1.0  0.27580  0.11560  0.51600  1.0000 0.1562265555
H   H40       1.0  0.37440  0.26560  0.61830  1.0000 0.1400135557
H   H41       1.0  0.23250  0.22790  0.47980  1.0000 0.1400135557
H   H42       1.0  0.25270  0.30550  0.61790  1.0000 0.1292242351
H   H43       1.0  0.12610  0.30930  0.46800  1.0000 0.1036264846
H   H44       1.0  0.17220  0.40380  0.59680  1.0000 0.1292242351
H   H45       1.0  0.23720  0.91840  0.94400  1.0000 0.1209249174
H   H46       1.0  0.12710  0.82990  0.93020  1.0000 0.1292242351
H   H47       1.0  0.35670  0.73610  0.99880  1.0000 0.1209249174
H   H48       1.0  0.14060  0.60060  0.02110  1.0000 0.1209249174
H   H49       1.0  0.35940  0.60020  0.96540  1.0000 0.1209249174
H   H50       1.0  0.36860  0.47560  0.99990  1.0000 0.1120116917
H   H51       1.0  0.26150  0.40870  0.04060  1.0000 0.1209249174
H   H52       1.0  0.97910  0.54030  0.24700  1.0000 0.1209249174
H   H53       1.0  0.05130  0.32370  0.26920  1.0000 0.1292242351
H   H54       1.0  0.96910  0.55050  0.33170  1.0000 0.1292242351
H   H55       1.0  0.94420  0.30540  0.40740  1.0000 0.1209249174
H   H56       1.0  0.95080  0.18480  0.44960  1.0000 0.1209249174
H   H57       1.0  0.07140  0.12400  0.44590  1.0000 0.1209249174
H   H58       1.0  0.14580  0.28000  0.33760  1.0000 0.1209249174
H   H59       1.0  0.96700  0.62140  0.03250  1.0000 0.1209249174
H   H60       1.0  0.82330  0.52650  0.13130  1.0000 0.1209249174
H   H61       1.0  0.88440  0.72420  0.01600  1.0000 0.1562265555
H   H62       1.0  0.73440  0.62560  0.11830  1.0000 0.1400135557
H   H63       1.0  0.77210  0.76750  0.97980  1.0000 0.1400135557
H   H64       1.0  0.69450  0.74730  0.11790  1.0000 0.1292242351
H   H65       1.0  0.69070  0.87390  0.96800  1.0000 0.1036264846
H   H66       1.0  0.59620  0.82780  0.09680  1.0000 0.1292242351
H   H67       1.0  0.91840  0.23720  0.55600  1.0000 0.1209249174
H   H68       1.0  0.82990  0.12710  0.56980  1.0000 0.1292242351
H   H69       1.0  0.73610  0.35670  0.50120  1.0000 0.1209249174
H   H70       1.0  0.60060  0.14060  0.47890  1.0000 0.1209249174
H   H71       1.0  0.60020  0.35940  0.53460  1.0000 0.1209249174
H   H72       1.0  0.47560  0.36860  0.50010  1.0000 0.1120116917
H   H73       1.0  0.40870  0.26150  0.45940  1.0000 0.1209249174
H   H74       1.0  0.54030  0.97910  0.25300  1.0000 0.1209249174
H   H75       1.0  0.32370  0.05130  0.23080  1.0000 0.1292242351
H   H76       1.0  0.55050  0.96910  0.16830  1.0000 0.1292242351
H   H77       1.0  0.30540  0.94420  0.09260  1.0000 0.1209249174
H   H78       1.0  0.18480  0.95080  0.05040  1.0000 0.1209249174
H   H79       1.0  0.12400  0.07140  0.05410  1.0000 0.1209249174
H   H80       1.0  0.28000  0.14580  0.16240  1.0000 0.1209249174
H   H81       1.0  0.62140  0.96700  0.46750  1.0000 0.1209249174
H   H82       1.0  0.52650  0.82330  0.36870  1.0000 0.1209249174
H   H83       1.0  0.72420  0.88440  0.48400  1.0000 0.1562265555
H   H84       1.0  0.62560  0.73440  0.38170  1.0000 0.1400135557
H   H85       1.0  0.76750  0.77210  0.52020  1.0000 0.1400135557
H   H86       1.0  0.74730  0.69450  0.38210  1.0000 0.1292242351
H   H87       1.0  0.87390  0.69070  0.53200  1.0000 0.1036264846
H   H88       1.0  0.82780  0.59620  0.40320  1.0000 0.1292242351
C   C1        1.0  0.61810  0.10670  0.01430  1.0000 0.5701350967
C   C2        1.0  0.68840  0.16160  0.02620  1.0000 -0.043856527
C   C3        1.0  0.76030  0.13550  0.04790  1.0000 -0.110586413
C   C4        1.0  0.82570  0.18870  0.05710  1.0000 -0.110586413
C   C5        1.0  0.82250  0.26910  0.04780  1.0000 -0.043856527
C   C6        1.0  0.75240  0.29860  0.02500  1.0000 0.0427727873
C   C7        1.0  0.68910  0.24510  0.01550  1.0000 -0.1437218103
C   C8        1.0  0.89400  0.32460  0.06580  1.0000 0.5701350967
C   C9        1.0  0.74900  0.38200  0.00920  1.0000 0.0762060607
C   C10       1.0  0.81290  0.42410  0.98350  1.0000 -0.1523442318
C   C11       1.0  0.68280  0.42380  0.01620  1.0000 -0.1437218103
C   C12       1.0  0.67810  0.49950  0.99650  1.0000 -0.110586413
C   C13       1.0  0.74130  0.53930  0.97160  1.0000 -0.1202188917
C   C14       1.0  0.80770  0.50050  0.96540  1.0000 -0.0227512762
C   C15       1.0  0.87790  0.54550  0.93960  1.0000 0.5906647543
C   C16       1.0  0.98520  0.58100  0.80500  1.0000 0.6049717168
C   C17       1.0  0.98700  0.57180  0.75020  1.0000 -0.0321882384
C   C18       1.0  0.00920  0.50180  0.73170  1.0000 -0.0987646257
C   C19       1.0  0.96740  0.63100  0.71770  1.0000 -0.1259517124
C   C20       1.0  0.01350  0.49570  0.68110  1.0000 -0.1202188917
C   C21       1.0  0.99330  0.55510  0.64830  1.0000 -0.0593212325
C   C22       1.0  0.97350  0.62790  0.66710  1.0000 0.0608771745
C   C23       1.0  0.99700  0.53660  0.59310  1.0000 0.5906647543
C   C24       1.0  0.96130  0.69930  0.63360  1.0000 0.0608771745
C   C25       1.0  0.01370  0.72510  0.59850  1.0000 -0.1202188917
C   C26       1.0  0.00820  0.79440  0.57090  1.0000 -0.0987646257
C   C27       1.0  0.93710  0.83250  0.57510  1.0000 -0.110586413
C   C28       1.0  0.89220  0.73880  0.63920  1.0000 -0.1437218103
C   C29       1.0  0.88070  0.80730  0.60940  1.0000 -0.0487616969
C   C30       1.0  0.80960  0.85100  0.61590  1.0000 0.5371704797
C   C31       1.0  0.08050  0.37790  0.95040  1.0000 0.1120116917
C   C32       1.0  0.16500  0.43320  0.89260  1.0000 0.1120116917
C   C33       1.0  0.13110  0.31690  0.96130  1.0000 -0.1741746043
C   C34       1.0  0.22010  0.37470  0.90080  1.0000 -0.2017284738
C   C35       1.0  0.20290  0.31830  0.93830  1.0000 0.1120116917
C   C36       1.0  0.26150  0.25730  0.94930  1.0000 0.1036264846
C   C37       1.0  0.26150  0.21930  0.99520  1.0000 -0.188007369
C   C38       1.0  0.31030  0.23390  0.91500  1.0000 -0.188007369
C   C39       1.0  0.31500  0.15880  0.00350  1.0000 0.1209249174
C   C40       1.0  0.36720  0.18280  0.92710  1.0000 0.0608771745
C   C41       1.0  0.10670  0.61810  0.48570  1.0000 0.5701350967
C   C42       1.0  0.16160  0.68840  0.47380  1.0000 -0.043856527
C   C43       1.0  0.13550  0.76030  0.45210  1.0000 -0.110586413
C   C44       1.0  0.18870  0.82570  0.44290  1.0000 -0.110586413
C   C45       1.0  0.26910  0.82250  0.45220  1.0000 -0.043856527
C   C46       1.0  0.29860  0.75240  0.47500  1.0000 0.0427727873
C   C47       1.0  0.24510  0.68910  0.48450  1.0000 -0.1437218103
C   C48       1.0  0.32460  0.89400  0.43420  1.0000 0.5701350967
C   C49       1.0  0.38200  0.74900  0.49080  1.0000 0.0762060607
C   C50       1.0  0.42410  0.81290  0.51650  1.0000 -0.1523442318
C   C51       1.0  0.42380  0.68280  0.48380  1.0000 -0.1437218103
C   C52       1.0  0.49950  0.67810  0.50350  1.0000 -0.110586413
C   C53       1.0  0.53930  0.74130  0.52840  1.0000 -0.1202188917
C   C54       1.0  0.50050  0.80770  0.53460  1.0000 -0.0227512762
C   C55       1.0  0.54550  0.87790  0.56040  1.0000 0.5906647543
C   C56       1.0  0.58100  0.98520  0.69500  1.0000 0.6049717168
C   C57       1.0  0.57180  0.98700  0.74980  1.0000 -0.0321882384
C   C58       1.0  0.50180  0.00920  0.76830  1.0000 -0.0987646257
C   C59       1.0  0.63100  0.96740  0.78230  1.0000 -0.1259517124
C   C60       1.0  0.49570  0.01350  0.81890  1.0000 -0.1202188917
C   C61       1.0  0.55510  0.99330  0.85170  1.0000 -0.0593212325
C   C62       1.0  0.62790  0.97350  0.83290  1.0000 0.0608771745
C   C63       1.0  0.53660  0.99700  0.90690  1.0000 0.5906647543
C   C64       1.0  0.69930  0.96130  0.86640  1.0000 0.0608771745
C   C65       1.0  0.72510  0.01370  0.90150  1.0000 -0.1202188917
C   C66       1.0  0.79440  0.00820  0.92910  1.0000 -0.0987646257
C   C67       1.0  0.83250  0.93710  0.92490  1.0000 -0.110586413
C   C68       1.0  0.73880  0.89220  0.86080  1.0000 -0.1437218103
C   C69       1.0  0.80730  0.88070  0.89060  1.0000 -0.0487616969
C   C70       1.0  0.85100  0.80960  0.88410  1.0000 0.5371704797
C   C71       1.0  0.37790  0.08050  0.54960  1.0000 0.1120116917
C   C72       1.0  0.43320  0.16500  0.60740  1.0000 0.1120116917
C   C73       1.0  0.31690  0.13110  0.53870  1.0000 -0.1741746043
C   C74       1.0  0.37470  0.22010  0.59920  1.0000 -0.2017284738
C   C75       1.0  0.31830  0.20290  0.56170  1.0000 0.1120116917
C   C76       1.0  0.25730  0.26150  0.55070  1.0000 0.1036264846
C   C77       1.0  0.21930  0.26150  0.50480  1.0000 -0.188007369
C   C78       1.0  0.23390  0.31030  0.58500  1.0000 -0.188007369
C   C79       1.0  0.15880  0.31500  0.49650  1.0000 0.1209249174
C   C80       1.0  0.18280  0.36720  0.57290  1.0000 0.065629132
C   C81       1.0  0.38190  0.89330  0.98570  1.0000 0.5701350967
C   C82       1.0  0.31160  0.83840  0.97380  1.0000 -0.043856527
C   C83       1.0  0.23970  0.86450  0.95210  1.0000 -0.110586413
C   C84       1.0  0.17430  0.81130  0.94290  1.0000 -0.110586413
C   C85       1.0  0.17750  0.73090  0.95220  1.0000 -0.043856527
C   C86       1.0  0.24760  0.70140  0.97500  1.0000 0.0427727873
C   C87       1.0  0.31090  0.75490  0.98450  1.0000 -0.1437218103
C   C88       1.0  0.10600  0.67540  0.93420  1.0000 0.5701350967
C   C89       1.0  0.25100  0.61800  0.99080  1.0000 0.0762060607
C   C90       1.0  0.18710  0.57590  0.01650  1.0000 -0.1523442318
C   C91       1.0  0.31720  0.57620  0.98380  1.0000 -0.1437218103
C   C92       1.0  0.32190  0.50050  0.00350  1.0000 -0.110586413
C   C93       1.0  0.25870  0.46070  0.02840  1.0000 -0.1202188917
C   C94       1.0  0.19230  0.49950  0.03460  1.0000 -0.0227512762
C   C95       1.0  0.12210  0.45450  0.06040  1.0000 0.5906647543
C   C96       1.0  0.01480  0.41900  0.19500  1.0000 0.605572174
C   C97       1.0  0.01300  0.42820  0.24980  1.0000 -0.0321882384
C   C98       1.0  0.99080  0.49820  0.26830  1.0000 -0.0987646257
C   C99       1.0  0.03260  0.36900  0.28230  1.0000 -0.1259517124
C   C100      1.0  0.98650  0.50430  0.31890  1.0000 -0.1202188917
C   C101      1.0  0.00670  0.44490  0.35170  1.0000 -0.0593212325
C   C102      1.0  0.02650  0.37210  0.33290  1.0000 0.0608771745
C   C103      1.0  0.00300  0.46340  0.40690  1.0000 0.5906647543
C   C104      1.0  0.03870  0.30070  0.36640  1.0000 0.0608771745
C   C105      1.0  0.98630  0.27490  0.40150  1.0000 -0.1202188917
C   C106      1.0  0.99180  0.20560  0.42910  1.0000 -0.0987646257
C   C107      1.0  0.06290  0.16750  0.42490  1.0000 -0.110586413
C   C108      1.0  0.10780  0.26120  0.36080  1.0000 -0.1437218103
C   C109      1.0  0.11930  0.19270  0.39060  1.0000 -0.0487616969
C   C110      1.0  0.19040  0.14900  0.38410  1.0000 0.5371704797
C   C111      1.0  0.91950  0.62210  0.04960  1.0000 0.1120116917
C   C112      1.0  0.83500  0.56680  0.10740  1.0000 0.1120116917
C   C113      1.0  0.86890  0.68310  0.03870  1.0000 -0.1741746043
C   C114      1.0  0.77990  0.62530  0.09920  1.0000 -0.2017284738
C   C115      1.0  0.79710  0.68170  0.06170  1.0000 0.1120116917
C   C116      1.0  0.73850  0.74270  0.05070  1.0000 0.1036264846
C   C117      1.0  0.73850  0.78070  0.00480  1.0000 -0.188007369
C   C118      1.0  0.68970  0.76610  0.08500  1.0000 -0.188007369
C   C119      1.0  0.68500  0.84120  0.99650  1.0000 0.1209249174
C   C120      1.0  0.63280  0.81720  0.07290  1.0000 0.065629132
C   C121      1.0  0.89330  0.38190  0.51430  1.0000 0.5701350967
C   C122      1.0  0.83840  0.31160  0.52620  1.0000 -0.043856527
C   C123      1.0  0.86450  0.23970  0.54790  1.0000 -0.110586413
C   C124      1.0  0.81130  0.17430  0.55710  1.0000 -0.110586413
C   C125      1.0  0.73090  0.17750  0.54780  1.0000 -0.043856527
C   C126      1.0  0.70140  0.24760  0.52500  1.0000 0.0427727873
C   C127      1.0  0.75490  0.31090  0.51550  1.0000 -0.1437218103
C   C128      1.0  0.67540  0.10600  0.56580  1.0000 0.5701350967
C   C129      1.0  0.61800  0.25100  0.50920  1.0000 0.0762060607
C   C130      1.0  0.57590  0.18710  0.48350  1.0000 -0.1523442318
C   C131      1.0  0.57620  0.31720  0.51620  1.0000 -0.1437218103
C   C132      1.0  0.50050  0.32190  0.49650  1.0000 -0.110586413
C   C133      1.0  0.46070  0.25870  0.47160  1.0000 -0.1202188917
C   C134      1.0  0.49950  0.19230  0.46540  1.0000 -0.0227512762
C   C135      1.0  0.45450  0.12210  0.43960  1.0000 0.5906647543
C   C136      1.0  0.41900  0.01480  0.30500  1.0000 0.6049717168
C   C137      1.0  0.42820  0.01300  0.25020  1.0000 -0.0321882384
C   C138      1.0  0.49820  0.99080  0.23170  1.0000 -0.0987646257
C   C139      1.0  0.36900  0.03260  0.21770  1.0000 -0.1259517124
C   C140      1.0  0.50430  0.98650  0.18110  1.0000 -0.1202188917
C   C141      1.0  0.44490  0.00670  0.14830  1.0000 -0.0593212325
C   C142      1.0  0.37210  0.02650  0.16710  1.0000 0.0608771745
C   C143      1.0  0.46340  0.00300  0.09310  1.0000 0.5906647543
C   C144      1.0  0.30070  0.03870  0.13360  1.0000 0.0608771745
C   C145      1.0  0.27490  0.98630  0.09850  1.0000 -0.1202188917
C   C146      1.0  0.20560  0.99180  0.07090  1.0000 -0.0987646257
C   C147      1.0  0.16750  0.06290  0.07510  1.0000 -0.110586413
C   C148      1.0  0.26120  0.10780  0.13920  1.0000 -0.1437218103
C   C149      1.0  0.19270  0.11930  0.10940  1.0000 -0.0487616969
C   C150      1.0  0.14900  0.19040  0.11590  1.0000 0.5371704797
C   C151      1.0  0.62210  0.91950  0.45040  1.0000 0.1120116917
C   C152      1.0  0.56680  0.83500  0.39260  1.0000 0.1120116917
C   C153      1.0  0.68310  0.86890  0.46130  1.0000 -0.1741746043
C   C154      1.0  0.62530  0.77990  0.40080  1.0000 -0.2017284738
C   C155      1.0  0.68170  0.79710  0.43830  1.0000 0.1120116917
C   C156      1.0  0.74270  0.73850  0.44930  1.0000 0.1036264846
C   C157      1.0  0.78070  0.73850  0.49520  1.0000 -0.188007369
C   C158      1.0  0.76610  0.68970  0.41500  1.0000 -0.188007369
C   C159      1.0  0.84120  0.68500  0.50350  1.0000 0.1209249174
C   C160      1.0  0.81720  0.63280  0.42710  1.0000 0.065629132
N   N1        1.0  0.09950  0.43310  0.91670  1.0000 -0.2236808365
N   N2        1.0  0.37150  0.14790  0.97250  1.0000 -0.2017284738
N   N3        1.0  0.43310  0.09950  0.58330  1.0000 -0.2236808365
N   N4        1.0  0.14790  0.37150  0.52750  1.0000 -0.2017284738
N   N5        1.0  0.90050  0.56690  0.08330  1.0000 -0.2236808365
N   N6        1.0  0.62850  0.85210  0.02750  1.0000 -0.2017284738
N   N7        1.0  0.56690  0.90050  0.41670  1.0000 -0.2236808365
N   N8        1.0  0.85210  0.62850  0.47250  1.0000 -0.2017284738
O   O1        1.0  0.62430  0.03270  0.02020  1.0000 -0.5598089
O   O2        1.0  0.55650  0.13650  0.00140  1.0000 -0.5101166268
O   O3        1.0  0.96240  0.30260  0.06080  1.0000 -0.5668185254
O   O4        1.0  0.87800  0.38580  0.08550  1.0000 -0.5165067365
O   O5        1.0  0.94440  0.50880  0.94160  1.0000 -0.5933529635
O   O6        1.0  0.87110  0.61150  0.91880  1.0000 -0.5358955463
O   O7        1.0  0.96120  0.64340  0.82210  1.0000 -0.5482813319
O   O8        1.0  0.01150  0.52570  0.83190  1.0000 -0.5482813319
O   O9        1.0  0.94450  0.56310  0.56368  1.0000 -0.5482813319
O   O10       1.0  0.05000  0.49320  0.58020  1.0000 -0.5482813319
O   O11       1.0  0.76800  0.84100  0.65280  1.0000 -0.5165067365
O   O12       1.0  0.79290  0.89790  0.58020  1.0000 -0.5482813319
O   O13       1.0  0.03270  0.62430  0.47980  1.0000 -0.5598089
O   O14       1.0  0.13650  0.55650  0.49860  1.0000 -0.5101166268
O   O15       1.0  0.30260  0.96240  0.43920  1.0000 -0.5668185254
O   O16       1.0  0.38580  0.87800  0.41450  1.0000 -0.5165067365
O   O17       1.0  0.50880  0.94440  0.55840  1.0000 -0.5933529635
O   O18       1.0  0.61150  0.87110  0.58120  1.0000 -0.5358955463
O   O19       1.0  0.64340  0.96120  0.67790  1.0000 -0.5482813319
O   O20       1.0  0.52570  0.01150  0.66810  1.0000 -0.5482813319
O   O21       1.0  0.56310  0.94450  0.93632  1.0000 -0.5482813319
O   O22       1.0  0.49320  0.05000  0.91980  1.0000 -0.5482813319
O   O23       1.0  0.84100  0.76800  0.84720  1.0000 -0.5165067365
O   O24       1.0  0.89790  0.79290  0.91980  1.0000 -0.5482813319
O   O25       1.0  0.37570  0.96730  0.97980  1.0000 -0.5598089
O   O26       1.0  0.44350  0.86350  0.99860  1.0000 -0.5101166268
O   O27       1.0  0.03760  0.69740  0.93920  1.0000 -0.5668185254
O   O28       1.0  0.12200  0.61420  0.91450  1.0000 -0.5165067365
O   O29       1.0  0.05560  0.49120  0.05840  1.0000 -0.5933529635
O   O30       1.0  0.12890  0.38850  0.08120  1.0000 -0.5358955463
O   O31       1.0  0.03880  0.35660  0.17790  1.0000 -0.5482813319
O   O32       1.0  0.98850  0.47430  0.16810  1.0000 -0.5482813319
O   O33       1.0  0.05550  0.43690  0.43632  1.0000 -0.5482813319
O   O34       1.0  0.95000  0.50680  0.41980  1.0000 -0.5482813319
O   O35       1.0  0.23200  0.15900  0.34720  1.0000 -0.5165067365
O   O36       1.0  0.20710  0.10210  0.41980  1.0000 -0.5482813319
O   O37       1.0  0.96730  0.37570  0.52020  1.0000 -0.5598089
O   O38       1.0  0.86350  0.44350  0.50140  1.0000 -0.5101166268
O   O39       1.0  0.69740  0.03760  0.56080  1.0000 -0.5668185254
O   O40       1.0  0.61420  0.12200  0.58550  1.0000 -0.5165067365
O   O41       1.0  0.49120  0.05560  0.44160  1.0000 -0.5933529635
O   O42       1.0  0.38850  0.12890  0.41880  1.0000 -0.5358955463
O   O43       1.0  0.35660  0.03880  0.32210  1.0000 -0.5482813319
O   O44       1.0  0.47430  0.98850  0.33190  1.0000 -0.5482813319
O   O45       1.0  0.43690  0.05550  0.06368  1.0000 -0.5482813319
O   O46       1.0  0.50680  0.95000  0.08020  1.0000 -0.5482813319
O   O47       1.0  0.15900  0.23200  0.15280  1.0000 -0.5165067365
O   O48       1.0  0.10210  0.20710  0.08020  1.0000 -0.5482813319
