# DDEC6 charges by PACMAN v1.1 (https://github.com/mtap-research/PACMAN-charge/)
data_2017[Cd][kgd]2[ASR]7
_chemical_formula_sum              "Cd6 H60 C108 O24"
_cell_length_a       12.4281
_cell_length_b       26.2878
_cell_length_c       17.2127
_cell_angle_alpha    90
_cell_angle_beta     127.663
_cell_angle_gamma    90

_symmetry_space_group_name_H-M    "P 1"
_symmetry_Int_Tables_number       1

loop_
  _symmetry_equiv_pos_as_xyz
  'x, y, z'

loop_
  _atom_site_type_symbol
  _atom_site_label
  _atom_site_symmetry_multiplicity
  _atom_site_fract_x
  _atom_site_fract_y
  _atom_site_fract_z
  _atom_site_occupancy
  _atom_site_charge
Cd  Cd1       1.0  0.35857  0.96953  0.69415  1.0000 0.9804616322
Cd  Cd2       1.0  0.64143  0.46953  0.80585  1.0000 0.9804616322
Cd  Cd3       1.0  0.64143  0.03047  0.30585  1.0000 0.9804616322
Cd  Cd4       1.0  0.35857  0.53047  0.19415  1.0000 0.9804616322
Cd  Cd5       1.0  0.00000  0.00000  0.50000  1.0000 1.1243267406
Cd  Cd6       1.0  0.00000  0.50000  0.00000  1.0000 1.1243267406
H   H1        1.0  0.16190  0.04300  0.11060  1.0000 0.117548116
H   H2        1.0  0.00970  0.16110  0.92370  1.0000 0.1123481265
H   H3        1.0  0.05950  0.17190  0.17640  1.0000 0.117548116
H   H4        1.0  0.00970  0.11010  0.25310  1.0000 0.117548116
H   H5        1.0  0.07930  0.07570  0.40050  1.0000 0.117548116
H   H6        1.0  0.39200  0.00810  0.42930  1.0000 0.117548116
H   H7        1.0  0.32290  0.04330  0.28270  1.0000 0.117548116
H   H8        1.0  0.92930  0.08810  0.81210  1.0000 0.1123481265
H   H9        1.0  0.96730  0.04940  0.71020  1.0000 0.1266161646
H   H10       1.0  0.33090  0.00150  0.94430  1.0000 0.1266161646
H   H11       1.0  0.29470  0.04000  0.04770  1.0000 0.1123481265
H   H12       1.0  0.13450  0.25920  0.15590  1.0000 0.117548116
H   H13       1.0  0.07580  0.34370  0.11350  1.0000 0.1266161646
H   H14       1.0  0.75650  0.30180  0.84160  1.0000 0.117548116
H   H15       1.0  0.81950  0.21770  0.88170  1.0000 0.1123481265
H   H16       1.0  0.83810  0.54300  0.38940  1.0000 0.117548116
H   H17       1.0  0.99030  0.66110  0.57630  1.0000 0.1123481265
H   H18       1.0  0.94050  0.67190  0.32360  1.0000 0.117548116
H   H19       1.0  0.99030  0.61010  0.24690  1.0000 0.117548116
H   H20       1.0  0.92070  0.57570  0.09950  1.0000 0.117548116
H   H21       1.0  0.60800  0.50810  0.07070  1.0000 0.117548116
H   H22       1.0  0.67710  0.54330  0.21730  1.0000 0.117548116
H   H23       1.0  0.07070  0.58810  0.68790  1.0000 0.1123481265
H   H24       1.0  0.03270  0.54940  0.78980  1.0000 0.1266161646
H   H25       1.0  0.66910  0.50150  0.55570  1.0000 0.1266161646
H   H26       1.0  0.70530  0.54000  0.45230  1.0000 0.1123481265
H   H27       1.0  0.86550  0.75920  0.34410  1.0000 0.117548116
H   H28       1.0  0.92420  0.84370  0.38650  1.0000 0.1266161646
H   H29       1.0  0.24350  0.80180  0.65840  1.0000 0.1266161646
H   H30       1.0  0.18050  0.71770  0.61830  1.0000 0.1123481265
H   H31       1.0  0.83810  0.95700  0.88940  1.0000 0.117548116
H   H32       1.0  0.99030  0.83890  0.07630  1.0000 0.1123481265
H   H33       1.0  0.94050  0.82810  0.82360  1.0000 0.117548116
H   H34       1.0  0.99030  0.88990  0.74690  1.0000 0.117548116
H   H35       1.0  0.92070  0.92430  0.59950  1.0000 0.117548116
H   H36       1.0  0.60800  0.99190  0.57070  1.0000 0.117548116
H   H37       1.0  0.67710  0.95670  0.71730  1.0000 0.1123481265
H   H38       1.0  0.07070  0.91190  0.18790  1.0000 0.1123481265
H   H39       1.0  0.03270  0.95060  0.28980  1.0000 0.1266161646
H   H40       1.0  0.66910  0.99850  0.05570  1.0000 0.1266161646
H   H41       1.0  0.70530  0.96000  0.95230  1.0000 0.1123481265
H   H42       1.0  0.86550  0.74080  0.84410  1.0000 0.1123481265
H   H43       1.0  0.92420  0.65630  0.88650  1.0000 0.1266161646
H   H44       1.0  0.24350  0.69820  0.15840  1.0000 0.117548116
H   H45       1.0  0.18050  0.78230  0.11830  1.0000 0.1123481265
H   H46       1.0  0.16190  0.45700  0.61060  1.0000 0.117548116
H   H47       1.0  0.00970  0.33890  0.42370  1.0000 0.1123481265
H   H48       1.0  0.05950  0.32810  0.67640  1.0000 0.117548116
H   H49       1.0  0.00970  0.38990  0.75310  1.0000 0.117548116
H   H50       1.0  0.07930  0.42430  0.90050  1.0000 0.117548116
H   H51       1.0  0.39200  0.49190  0.92930  1.0000 0.117548116
H   H52       1.0  0.32290  0.45670  0.78270  1.0000 0.1123481265
H   H53       1.0  0.92930  0.41190  0.31210  1.0000 0.1123481265
H   H54       1.0  0.96730  0.45060  0.21020  1.0000 0.1266161646
H   H55       1.0  0.33090  0.49850  0.44430  1.0000 0.1266161646
H   H56       1.0  0.29470  0.46000  0.54770  1.0000 0.1123481265
H   H57       1.0  0.13450  0.24080  0.65590  1.0000 0.117548116
H   H58       1.0  0.07580  0.15630  0.61350  1.0000 0.1266161646
H   H59       1.0  0.75650  0.19820  0.34160  1.0000 0.1266161646
H   H60       1.0  0.81950  0.28230  0.38170  1.0000 0.1123481265
C   C1        1.0  0.11619  0.10330  0.15829  1.0000 0.0881461699
C   C2        1.0  0.12790  0.07604  0.09440  1.0000 -0.2109114851
C   C3        1.0  0.08943  0.09742  0.00633  1.0000 0.0786797602
C   C4        1.0  0.03830  0.14690  0.98310  1.0000 -0.2008723288
C   C5        1.0  0.02920  0.17546  0.04690  1.0000 0.0786797602
C   C6        1.0  0.06700  0.15331  0.13390  1.0000 -0.2008723288
C   C7        1.0  0.15903  0.08014  0.25233  1.0000 0.0647282817
C   C8        1.0  0.08660  0.08963  0.28860  1.0000 -0.1424992408
C   C9        1.0  0.12790  0.06886  0.37680  1.0000 -0.0917479789
C   C10       1.0  0.24280  0.03757  0.43030  1.0000 -0.0300756695
C   C11       1.0  0.31480  0.02859  0.39390  1.0000 -0.0844119291
C   C12       1.0  0.27350  0.04965  0.30590  1.0000 -0.1424992408
C   C13       1.0  0.28648  0.01316  0.52448  1.0000 0.575785463
C   C14       1.0  0.10780  0.06912  0.94010  1.0000 0.0734486144
C   C15       1.0  0.01070  0.07112  0.83920  1.0000 -0.1536573831
C   C16       1.0  0.03360  0.04792  0.77790  1.0000 -0.0917479789
C   C17       1.0  0.15440  0.02266  0.81690  1.0000 -0.0300756695
C   C18       1.0  0.25070  0.01934  0.91780  1.0000 -0.0917479789
C   C19       1.0  0.22910  0.04232  0.98000  1.0000 -0.1536573831
C   C20       1.0  0.18220  0.00079  0.74980  1.0000 0.5923827787
C   C21       1.0  0.98440  0.22941  0.02270  1.0000 0.0786797602
C   C22       1.0  0.05980  0.26778  0.09240  1.0000 -0.1571255314
C   C23       1.0  0.02390  0.31838  0.06730  1.0000 -0.0950974997
C   C24       1.0  0.90900  0.33164  0.97210  1.0000 -0.0432763432
C   C25       1.0  0.83340  0.29343  0.90430  1.0000 -0.0917479789
C   C26       1.0  0.87060  0.24286  0.92850  1.0000 -0.1571255314
C   C27       1.0  0.87230  0.38664  0.94570  1.0000 0.5923827787
C   C28       1.0  0.88381  0.60330  0.34171  1.0000 0.0881461699
C   C29       1.0  0.87210  0.57604  0.40560  1.0000 -0.2109114851
C   C30       1.0  0.91057  0.59742  0.49367  1.0000 0.0786797602
C   C31       1.0  0.96170  0.64690  0.51690  1.0000 -0.2008723288
C   C32       1.0  0.97080  0.67546  0.45310  1.0000 0.0786797602
C   C33       1.0  0.93300  0.65331  0.36610  1.0000 -0.2008723288
C   C34       1.0  0.84097  0.58014  0.24767  1.0000 0.0647282817
C   C35       1.0  0.91340  0.58963  0.21140  1.0000 -0.1424992408
C   C36       1.0  0.87210  0.56886  0.12320  1.0000 -0.0917479789
C   C37       1.0  0.75720  0.53757  0.06970  1.0000 -0.0300756695
C   C38       1.0  0.68520  0.52859  0.10610  1.0000 -0.0844119291
C   C39       1.0  0.72650  0.54965  0.19410  1.0000 -0.1424992408
C   C40       1.0  0.71352  0.51316  0.97552  1.0000 0.575785463
C   C41       1.0  0.89220  0.56912  0.55990  1.0000 0.0734486144
C   C42       1.0  0.98930  0.57112  0.66080  1.0000 -0.1536573831
C   C43       1.0  0.96640  0.54792  0.72210  1.0000 -0.0917479789
C   C44       1.0  0.84560  0.52266  0.68310  1.0000 -0.0300756695
C   C45       1.0  0.74930  0.51934  0.58220  1.0000 -0.0917479789
C   C46       1.0  0.77090  0.54232  0.52000  1.0000 -0.1536573831
C   C47       1.0  0.81780  0.50079  0.75020  1.0000 0.5923827787
C   C48       1.0  0.01560  0.72941  0.47730  1.0000 0.0786797602
C   C49       1.0  0.94020  0.76778  0.40760  1.0000 -0.1571255314
C   C50       1.0  0.97610  0.81838  0.43270  1.0000 -0.0917479789
C   C51       1.0  0.09100  0.83164  0.52790  1.0000 -0.0432763432
C   C52       1.0  0.16660  0.79343  0.59570  1.0000 -0.0917479789
C   C53       1.0  0.12940  0.74286  0.57150  1.0000 -0.1571255314
C   C54       1.0  0.12770  0.88664  0.55430  1.0000 0.5923827787
C   C55       1.0  0.88381  0.89670  0.84171  1.0000 0.0881461699
C   C56       1.0  0.87210  0.92396  0.90560  1.0000 -0.2109114851
C   C57       1.0  0.91057  0.90258  0.99367  1.0000 0.0786797602
C   C58       1.0  0.96170  0.85310  0.01690  1.0000 -0.2008723288
C   C59       1.0  0.97080  0.82454  0.95310  1.0000 0.0786797602
C   C60       1.0  0.93300  0.84669  0.86610  1.0000 -0.2008723288
C   C61       1.0  0.84097  0.91986  0.74767  1.0000 0.0647282817
C   C62       1.0  0.91340  0.91037  0.71140  1.0000 -0.1424992408
C   C63       1.0  0.87210  0.93114  0.62320  1.0000 -0.0917479789
C   C64       1.0  0.75720  0.96243  0.56970  1.0000 -0.0300756695
C   C65       1.0  0.68520  0.97141  0.60610  1.0000 -0.0844119291
C   C66       1.0  0.72650  0.95035  0.69410  1.0000 -0.1424992408
C   C67       1.0  0.71352  0.98684  0.47552  1.0000 0.575785463
C   C68       1.0  0.89220  0.93088  0.05990  1.0000 0.0734486144
C   C69       1.0  0.98930  0.92888  0.16080  1.0000 -0.1536573831
C   C70       1.0  0.96640  0.95208  0.22210  1.0000 -0.0917479789
C   C71       1.0  0.84560  0.97734  0.18310  1.0000 -0.0300756695
C   C72       1.0  0.74930  0.98066  0.08220  1.0000 -0.0917479789
C   C73       1.0  0.77090  0.95768  0.02000  1.0000 -0.1536573831
C   C74       1.0  0.81780  0.99921  0.25020  1.0000 0.5923827787
C   C75       1.0  0.01560  0.77059  0.97730  1.0000 0.0786797602
C   C76       1.0  0.94020  0.73222  0.90760  1.0000 -0.1571255314
C   C77       1.0  0.97610  0.68162  0.93270  1.0000 -0.0917479789
C   C78       1.0  0.09100  0.66836  0.02790  1.0000 -0.0432763432
C   C79       1.0  0.16660  0.70657  0.09570  1.0000 -0.0917479789
C   C80       1.0  0.12940  0.75714  0.07150  1.0000 -0.1571255314
C   C81       1.0  0.12770  0.61336  0.05430  1.0000 0.5923827787
C   C82       1.0  0.11619  0.39670  0.65829  1.0000 0.0881461699
C   C83       1.0  0.12790  0.42396  0.59440  1.0000 -0.2109114851
C   C84       1.0  0.08943  0.40258  0.50633  1.0000 0.0786797602
C   C85       1.0  0.03830  0.35310  0.48310  1.0000 -0.2008723288
C   C86       1.0  0.02920  0.32454  0.54690  1.0000 0.0786797602
C   C87       1.0  0.06700  0.34669  0.63390  1.0000 -0.2008723288
C   C88       1.0  0.15903  0.41986  0.75233  1.0000 0.0647282817
C   C89       1.0  0.08660  0.41037  0.78860  1.0000 -0.1424992408
C   C90       1.0  0.12790  0.43114  0.87680  1.0000 -0.0917479789
C   C91       1.0  0.24280  0.46243  0.93030  1.0000 -0.0300756695
C   C92       1.0  0.31480  0.47141  0.89390  1.0000 -0.0844119291
C   C93       1.0  0.27350  0.45035  0.80590  1.0000 -0.1424992408
C   C94       1.0  0.28648  0.48684  0.02448  1.0000 0.575785463
C   C95       1.0  0.10780  0.43088  0.44010  1.0000 0.0734486144
C   C96       1.0  0.01070  0.42888  0.33920  1.0000 -0.1536573831
C   C97       1.0  0.03360  0.45208  0.27790  1.0000 -0.0917479789
C   C98       1.0  0.15440  0.47734  0.31690  1.0000 -0.0300756695
C   C99       1.0  0.25070  0.48066  0.41780  1.0000 -0.0917479789
C   C100      1.0  0.22910  0.45768  0.48000  1.0000 -0.1536573831
C   C101      1.0  0.18220  0.49921  0.24980  1.0000 0.5923827787
C   C102      1.0  0.98440  0.27059  0.52270  1.0000 0.0786797602
C   C103      1.0  0.05980  0.23222  0.59240  1.0000 -0.1571255314
C   C104      1.0  0.02390  0.18162  0.56730  1.0000 -0.0950974997
C   C105      1.0  0.90900  0.16836  0.47210  1.0000 -0.0432763432
C   C106      1.0  0.83340  0.20657  0.40430  1.0000 -0.0917479789
C   C107      1.0  0.87060  0.25714  0.42850  1.0000 -0.1571255314
C   C108      1.0  0.87230  0.11336  0.44570  1.0000 0.5923827787
O   O1        1.0  0.38973  0.98578  0.57174  1.0000 -0.5366512786
O   O2        1.0  0.21616  0.02173  0.55448  1.0000 -0.597623552
O   O3        1.0  0.29794  0.98247  0.78934  1.0000 -0.5472692053
O   O4        1.0  0.09066  0.00398  0.65996  1.0000 -0.5688552956
O   O5        1.0  0.75489  0.39598  0.86969  1.0000 -0.5589621391
O   O6        1.0  0.96180  0.41827  0.00250  1.0000 -0.5589621391
O   O7        1.0  0.61027  0.48578  0.92826  1.0000 -0.5366512786
O   O8        1.0  0.78384  0.52173  0.94552  1.0000 -0.597623552
O   O9        1.0  0.70206  0.48247  0.71066  1.0000 -0.5472692053
O   O10       1.0  0.90934  0.50398  0.84004  1.0000 -0.5688552956
O   O11       1.0  0.24511  0.89598  0.63031  1.0000 -0.5589621391
O   O12       1.0  0.03820  0.91827  0.49750  1.0000 -0.5589621391
O   O13       1.0  0.61027  0.01422  0.42826  1.0000 -0.5366512786
O   O14       1.0  0.78384  0.97827  0.44552  1.0000 -0.597623552
O   O15       1.0  0.70206  0.01753  0.21066  1.0000 -0.5472692053
O   O16       1.0  0.90934  0.99602  0.34004  1.0000 -0.5688552956
O   O17       1.0  0.24511  0.60402  0.13031  1.0000 -0.5589621391
O   O18       1.0  0.03820  0.58173  0.99750  1.0000 -0.5589621391
O   O19       1.0  0.38973  0.51422  0.07174  1.0000 -0.5366512786
O   O20       1.0  0.21616  0.47827  0.05448  1.0000 -0.597623552
O   O21       1.0  0.29794  0.51753  0.28934  1.0000 -0.5472692053
O   O22       1.0  0.09066  0.49602  0.15996  1.0000 -0.5688552956
O   O23       1.0  0.75489  0.10402  0.36969  1.0000 -0.5589621391
O   O24       1.0  0.96180  0.08173  0.50250  1.0000 -0.5589621391
