# DDEC6 charges by PACMAN v1.1 (https://github.com/mtap-research/PACMAN-charge/)
data_2017[Tm][nan]3[ASR]2
_chemical_formula_sum              "Tm6 H80 C128 O32"
_cell_length_a       17.2142
_cell_length_b       17.2142
_cell_length_c       25.7022
_cell_angle_alpha    89.992
_cell_angle_beta     90.008
_cell_angle_gamma    124.666

_symmetry_space_group_name_H-M    "P 1"
_symmetry_Int_Tables_number       1

loop_
  _symmetry_equiv_pos_as_xyz
  'x, y, z'

loop_
  _atom_site_type_symbol
  _atom_site_label
  _atom_site_symmetry_multiplicity
  _atom_site_fract_x
  _atom_site_fract_y
  _atom_site_fract_z
  _atom_site_occupancy
  _atom_site_charge
Tm  Tm1       1.0  0.09783  0.09761  0.06366  1.0000 2.1086797731
Tm  Tm2       1.0  0.90239  0.90217  0.56366  1.0000 2.1040689962
Tm  Tm3       1.0  0.20763  0.20849  0.25111  1.0000 2.057037832
Tm  Tm4       1.0  0.79151  0.79237  0.75111  1.0000 2.057037832
Tm  Tm5       1.0  0.06939  0.06879  0.43751  1.0000 2.057037832
Tm  Tm6       1.0  0.93121  0.93061  0.93751  1.0000 2.057037832
H   H1        1.0  0.38600  0.12460  0.20840  1.0000 0.1101777039
H   H2        1.0  0.87540  0.61400  0.70840  1.0000 0.1101777039
H   H3        1.0  0.49010  0.08390  0.18540  1.0000 0.1013584374
H   H4        1.0  0.91610  0.50990  0.68540  1.0000 0.1013584374
H   H5        1.0  0.36980  0.00020  0.04760  1.0000 0.1013584374
H   H6        1.0  0.99980  0.63020  0.54760  1.0000 0.1013584374
H   H7        1.0  0.26590  0.04110  0.07010  1.0000 0.1101777039
H   H8        1.0  0.95890  0.73410  0.57010  1.0000 0.1101777039
H   H9        1.0  0.49260  0.97220  0.07670  1.0000 0.1101777039
H   H10       1.0  0.02780  0.50740  0.57670  1.0000 0.1101777039
H   H11       1.0  0.17920  0.41080  0.19780  1.0000 0.1101777039
H   H12       1.0  0.58920  0.82080  0.69780  1.0000 0.1101777039
H   H13       1.0  0.14380  0.52340  0.18780  1.0000 0.1101777039
H   H14       1.0  0.47660  0.85620  0.68780  1.0000 0.1101777039
H   H15       1.0  0.95660  0.36640  0.07850  1.0000 0.1101777039
H   H16       1.0  0.63360  0.04340  0.57850  1.0000 0.1101777039
H   H17       1.0  0.99080  0.25280  0.08890  1.0000 0.1101777039
H   H18       1.0  0.74720  0.00920  0.58890  1.0000 0.1101777039
H   H19       1.0  0.06340  0.57740  0.15140  1.0000 0.1101777039
H   H20       1.0  0.42260  0.93660  0.65140  1.0000 0.1101777039
H   H21       1.0  0.87270  0.08670  0.12050  1.0000 0.1207278313
H   H22       1.0  0.91330  0.12730  0.62050  1.0000 0.1207278313
H   H23       1.0  0.75980  0.11100  0.15230  1.0000 0.1101777039
H   H24       1.0  0.88900  0.24020  0.65230  1.0000 0.1101777039
H   H25       1.0  0.57380  0.93660  0.04800  1.0000 0.1013584374
H   H26       1.0  0.06340  0.42620  0.54800  1.0000 0.1013584374
H   H27       1.0  0.68440  0.91000  0.01530  1.0000 0.1101777039
H   H28       1.0  0.09000  0.31560  0.51530  1.0000 0.1101777039
H   H29       1.0  0.60210  0.07690  0.15500  1.0000 0.1207278313
H   H30       1.0  0.92310  0.39790  0.65500  1.0000 0.1207278313
H   H31       1.0  0.08570  0.30370  0.00440  1.0000 0.1101777039
H   H32       1.0  0.69630  0.91430  0.50440  1.0000 0.1101777039
H   H33       1.0  0.08500  0.43600  0.98690  1.0000 0.1101777039
H   H34       1.0  0.56400  0.91500  0.48690  1.0000 0.1101777039
H   H35       1.0  0.93380  0.31560  0.86080  1.0000 0.1101777039
H   H36       1.0  0.68440  0.06620  0.36080  1.0000 0.1101777039
H   H37       1.0  0.93460  0.18300  0.87790  1.0000 0.1207278313
H   H38       1.0  0.81700  0.06540  0.37790  1.0000 0.1207278313
H   H39       1.0  0.05410  0.53250  0.93310  1.0000 0.1101777039
H   H40       1.0  0.46750  0.94590  0.43310  1.0000 0.1101777039
H   H41       1.0  0.12840  0.37620  0.29680  1.0000 0.1101777039
H   H42       1.0  0.62380  0.87160  0.79680  1.0000 0.1101777039
H   H43       1.0  0.10040  0.49180  0.31730  1.0000 0.1101777039
H   H44       1.0  0.50820  0.89960  0.81730  1.0000 0.1101777039
H   H45       1.0  0.95490  0.34170  0.44100  1.0000 0.1013584374
H   H46       1.0  0.65830  0.04510  0.94100  1.0000 0.1013584374
H   H47       1.0  0.98210  0.22550  0.42060  1.0000 0.1101777039
H   H48       1.0  0.77450  0.01790  0.92060  1.0000 0.1101777039
H   H49       1.0  0.00100  0.49920  0.43250  1.0000 0.1101777039
H   H50       1.0  0.50080  0.99900  0.93250  1.0000 0.1101777039
H   H51       1.0  0.85410  0.62370  0.79710  1.0000 0.1101777039
H   H52       1.0  0.37630  0.14590  0.29710  1.0000 0.1101777039
H   H53       1.0  0.87830  0.50370  0.81010  1.0000 0.1101777039
H   H54       1.0  0.49630  0.12170  0.31010  1.0000 0.1101777039
H   H55       1.0  0.01240  0.62280  0.94190  1.0000 0.1013584374
H   H56       1.0  0.37720  0.98760  0.44190  1.0000 0.1013584374
H   H57       1.0  0.98910  0.74370  0.92930  1.0000 0.1101777039
H   H58       1.0  0.25630  0.01090  0.42930  1.0000 0.1101777039
H   H59       1.0  0.92400  0.42100  0.85970  1.0000 0.1013584374
H   H60       1.0  0.57900  0.07600  0.35970  1.0000 0.1013584374
H   H61       1.0  0.02950  0.83030  0.37090  1.0000 0.1259324567
H   H62       1.0  0.16970  0.97050  0.87090  1.0000 0.1259324567
H   H63       1.0  0.04570  0.71250  0.33800  1.0000 0.1101777039
H   H64       1.0  0.28750  0.95430  0.83800  1.0000 0.1101777039
H   H65       1.0  0.91340  0.55440  0.46060  1.0000 0.1013584374
H   H66       1.0  0.44560  0.08660  0.96060  1.0000 0.1013584374
H   H67       1.0  0.89540  0.66980  0.49540  1.0000 0.1101777039
H   H68       1.0  0.33020  0.10460  0.99540  1.0000 0.1101777039
H   H69       1.0  0.99200  0.54760  0.33750  1.0000 0.1101777039
H   H70       1.0  0.45240  0.00800  0.83750  1.0000 0.1101777039
H   H71       1.0  0.92680  0.71520  0.99790  1.0000 0.1101777039
H   H72       1.0  0.28480  0.07320  0.49790  1.0000 0.1101777039
H   H73       1.0  0.92170  0.58190  0.02350  1.0000 0.1101777039
H   H74       1.0  0.41810  0.07830  0.52350  1.0000 0.1101777039
H   H75       1.0  0.05330  0.70390  0.15400  1.0000 0.1101777039
H   H76       1.0  0.29610  0.94670  0.65400  1.0000 0.1101777039
H   H77       1.0  0.05950  0.83870  0.13010  1.0000 0.1207278313
H   H78       1.0  0.16130  0.94050  0.63010  1.0000 0.1207278313
H   H79       1.0  0.92700  0.48520  0.08490  1.0000 0.1207278313
H   H80       1.0  0.51480  0.07300  0.58490  1.0000 0.1207278313
C   C1        1.0  0.24530  0.11210  0.15500  1.0000 0.6767920868
C   C2        1.0  0.88790  0.75470  0.65500  1.0000 0.6767920868
C   C3        1.0  0.31410  0.08710  0.14180  1.0000 -0.0393605182
C   C4        1.0  0.91290  0.68590  0.64180  1.0000 -0.0393605182
C   C5        1.0  0.38150  0.09950  0.17560  1.0000 -0.10682272
C   C6        1.0  0.90050  0.61850  0.67560  1.0000 -0.10682272
C   C7        1.0  0.44470  0.07490  0.16170  1.0000 -0.1635602666
C   C8        1.0  0.92510  0.55530  0.66170  1.0000 -0.1635602666
C   C9        1.0  0.43960  0.03860  0.11440  1.0000 0.1101777039
C   C10       1.0  0.96140  0.56040  0.61440  1.0000 0.1101777039
C   C11       1.0  0.37390  0.02550  0.08030  1.0000 -0.1726125967
C   C12       1.0  0.97450  0.62610  0.58030  1.0000 -0.1726125967
C   C13       1.0  0.31070  0.05030  0.09420  1.0000 -0.0995760651
C   C14       1.0  0.94970  0.68930  0.59420  1.0000 -0.0995760651
C   C15       1.0  0.50990  0.01530  0.10360  1.0000 -0.1359109396
C   C16       1.0  0.98470  0.49010  0.60360  1.0000 -0.1359109396
C   C17       1.0  0.11030  0.24710  0.15020  1.0000 0.6498798148
C   C18       1.0  0.75290  0.88970  0.65020  1.0000 0.6498798148
C   C19       1.0  0.08830  0.32030  0.14420  1.0000 -0.0393605182
C   C20       1.0  0.67970  0.91170  0.64420  1.0000 -0.0393605182
C   C21       1.0  0.13410  0.40070  0.17360  1.0000 -0.0912095491
C   C22       1.0  0.59930  0.86590  0.67360  1.0000 -0.0912095491
C   C23       1.0  0.11290  0.46890  0.16770  1.0000 -0.1782960662
C   C24       1.0  0.53110  0.88710  0.66770  1.0000 -0.1782960662
C   C25       1.0  0.04770  0.45370  0.13240  1.0000 0.1013584374
C   C26       1.0  0.54630  0.95230  0.63240  1.0000 0.1013584374
C   C27       1.0  0.00130  0.37550  0.10270  1.0000 -0.1782960662
C   C28       1.0  0.62450  0.99870  0.60270  1.0000 -0.1782960662
C   C29       1.0  0.02250  0.30730  0.10900  1.0000 -0.0995760651
C   C30       1.0  0.69270  0.97750  0.60900  1.0000 -0.0995760651
C   C31       1.0  0.02820  0.52800  0.12800  1.0000 -0.1189707846
C   C32       1.0  0.47200  0.97180  0.62800  1.0000 -0.1189707846
C   C33       1.0  0.85860  0.97760  0.04270  1.0000 0.6343504058
C   C34       1.0  0.02240  0.14140  0.54270  1.0000 0.6343504058
C   C35       1.0  0.78850  0.99550  0.06450  1.0000 -0.0323459969
C   C36       1.0  0.00450  0.21150  0.56450  1.0000 -0.0323459969
C   C37       1.0  0.81300  0.05580  0.10550  1.0000 -0.0912095491
C   C38       1.0  0.94420  0.18700  0.60550  1.0000 -0.0912095491
C   C39       1.0  0.74440  0.07020  0.12440  1.0000 -0.1726125967
C   C40       1.0  0.92980  0.25560  0.62440  1.0000 -0.1726125967
C   C41       1.0  0.65780  0.02640  0.10310  1.0000 0.1013584374
C   C42       1.0  0.97360  0.34220  0.60310  1.0000 0.1013584374
C   C43       1.0  0.63357  0.96683  0.06280  1.0000 -0.1782960662
C   C44       1.0  0.03317  0.36643  0.56280  1.0000 -0.1782960662
C   C45       1.0  0.70060  0.95100  0.04310  1.0000 -0.0912095491
C   C46       1.0  0.04900  0.29940  0.54310  1.0000 -0.0912095491
C   C47       1.0  0.58700  0.04300  0.12410  1.0000 -0.1189707846
C   C48       1.0  0.95700  0.41300  0.62410  1.0000 -0.1189707846
C   C49       1.0  0.00830  0.13970  0.95280  1.0000 0.6343504058
C   C50       1.0  0.86030  0.99170  0.45280  1.0000 0.6343504058
C   C51       1.0  0.00990  0.22730  0.94300  1.0000 -0.0323459969
C   C52       1.0  0.77270  0.99010  0.44300  1.0000 -0.0323459969
C   C53       1.0  0.05450  0.30410  0.97500  1.0000 -0.0995760651
C   C54       1.0  0.69590  0.94550  0.47500  1.0000 -0.0995760651
C   C55       1.0  0.05390  0.38470  0.96430  1.0000 -0.1726125967
C   C56       1.0  0.61530  0.94610  0.46430  1.0000 -0.1726125967
C   C57       1.0  0.00970  0.38930  0.92230  1.0000 0.1013584374
C   C58       1.0  0.61070  0.99030  0.42230  1.0000 0.1013584374
C   C59       1.0  0.96500  0.31440  0.89010  1.0000 -0.1782960662
C   C60       1.0  0.68560  0.03500  0.39010  1.0000 -0.1782960662
C   C61       1.0  0.96580  0.23380  0.90080  1.0000 -0.0995760651
C   C62       1.0  0.76620  0.03420  0.40080  1.0000 -0.0995760651
C   C63       1.0  0.01300  0.47760  0.91440  1.0000 -0.1320192798
C   C64       1.0  0.52240  0.98700  0.41440  1.0000 -0.1320192798
C   C65       1.0  0.07450  0.21490  0.34380  1.0000 0.673899235
C   C66       1.0  0.78510  0.92550  0.84380  1.0000 0.673899235
C   C67       1.0  0.05800  0.29000  0.35640  1.0000 -0.0451948887
C   C68       1.0  0.71000  0.94200  0.85640  1.0000 -0.0393605182
C   C69       1.0  0.09290  0.36850  0.32610  1.0000 -0.0995760651
C   C70       1.0  0.63150  0.90710  0.82610  1.0000 -0.0995760651
C   C71       1.0  0.07670  0.43870  0.33810  1.0000 -0.1726125967
C   C72       1.0  0.56130  0.92330  0.83810  1.0000 -0.1726125967
C   C73       1.0  0.02560  0.42500  0.38110  1.0000 0.1101777039
C   C74       1.0  0.57500  0.97440  0.88110  1.0000 0.1101777039
C   C75       1.0  0.99020  0.34860  0.41170  1.0000 -0.1726125967
C   C76       1.0  0.65140  0.00980  0.91170  1.0000 -0.1635602666
C   C77       1.0  0.00630  0.27850  0.39950  1.0000 -0.0995760651
C   C78       1.0  0.72150  0.99370  0.89950  1.0000 -0.0995760651
C   C79       1.0  0.00550  0.49610  0.39660  1.0000 -0.1359109396
C   C80       1.0  0.50390  0.99450  0.89660  1.0000 -0.1359109396
C   C81       1.0  0.90360  0.77220  0.85290  1.0000 0.6767920868
C   C82       1.0  0.22780  0.09640  0.35290  1.0000 0.6767920868
C   C83       1.0  0.91960  0.69560  0.86210  1.0000 -0.0393605182
C   C84       1.0  0.30440  0.08040  0.36210  1.0000 -0.0393605182
C   C85       1.0  0.88620  0.62460  0.82640  1.0000 -0.10682272
C   C86       1.0  0.37540  0.11380  0.32640  1.0000 -0.10682272
C   C87       1.0  0.90070  0.55210  0.83430  1.0000 -0.1635602666
C   C88       1.0  0.44790  0.09930  0.33430  1.0000 -0.1635602666
C   C89       1.0  0.94690  0.55350  0.87690  1.0000 0.1013584374
C   C90       1.0  0.44650  0.05310  0.37690  1.0000 0.1013584374
C   C91       1.0  0.98050  0.62270  0.91270  1.0000 -0.1726125967
C   C92       1.0  0.37730  0.01950  0.41270  1.0000 -0.1726125967
C   C93       1.0  0.96630  0.69550  0.90490  1.0000 -0.0995760651
C   C94       1.0  0.30450  0.03370  0.40490  1.0000 -0.0995760651
C   C95       1.0  0.95800  0.47320  0.88140  1.0000 -0.1189707846
C   C96       1.0  0.52680  0.04200  0.38140  1.0000 -0.1189707846
C   C97       1.0  0.95040  0.83540  0.45760  1.0000 0.6431168185
C   C98       1.0  0.16460  0.04960  0.95760  1.0000 0.6431168185
C   C99       1.0  0.96140  0.76040  0.43590  1.0000 -0.0393605182
C   C100      1.0  0.23960  0.03860  0.93590  1.0000 -0.0393605182
C   C101      1.0  0.00580  0.77480  0.38940  1.0000 -0.0912095491
C   C102      1.0  0.22520  0.99420  0.88940  1.0000 -0.0912095491
C   C103      1.0  0.01560  0.70360  0.36960  1.0000 -0.1726125967
C   C104      1.0  0.29640  0.98440  0.86960  1.0000 -0.1726125967
C   C105      1.0  0.98110  0.62370  0.39680  1.0000 0.0934429334
C   C106      1.0  0.37630  0.01890  0.89680  1.0000 0.0934429334
C   C107      1.0  0.93710  0.61030  0.44250  1.0000 -0.1782960662
C   C108      1.0  0.38970  0.06290  0.94250  1.0000 -0.1782960662
C   C109      1.0  0.92580  0.67940  0.46380  1.0000 -0.0912095491
C   C110      1.0  0.32060  0.07420  0.96380  1.0000 -0.0912095491
C   C111      1.0  0.99360  0.55120  0.37360  1.0000 -0.0995760651
C   C112      1.0  0.44880  0.00640  0.87360  1.0000 -0.0995760651
C   C113      1.0  0.99640  0.87640  0.04400  1.0000 0.6431168185
C   C114      1.0  0.12360  0.00360  0.54400  1.0000 0.6431168185
C   C115      1.0  0.99400  0.79120  0.06180  1.0000 -0.0393605182
C   C116      1.0  0.20880  0.00600  0.56180  1.0000 -0.0393605182
C   C117      1.0  0.95270  0.71470  0.02960  1.0000 -0.0995760651
C   C118      1.0  0.28530  0.04730  0.52960  1.0000 -0.0995760651
C   C119      1.0  0.95010  0.63410  0.04540  1.0000 -0.1782960662
C   C120      1.0  0.36590  0.04990  0.54540  1.0000 -0.1782960662
C   C121      1.0  0.98660  0.62980  0.09070  1.0000 0.0934429334
C   C122      1.0  0.37020  0.01340  0.59070  1.0000 0.0934429334
C   C123      1.0  0.02740  0.70520  0.12250  1.0000 -0.1782960662
C   C124      1.0  0.29480  0.97260  0.62250  1.0000 -0.1782960662
C   C125      1.0  0.03120  0.78700  0.10780  1.0000 -0.0912095491
C   C126      1.0  0.21300  0.96880  0.60780  1.0000 -0.0912095491
C   C127      1.0  0.97730  0.53890  0.10100  1.0000 -0.1189707846
C   C128      1.0  0.46110  0.02270  0.60100  1.0000 -0.1189707846
O   O1        1.0  0.25100  0.14540  0.19870  1.0000 -0.7277935429
O   O2        1.0  0.85460  0.74900  0.69870  1.0000 -0.7277935429
O   O3        1.0  0.18510  0.09990  0.12320  1.0000 -0.7088417842
O   O4        1.0  0.90010  0.81490  0.62320  1.0000 -0.7088417842
O   O5        1.0  0.17160  0.26960  0.18370  1.0000 -0.7172263844
O   O6        1.0  0.73040  0.82840  0.68370  1.0000 -0.7172263844
O   O7        1.0  0.06550  0.17650  0.12170  1.0000 -0.6736265404
O   O8        1.0  0.82350  0.93450  0.62170  1.0000 -0.6736265404
O   O9        1.0  0.93760  0.01920  0.06330  1.0000 -0.6736265404
O   O10       1.0  0.98080  0.06240  0.56330  1.0000 -0.6736265404
O   O11       1.0  0.83090  0.92190  0.00540  1.0000 -0.661330591
O   O12       1.0  0.07810  0.16910  0.50540  1.0000 -0.661330591
O   O13       1.0  0.05120  0.14380  0.99250  1.0000 -0.7005432232
O   O14       1.0  0.85620  0.94880  0.49250  1.0000 -0.7005432232
O   O15       1.0  0.96470  0.07590  0.92000  1.0000 -0.629722385
O   O16       1.0  0.92410  0.03530  0.42000  1.0000 -0.629722385
O   O17       1.0  0.12220  0.23200  0.30390  1.0000 -0.7443055345
O   O18       1.0  0.76800  0.87780  0.80390  1.0000 -0.7443055345
O   O19       1.0  0.04290  0.14390  0.37130  1.0000 -0.6510108892
O   O20       1.0  0.85610  0.95710  0.87130  1.0000 -0.6510108892
O   O21       1.0  0.86030  0.76450  0.81250  1.0000 -0.7443055345
O   O22       1.0  0.23550  0.13970  0.31250  1.0000 -0.7443055345
O   O23       1.0  0.93440  0.83580  0.88570  1.0000 -0.7005432232
O   O24       1.0  0.16420  0.06560  0.38570  1.0000 -0.7005432232
O   O25       1.0  0.98490  0.90630  0.42950  1.0000 -0.661330591
O   O26       1.0  0.09370  0.01510  0.92950  1.0000 -0.661330591
O   O27       1.0  0.90910  0.81690  0.50010  1.0000 -0.7005432232
O   O28       1.0  0.18310  0.09090  0.00010  1.0000 -0.7005432232
O   O29       1.0  0.95960  0.86840  0.00100  1.0000 -0.7088417842
O   O30       1.0  0.13160  0.04040  0.50100  1.0000 -0.7088417842
O   O31       1.0  0.03520  0.94260  0.07550  1.0000 -0.661330591
O   O32       1.0  0.05740  0.96480  0.57550  1.0000 -0.6510108892
