# DDEC6 charges by PACMAN v1.1 (https://github.com/mtap-research/PACMAN-charge/)
data_2017[Cd][sql]2[ASR]7
_chemical_formula_sum              "Cd2 H32 C44 O12"
_cell_length_a       6.174
_cell_length_b       11.73
_cell_length_c       17.67
_cell_angle_alpha    92.377
_cell_angle_beta     93.131
_cell_angle_gamma    102.762

_symmetry_space_group_name_H-M    "P 1"
_symmetry_Int_Tables_number       1

loop_
  _symmetry_equiv_pos_as_xyz
  'x, y, z'

loop_
  _atom_site_type_symbol
  _atom_site_label
  _atom_site_symmetry_multiplicity
  _atom_site_fract_x
  _atom_site_fract_y
  _atom_site_fract_z
  _atom_site_occupancy
  _atom_site_charge
Cd  Cd1       1.0  0.50645  0.14573  0.04717  1.0000 1.0153613621
Cd  Cd2       1.0  0.49355  0.85427  0.95283  1.0000 1.0144161516
H   H1        1.0  0.98400  0.17800  0.23830  1.0000 0.1193792395
H   H2        1.0  0.94440  0.09150  0.82320  1.0000 0.1292356677
H   H3        1.0  0.53780  0.02420  0.78490  1.0000 0.1193792395
H   H4        1.0  0.44600  0.01000  0.65540  1.0000 0.1129304775
H   H5        1.0  0.86020  0.26520  0.34170  1.0000 0.1193792395
H   H6        1.0  0.84660  0.07010  0.69550  1.0000 0.1193792395
H   H7        1.0  0.77600  0.90530  0.58880  1.0000 0.1193792395
H   H8        1.0  0.59990  0.37140  0.28900  1.0000 0.1129304775
H   H9        1.0  0.18100  0.35250  0.52500  1.0000 0.1292356677
H   H10       1.0  0.47150  0.46400  0.38920  1.0000 0.1129304775
H   H11       1.0  0.59780  0.13240  0.47390  1.0000 0.1193792395
H   H12       1.0  0.68090  0.24710  0.52580  1.0000 0.1292356677
H   H13       1.0  0.49370  0.24110  0.46120  1.0000 0.1193792395
H   H14       1.0  0.70740  0.64750  0.34740  1.0000 0.1292356677
H   H15       1.0  0.86640  0.66690  0.28060  1.0000 0.141583749
H   H16       1.0  0.95260  0.72030  0.36240  1.0000 0.1193792395
H   H17       1.0  0.01600  0.82200  0.76170  1.0000 0.1193792395
H   H18       1.0  0.05560  0.90850  0.17680  1.0000 0.1292356677
H   H19       1.0  0.46220  0.97580  0.21510  1.0000 0.1193792395
H   H20       1.0  0.55400  0.99000  0.34460  1.0000 0.1129304775
H   H21       1.0  0.13980  0.73480  0.65830  1.0000 0.1193792395
H   H22       1.0  0.15340  0.92990  0.30450  1.0000 0.1193792395
H   H23       1.0  0.22400  0.09470  0.41120  1.0000 0.1193792395
H   H24       1.0  0.40010  0.62860  0.71100  1.0000 0.1129304775
H   H25       1.0  0.81900  0.64750  0.47500  1.0000 0.1193792395
H   H26       1.0  0.52850  0.53600  0.61080  1.0000 0.1129304775
H   H27       1.0  0.40220  0.86760  0.52610  1.0000 0.1193792395
H   H28       1.0  0.31910  0.75290  0.47420  1.0000 0.1292356677
H   H29       1.0  0.50630  0.75890  0.53880  1.0000 0.1193792395
H   H30       1.0  0.29260  0.35250  0.65260  1.0000 0.1292356677
H   H31       1.0  0.13360  0.33310  0.71940  1.0000 0.141583749
H   H32       1.0  0.04740  0.27970  0.63760  1.0000 0.1193792395
C   C1        1.0  0.38400  0.21590  0.18210  1.0000 0.5409575039
C   C2        1.0  0.08280  0.23540  0.26860  1.0000 -0.0810354772
C   C3        1.0  0.96300  0.52830  0.42510  1.0000 0.180070796
C   C4        1.0  0.07170  0.43890  0.43980  1.0000 -0.0272226232
C   C5        1.0  0.06770  0.02010  0.57810  1.0000 -0.0272226232
C   C6        1.0  0.04560  0.07470  0.78970  1.0000 -0.0810354772
C   C7        1.0  0.25430  0.06320  0.81790  1.0000 -0.0205085353
C   C8        1.0  0.13630  0.03590  0.66110  1.0000 0.0867779636
C   C9        1.0  0.30240  0.26720  0.25160  1.0000 -0.0205085353
C   C10       1.0  0.40020  0.03560  0.76690  1.0000 -0.0901180721
C   C11       1.0  0.32310  0.08130  0.90100  1.0000 0.5717627042
C   C12       1.0  0.34330  0.02480  0.68890  1.0000 -0.1614757941
C   C13       1.0  0.15270  0.37560  0.37590  1.0000 0.0831994498
C   C14       1.0  0.00830  0.28830  0.33040  1.0000 -0.1497895784
C   C15       1.0  0.98670  0.06170  0.71310  1.0000 -0.1614757941
C   C16       1.0  0.86670  0.94400  0.55320  1.0000 -0.278111673
C   C17       1.0  0.20120  0.07520  0.52310  1.0000 0.180070796
C   C18       1.0  0.44990  0.35160  0.29850  1.0000 -0.1104044533
C   C19       1.0  0.10770  0.41200  0.51480  1.0000 -0.2970444328
C   C20       1.0  0.37300  0.40600  0.35920  1.0000 -0.1614757941
C   C21       1.0  0.55380  0.19730  0.49860  1.0000 -0.2215061999
C   C22       1.0  0.85800  0.65480  0.33390  1.0000 -0.2311997629
C   C23       1.0  0.61600  0.78410  0.81790  1.0000 0.5409575039
C   C24       1.0  0.91720  0.76460  0.73140  1.0000 -0.0810354772
C   C25       1.0  0.03700  0.47170  0.57490  1.0000 0.180070796
C   C26       1.0  0.92830  0.56110  0.56020  1.0000 -0.0272226232
C   C27       1.0  0.93230  0.97990  0.42190  1.0000 -0.0272226232
C   C28       1.0  0.95440  0.92530  0.21030  1.0000 -0.0810354772
C   C29       1.0  0.74570  0.93680  0.18210  1.0000 -0.0205085353
C   C30       1.0  0.86370  0.96410  0.33890  1.0000 0.0867779636
C   C31       1.0  0.69760  0.73280  0.74840  1.0000 -0.0205085353
C   C32       1.0  0.59980  0.96440  0.23310  1.0000 -0.0901180721
C   C33       1.0  0.67690  0.91870  0.09900  1.0000 0.5717627042
C   C34       1.0  0.65670  0.97520  0.31110  1.0000 -0.1614757941
C   C35       1.0  0.84730  0.62440  0.62410  1.0000 0.0831994498
C   C36       1.0  0.99170  0.71170  0.66960  1.0000 -0.1497895784
C   C37       1.0  0.01330  0.93830  0.28690  1.0000 -0.1614757941
C   C38       1.0  0.13330  0.05600  0.44680  1.0000 -0.278111673
C   C39       1.0  0.79880  0.92480  0.47690  1.0000 0.180070796
C   C40       1.0  0.55010  0.64840  0.70150  1.0000 -0.1104044533
C   C41       1.0  0.89230  0.58800  0.48520  1.0000 -0.2970444328
C   C42       1.0  0.62700  0.59400  0.64080  1.0000 -0.1614757941
C   C43       1.0  0.44620  0.80270  0.50140  1.0000 -0.2215061999
C   C44       1.0  0.14200  0.34520  0.66610  1.0000 -0.2311997629
O   O1        1.0  0.50460  0.05630  0.92440  1.0000 -0.604744739
O   O2        1.0  0.20700  0.12530  0.94530  1.0000 -0.5142265624
O   O3        1.0  0.58780  0.23180  0.17320  1.0000 -0.5516386694
O   O4        1.0  0.24160  0.15590  0.13310  1.0000 -0.5296214289
O   O5        1.0  0.92950  0.55080  0.35050  1.0000 -0.1349957204
O   O6        1.0  0.39170  0.15570  0.54940  1.0000 -0.1497895784
O   O7        1.0  0.49540  0.94370  0.07560  1.0000 -0.604744739
O   O8        1.0  0.79300  0.87470  0.05470  1.0000 -0.5142265624
O   O9        1.0  0.41220  0.76820  0.82680  1.0000 -0.5516386694
O   O10       1.0  0.75840  0.84410  0.86690  1.0000 -0.5296214289
O   O11       1.0  0.07050  0.44920  0.64950  1.0000 -0.1349957204
O   O12       1.0  0.60830  0.84430  0.45060  1.0000 -0.1497895784
