# DDEC6 charges by PACMAN v1.1 (https://github.com/mtap-research/PACMAN-charge/)
data_2017[Co][pcu]2[ASR]5
_chemical_formula_sum              "Co8 H88 C144 N56 O48"
_cell_length_a       10.0414
_cell_length_b       19.702
_cell_length_c       20.261
_cell_angle_alpha    90
_cell_angle_beta     90
_cell_angle_gamma    90

_symmetry_space_group_name_H-M    "P 1"
_symmetry_Int_Tables_number       1

loop_
  _symmetry_equiv_pos_as_xyz
  'x, y, z'

loop_
  _atom_site_type_symbol
  _atom_site_label
  _atom_site_symmetry_multiplicity
  _atom_site_fract_x
  _atom_site_fract_y
  _atom_site_fract_z
  _atom_site_occupancy
  _atom_site_charge
Co  Co1       1.0  0.92359  0.95788  0.05805  1.0000 0.8444851962
Co  Co2       1.0  0.91720  0.55534  0.56169  1.0000 0.8501660553
Co  Co3       1.0  0.07641  0.45788  0.44195  1.0000 0.8444851962
Co  Co4       1.0  0.08280  0.05534  0.93831  1.0000 0.8501660553
Co  Co5       1.0  0.57641  0.04212  0.55805  1.0000 0.8444851962
Co  Co6       1.0  0.58280  0.44466  0.06169  1.0000 0.8501660553
Co  Co7       1.0  0.42359  0.54212  0.94195  1.0000 0.8444851962
Co  Co8       1.0  0.41720  0.94466  0.43831  1.0000 0.8501660553
H   H1        1.0  0.09550  0.87080  0.95290  1.0000 0.1305190447
H   H2        1.0  0.77420  0.81390  0.05030  1.0000 0.1196645666
H   H3        1.0  0.82760  0.72110  0.97460  1.0000 0.1396547568
H   H4        1.0  0.89130  0.68690  0.86630  1.0000 0.1608313796
H   H5        1.0  0.30370  0.76210  0.80590  1.0000 0.0909442696
H   H6        1.0  0.82070  0.59160  0.80930  1.0000 0.1305190447
H   H7        1.0  0.75890  0.53560  0.70480  1.0000 0.1196645666
H   H8        1.0  0.08230  0.64520  0.66830  1.0000 0.1141013754
H   H9        1.0  0.06490  0.85420  0.15920  1.0000 0.1196645666
H   H10       1.0  0.78530  0.98740  0.20420  1.0000 0.1196645666
H   H11       1.0  0.82510  0.92090  0.30480  1.0000 0.1305190447
H   H12       1.0  0.88830  0.82310  0.36480  1.0000 0.1608313796
H   H13       1.0  0.26080  0.71940  0.28470  1.0000 0.0909442696
H   H14       1.0  0.07260  0.63220  0.44630  1.0000 0.1305190447
H   H15       1.0  0.79530  0.71050  0.56200  1.0000 0.1196645666
H   H16       1.0  0.84160  0.79530  0.47580  1.0000 0.1396547568
H   H17       1.0  0.46120  0.56140  0.56990  1.0000 0.1196645666
H   H18       1.0  0.61000  0.37440  0.60760  1.0000 0.1305190447
H   H19       1.0  0.21180  0.40350  0.60060  1.0000 0.1305190447
H   H20       1.0  0.45430  0.94740  0.06800  1.0000 0.1196645666
H   H21       1.0  0.22300  0.11150  0.10170  1.0000 0.1305190447
H   H22       1.0  0.62630  0.12770  0.11260  1.0000 0.1305190447
H   H23       1.0  0.90450  0.37080  0.54710  1.0000 0.1305190447
H   H24       1.0  0.22580  0.31390  0.44970  1.0000 0.1196645666
H   H25       1.0  0.17240  0.22110  0.52540  1.0000 0.1396547568
H   H26       1.0  0.10870  0.18690  0.63370  1.0000 0.1608313796
H   H27       1.0  0.69630  0.26210  0.69410  1.0000 0.0909442696
H   H28       1.0  0.17930  0.09160  0.69070  1.0000 0.1305190447
H   H29       1.0  0.24110  0.03560  0.79520  1.0000 0.1196645666
H   H30       1.0  0.91770  0.14520  0.83170  1.0000 0.1141013754
H   H31       1.0  0.93510  0.35420  0.34080  1.0000 0.1196645666
H   H32       1.0  0.21470  0.48740  0.29580  1.0000 0.1196645666
H   H33       1.0  0.17490  0.42090  0.19520  1.0000 0.1305190447
H   H34       1.0  0.11170  0.32310  0.13520  1.0000 0.1608313796
H   H35       1.0  0.73920  0.21940  0.21530  1.0000 0.0909442696
H   H36       1.0  0.92740  0.13220  0.05370  1.0000 0.1305190447
H   H37       1.0  0.20470  0.21050  0.93800  1.0000 0.1196645666
H   H38       1.0  0.15840  0.29530  0.02420  1.0000 0.1396547568
H   H39       1.0  0.53880  0.06140  0.93010  1.0000 0.1196645666
H   H40       1.0  0.39000  0.87440  0.89240  1.0000 0.1305190447
H   H41       1.0  0.78820  0.90350  0.89940  1.0000 0.1305190447
H   H42       1.0  0.54570  0.44740  0.43200  1.0000 0.1196645666
H   H43       1.0  0.77700  0.61150  0.39830  1.0000 0.1305190447
H   H44       1.0  0.37370  0.62770  0.38740  1.0000 0.1305190447
H   H45       1.0  0.40450  0.12920  0.45290  1.0000 0.1305190447
H   H46       1.0  0.72580  0.18610  0.55030  1.0000 0.1196645666
H   H47       1.0  0.67240  0.27890  0.47460  1.0000 0.1396547568
H   H48       1.0  0.60870  0.31310  0.36630  1.0000 0.1608313796
H   H49       1.0  0.19630  0.23790  0.30590  1.0000 0.0909442696
H   H50       1.0  0.67930  0.40840  0.30930  1.0000 0.1305190447
H   H51       1.0  0.74110  0.46440  0.20480  1.0000 0.1196645666
H   H52       1.0  0.41770  0.35480  0.16830  1.0000 0.1141013754
H   H53       1.0  0.43510  0.14580  0.65920  1.0000 0.1196645666
H   H54       1.0  0.71470  0.01260  0.70420  1.0000 0.1196645666
H   H55       1.0  0.67490  0.07910  0.80480  1.0000 0.1305190447
H   H56       1.0  0.61170  0.17690  0.86480  1.0000 0.1608313796
H   H57       1.0  0.23920  0.28060  0.78470  1.0000 0.0909442696
H   H58       1.0  0.42740  0.36780  0.94630  1.0000 0.1305190447
H   H59       1.0  0.70470  0.28950  0.06200  1.0000 0.1196645666
H   H60       1.0  0.65840  0.20470  0.97580  1.0000 0.1396547568
H   H61       1.0  0.03880  0.43860  0.06990  1.0000 0.1196645666
H   H62       1.0  0.89000  0.62560  0.10760  1.0000 0.1305190447
H   H63       1.0  0.28820  0.59650  0.10060  1.0000 0.1305190447
H   H64       1.0  0.04570  0.05260  0.56800  1.0000 0.1196645666
H   H65       1.0  0.27700  0.88850  0.60170  1.0000 0.1305190447
H   H66       1.0  0.87370  0.87230  0.61260  1.0000 0.1305190447
H   H67       1.0  0.59550  0.62920  0.04710  1.0000 0.1305190447
H   H68       1.0  0.27420  0.68610  0.94970  1.0000 0.1196645666
H   H69       1.0  0.32760  0.77890  0.02540  1.0000 0.1396547568
H   H70       1.0  0.39130  0.81310  0.13370  1.0000 0.1608313796
H   H71       1.0  0.80370  0.73790  0.19410  1.0000 0.0909442696
H   H72       1.0  0.32070  0.90840  0.19070  1.0000 0.1305190447
H   H73       1.0  0.25890  0.96440  0.29520  1.0000 0.1196645666
H   H74       1.0  0.58230  0.85480  0.33170  1.0000 0.1141013754
H   H75       1.0  0.56490  0.64580  0.84080  1.0000 0.1196645666
H   H76       1.0  0.28530  0.51260  0.79580  1.0000 0.1196645666
H   H77       1.0  0.32510  0.57910  0.69520  1.0000 0.1305190447
H   H78       1.0  0.38830  0.67690  0.63520  1.0000 0.1608313796
H   H79       1.0  0.76080  0.78060  0.71530  1.0000 0.0909442696
H   H80       1.0  0.57260  0.86780  0.55370  1.0000 0.1305190447
H   H81       1.0  0.29530  0.78950  0.43800  1.0000 0.1196645666
H   H82       1.0  0.34160  0.70470  0.52420  1.0000 0.1396547568
H   H83       1.0  0.96120  0.93860  0.43010  1.0000 0.1196645666
H   H84       1.0  0.11000  0.12560  0.39240  1.0000 0.1305190447
H   H85       1.0  0.71180  0.09650  0.39940  1.0000 0.1305190447
H   H86       1.0  0.95430  0.55260  0.93200  1.0000 0.1196645666
H   H87       1.0  0.72300  0.38850  0.89830  1.0000 0.1305190447
H   H88       1.0  0.12630  0.37230  0.88740  1.0000 0.1305190447
C   C1        1.0  0.02100  0.84520  0.96760  1.0000 0.1396547568
C   C2        1.0  0.84660  0.81360  0.02010  1.0000 -0.02162647
C   C3        1.0  0.87500  0.76260  0.97920  1.0000 -0.1006120392
C   C4        1.0  0.04480  0.75110  0.88930  1.0000 0.3520409194
C   C5        1.0  0.97660  0.70300  0.85340  1.0000 -0.3316637325
C   C6        1.0  0.04010  0.67970  0.79730  1.0000 0.3590300073
C   C7        1.0  0.21770  0.74660  0.81840  1.0000 0.2456244034
C   C8        1.0  0.86570  0.59550  0.76820  1.0000 -0.093044038
C   C9        1.0  0.83290  0.56500  0.71090  1.0000 -0.02162647
C   C10       1.0  0.00910  0.62440  0.69000  1.0000 0.1305190447
C   C11       1.0  0.00010  0.87970  0.18270  1.0000 0.1396547568
C   C12       1.0  0.84780  0.95140  0.20820  1.0000 -0.02162647
C   C13       1.0  0.86880  0.91570  0.26350  1.0000 -0.1006120392
C   C14       1.0  0.02480  0.81910  0.28820  1.0000 0.3590300073
C   C15       1.0  0.96600  0.80150  0.34810  1.0000 -0.3194182538
C   C16       1.0  0.03090  0.75000  0.38080  1.0000 0.3416654942
C   C17       1.0  0.18340  0.74120  0.30140  1.0000 0.2403391552
C   C18       1.0  0.00880  0.66210  0.46500  1.0000 0.1396547568
C   C19       1.0  0.85810  0.70540  0.52720  1.0000 -0.0301750418
C   C20       1.0  0.88260  0.75210  0.48050  1.0000 -0.093044038
C   C21       1.0  0.20050  0.53610  0.57190  1.0000 0.5629005161
C   C22       1.0  0.31820  0.48960  0.58300  1.0000 -0.0069646569
C   C23       1.0  0.44730  0.51460  0.57900  1.0000 -0.112909672
C   C24       1.0  0.55680  0.47200  0.58810  1.0000 0.0015457672
C   C25       1.0  0.53660  0.40430  0.60220  1.0000 -0.1404520284
C   C26       1.0  0.40730  0.38090  0.60840  1.0000 0.069294461
C   C27       1.0  0.29930  0.42160  0.59790  1.0000 -0.1306568953
C   C28       1.0  0.69350  0.50120  0.58000  1.0000 0.5292467949
C   C29       1.0  0.69200  0.00190  0.07770  1.0000 0.5292467949
C   C30       1.0  0.55910  0.03250  0.08780  1.0000 -0.0069646569
C   C31       1.0  0.44590  0.99430  0.07810  1.0000 -0.1006120392
C   C32       1.0  0.32060  0.02270  0.08270  1.0000 0.0015457672
C   C33       1.0  0.30810  0.09060  0.09920  1.0000 -0.1404520284
C   C34       1.0  0.42300  0.12720  0.11200  1.0000 0.069294461
C   C35       1.0  0.54930  0.10060  0.10540  1.0000 -0.1487226757
C   C36       1.0  0.20200  0.97810  0.06940  1.0000 0.5629005161
C   C37       1.0  0.97900  0.34520  0.53240  1.0000 0.1396547568
C   C38       1.0  0.15340  0.31360  0.47990  1.0000 -0.02162647
C   C39       1.0  0.12500  0.26260  0.52080  1.0000 -0.1006120392
C   C40       1.0  0.95520  0.25110  0.61070  1.0000 0.3520409194
C   C41       1.0  0.02340  0.20300  0.64660  1.0000 -0.3316637325
C   C42       1.0  0.95990  0.17970  0.70270  1.0000 0.3590300073
C   C43       1.0  0.78230  0.24660  0.68160  1.0000 0.2456244034
C   C44       1.0  0.13430  0.09550  0.73180  1.0000 -0.093044038
C   C45       1.0  0.16710  0.06500  0.78910  1.0000 -0.02162647
C   C46       1.0  0.99090  0.12440  0.81000  1.0000 0.1305190447
C   C47       1.0  0.99990  0.37970  0.31730  1.0000 0.1396547568
C   C48       1.0  0.15220  0.45140  0.29180  1.0000 -0.02162647
C   C49       1.0  0.13120  0.41570  0.23650  1.0000 -0.1006120392
C   C50       1.0  0.97520  0.31910  0.21180  1.0000 0.3590300073
C   C51       1.0  0.03400  0.30150  0.15190  1.0000 -0.3194182538
C   C52       1.0  0.96910  0.25000  0.11920  1.0000 0.3416654942
C   C53       1.0  0.81660  0.24120  0.19860  1.0000 0.2403391552
C   C54       1.0  0.99120  0.16210  0.03500  1.0000 0.1396547568
C   C55       1.0  0.14190  0.20540  0.97280  1.0000 -0.0301750418
C   C56       1.0  0.11740  0.25210  0.01950  1.0000 -0.093044038
C   C57       1.0  0.79950  0.03610  0.92810  1.0000 0.5629005161
C   C58       1.0  0.68180  0.98960  0.91700  1.0000 -0.0069646569
C   C59       1.0  0.55270  0.01460  0.92100  1.0000 -0.112909672
C   C60       1.0  0.44320  0.97200  0.91190  1.0000 0.0015457672
C   C61       1.0  0.46340  0.90430  0.89780  1.0000 -0.1404520284
C   C62       1.0  0.59270  0.88090  0.89160  1.0000 0.069294461
C   C63       1.0  0.70070  0.92160  0.90210  1.0000 -0.1306568953
C   C64       1.0  0.30650  0.00120  0.92000  1.0000 0.5292467949
C   C65       1.0  0.30800  0.50190  0.42230  1.0000 0.5292467949
C   C66       1.0  0.44090  0.53250  0.41220  1.0000 -0.0069646569
C   C67       1.0  0.55410  0.49430  0.42190  1.0000 -0.1006120392
C   C68       1.0  0.67940  0.52270  0.41730  1.0000 0.0015457672
C   C69       1.0  0.69190  0.59060  0.40080  1.0000 -0.1404520284
C   C70       1.0  0.57700  0.62720  0.38800  1.0000 0.069294461
C   C71       1.0  0.45070  0.60060  0.39460  1.0000 -0.1487226757
C   C72       1.0  0.79800  0.47810  0.43060  1.0000 0.5629005161
C   C73       1.0  0.47900  0.15480  0.46760  1.0000 0.1396547568
C   C74       1.0  0.65340  0.18640  0.52010  1.0000 -0.02162647
C   C75       1.0  0.62500  0.23740  0.47920  1.0000 -0.1006120392
C   C76       1.0  0.45520  0.24890  0.38930  1.0000 0.3520409194
C   C77       1.0  0.52340  0.29700  0.35340  1.0000 -0.3316637325
C   C78       1.0  0.45990  0.32030  0.29730  1.0000 0.3590300073
C   C79       1.0  0.28230  0.25340  0.31840  1.0000 0.2456244034
C   C80       1.0  0.63430  0.40450  0.26820  1.0000 -0.093044038
C   C81       1.0  0.66710  0.43500  0.21090  1.0000 -0.02162647
C   C82       1.0  0.49090  0.37560  0.19000  1.0000 0.1305190447
C   C83       1.0  0.49990  0.12030  0.68270  1.0000 0.1396547568
C   C84       1.0  0.65220  0.04860  0.70820  1.0000 -0.02162647
C   C85       1.0  0.63120  0.08430  0.76350  1.0000 -0.1006120392
C   C86       1.0  0.47520  0.18090  0.78820  1.0000 0.3590300073
C   C87       1.0  0.53400  0.19850  0.84810  1.0000 -0.3194182538
C   C88       1.0  0.46910  0.25000  0.88080  1.0000 0.3416654942
C   C89       1.0  0.31660  0.25880  0.80140  1.0000 0.2403391552
C   C90       1.0  0.49120  0.33790  0.96500  1.0000 0.1396547568
C   C91       1.0  0.64190  0.29460  0.02720  1.0000 -0.0301750418
C   C92       1.0  0.61740  0.24790  0.98050  1.0000 -0.093044038
C   C93       1.0  0.29950  0.46390  0.07190  1.0000 0.5629005161
C   C94       1.0  0.18180  0.51040  0.08300  1.0000 -0.0069646569
C   C95       1.0  0.05270  0.48540  0.07900  1.0000 -0.112909672
C   C96       1.0  0.94320  0.52800  0.08810  1.0000 0.0015457672
C   C97       1.0  0.96340  0.59570  0.10220  1.0000 -0.1404520284
C   C98       1.0  0.09270  0.61910  0.10840  1.0000 0.069294461
C   C99       1.0  0.20070  0.57840  0.09790  1.0000 -0.1306568953
C   C100      1.0  0.80650  0.49880  0.08000  1.0000 0.5292467949
C   C101      1.0  0.80800  0.99810  0.57770  1.0000 0.5292467949
C   C102      1.0  0.94090  0.96750  0.58780  1.0000 -0.0069646569
C   C103      1.0  0.05410  0.00570  0.57810  1.0000 -0.1006120392
C   C104      1.0  0.17940  0.97730  0.58270  1.0000 0.0015457672
C   C105      1.0  0.19190  0.90940  0.59920  1.0000 -0.1404520284
C   C106      1.0  0.07700  0.87280  0.61200  1.0000 0.069294461
C   C107      1.0  0.95070  0.89940  0.60540  1.0000 -0.1487226757
C   C108      1.0  0.29800  0.02190  0.56940  1.0000 0.5629005161
C   C109      1.0  0.52100  0.65480  0.03240  1.0000 0.1396547568
C   C110      1.0  0.34660  0.68640  0.97990  1.0000 -0.02162647
C   C111      1.0  0.37500  0.73740  0.02080  1.0000 -0.1006120392
C   C112      1.0  0.54480  0.74890  0.11070  1.0000 0.3520409194
C   C113      1.0  0.47660  0.79700  0.14660  1.0000 -0.3316637325
C   C114      1.0  0.54010  0.82030  0.20270  1.0000 0.3590300073
C   C115      1.0  0.71770  0.75340  0.18160  1.0000 0.2456244034
C   C116      1.0  0.36570  0.90450  0.23180  1.0000 -0.093044038
C   C117      1.0  0.33290  0.93500  0.28910  1.0000 -0.02162647
C   C118      1.0  0.50910  0.87560  0.31000  1.0000 0.1305190447
C   C119      1.0  0.50010  0.62030  0.81730  1.0000 0.1396547568
C   C120      1.0  0.34780  0.54860  0.79180  1.0000 -0.02162647
C   C121      1.0  0.36880  0.58430  0.73650  1.0000 -0.1006120392
C   C122      1.0  0.52480  0.68090  0.71180  1.0000 0.3590300073
C   C123      1.0  0.46600  0.69850  0.65190  1.0000 -0.3194182538
C   C124      1.0  0.53090  0.75000  0.61920  1.0000 0.3416654942
C   C125      1.0  0.68340  0.75880  0.69860  1.0000 0.2403391552
C   C126      1.0  0.50880  0.83790  0.53500  1.0000 0.1396547568
C   C127      1.0  0.35810  0.79460  0.47280  1.0000 -0.0301750418
C   C128      1.0  0.38260  0.74790  0.51950  1.0000 -0.093044038
C   C129      1.0  0.70050  0.96390  0.42810  1.0000 0.5629005161
C   C130      1.0  0.81820  0.01040  0.41700  1.0000 -0.0069646569
C   C131      1.0  0.94730  0.98540  0.42100  1.0000 -0.112909672
C   C132      1.0  0.05680  0.02800  0.41190  1.0000 0.0015457672
C   C133      1.0  0.03660  0.09570  0.39780  1.0000 -0.1404520284
C   C134      1.0  0.90730  0.11910  0.39160  1.0000 0.069294461
C   C135      1.0  0.79930  0.07840  0.40210  1.0000 -0.1306568953
C   C136      1.0  0.19350  0.99880  0.42000  1.0000 0.5292467949
C   C137      1.0  0.19200  0.49810  0.92230  1.0000 0.5292467949
C   C138      1.0  0.05910  0.46750  0.91220  1.0000 -0.0069646569
C   C139      1.0  0.94590  0.50570  0.92190  1.0000 -0.1006120392
C   C140      1.0  0.82060  0.47730  0.91730  1.0000 0.0015457672
C   C141      1.0  0.80810  0.40940  0.90080  1.0000 -0.1404520284
C   C142      1.0  0.92300  0.37280  0.88800  1.0000 0.069294461
C   C143      1.0  0.04930  0.39940  0.89460  1.0000 -0.1487226757
C   C144      1.0  0.70200  0.52190  0.93060  1.0000 0.5629005161
N   N1        1.0  0.93620  0.86540  0.01260  1.0000 -0.2892258215
N   N2        1.0  0.98770  0.78250  0.94470  1.0000 -0.02162647
N   N3        1.0  0.16620  0.77330  0.87350  1.0000 -0.3672135557
N   N4        1.0  0.16110  0.70060  0.77920  1.0000 -0.3672135557
N   N5        1.0  0.97770  0.63370  0.75520  1.0000 -0.02162647
N   N6        1.0  0.92470  0.58300  0.66180  1.0000 -0.2892258215
N   N7        1.0  0.93010  0.92870  0.15740  1.0000 -0.2892258215
N   N8        1.0  0.96830  0.86940  0.24760  1.0000 -0.0301750418
N   N9        1.0  0.13200  0.78950  0.26390  1.0000 -0.3620373207
N   N10       1.0  0.13980  0.71930  0.35970  1.0000 -0.3620373207
N   N11       1.0  0.97970  0.72420  0.44100  1.0000 -0.02162647
N   N12       1.0  0.93770  0.64840  0.51750  1.0000 -0.2892258215
N   N13       1.0  0.38540  0.30950  0.62610  1.0000 0.5140094635
N   N14       1.0  0.41160  0.19800  0.13500  1.0000 0.5140094635
N   N15       1.0  0.06380  0.36540  0.48740  1.0000 -0.2892258215
N   N16       1.0  0.01230  0.28250  0.55530  1.0000 -0.02162647
N   N17       1.0  0.83380  0.27330  0.62650  1.0000 -0.3672135557
N   N18       1.0  0.83890  0.20060  0.72080  1.0000 -0.3672135557
N   N19       1.0  0.02230  0.13370  0.74480  1.0000 -0.02162647
N   N20       1.0  0.07530  0.08300  0.83820  1.0000 -0.2892258215
N   N21       1.0  0.06990  0.42870  0.34260  1.0000 -0.2892258215
N   N22       1.0  0.03170  0.36940  0.25240  1.0000 -0.0301750418
N   N23       1.0  0.86800  0.28950  0.23610  1.0000 -0.3620373207
N   N24       1.0  0.86020  0.21930  0.14030  1.0000 -0.3620373207
N   N25       1.0  0.02030  0.22420  0.05900  1.0000 -0.02162647
N   N26       1.0  0.06230  0.14840  0.98250  1.0000 -0.2892258215
N   N27       1.0  0.61460  0.80950  0.87390  1.0000 0.5140094635
N   N28       1.0  0.58840  0.69800  0.36500  1.0000 0.5140094635
N   N29       1.0  0.56380  0.13460  0.51260  1.0000 -0.2892258215
N   N30       1.0  0.51230  0.21750  0.44470  1.0000 -0.02162647
N   N31       1.0  0.33380  0.22670  0.37350  1.0000 -0.3672135557
N   N32       1.0  0.33890  0.29940  0.27920  1.0000 -0.3672135557
N   N33       1.0  0.52230  0.36630  0.25520  1.0000 -0.02162647
N   N34       1.0  0.57530  0.41700  0.16180  1.0000 -0.2892258215
N   N35       1.0  0.56990  0.07130  0.65740  1.0000 -0.2892258215
N   N36       1.0  0.53170  0.13060  0.74760  1.0000 -0.0301750418
N   N37       1.0  0.36800  0.21050  0.76390  1.0000 -0.3620373207
N   N38       1.0  0.36020  0.28070  0.85970  1.0000 -0.3620373207
N   N39       1.0  0.52030  0.27580  0.94100  1.0000 -0.02162647
N   N40       1.0  0.56230  0.35160  0.01750  1.0000 -0.2892258215
N   N41       1.0  0.11460  0.69050  0.12610  1.0000 0.5140094635
N   N42       1.0  0.08840  0.80200  0.63500  1.0000 0.5140094635
N   N43       1.0  0.43620  0.63460  0.98740  1.0000 -0.2892258215
N   N44       1.0  0.48770  0.71750  0.05530  1.0000 -0.02162647
N   N45       1.0  0.66620  0.72670  0.12650  1.0000 -0.3672135557
N   N46       1.0  0.66110  0.79940  0.22080  1.0000 -0.3672135557
N   N47       1.0  0.47770  0.86630  0.24480  1.0000 -0.02162647
N   N48       1.0  0.42470  0.91700  0.33820  1.0000 -0.2892258215
N   N49       1.0  0.43010  0.57130  0.84260  1.0000 -0.2892258215
N   N50       1.0  0.46830  0.63060  0.75240  1.0000 -0.0301750418
N   N51       1.0  0.63200  0.71050  0.73610  1.0000 -0.3620373207
N   N52       1.0  0.63980  0.78070  0.64030  1.0000 -0.3620373207
N   N53       1.0  0.47970  0.77580  0.55900  1.0000 -0.02162647
N   N54       1.0  0.43770  0.85160  0.48250  1.0000 -0.2892258215
N   N55       1.0  0.88540  0.19050  0.37390  1.0000 0.5140094635
N   N56       1.0  0.91160  0.30200  0.86500  1.0000 0.5140094635
O   O1        1.0  0.09240  0.50753  0.55305  1.0000 -0.5689782324
O   O2        1.0  0.21620  0.59754  0.58270  1.0000 -0.5490982208
O   O3        1.0  0.70510  0.56280  0.56600  1.0000 -0.5303410563
O   O4        1.0  0.79370  0.46360  0.58820  1.0000 -0.5303410563
O   O5        1.0  0.47710  0.27010  0.62060  1.0000 -0.3149155351
O   O6        1.0  0.27280  0.29380  0.64500  1.0000 -0.3316637325
O   O7        1.0  0.70300  0.93920  0.06700  1.0000 -0.5303410563
O   O8        1.0  0.79600  0.03944  0.07780  1.0000 -0.5303410563
O   O9        1.0  0.21120  0.91690  0.08080  1.0000 -0.5427487764
O   O10       1.0  0.09650  0.00823  0.04715  1.0000 -0.5753771039
O   O11       1.0  0.30350  0.22610  0.13050  1.0000 -0.3194182538
O   O12       1.0  0.50880  0.22410  0.15990  1.0000 -0.3194182538
O   O13       1.0  0.90760  0.00753  0.94695  1.0000 -0.5689782324
O   O14       1.0  0.78380  0.09754  0.91730  1.0000 -0.5490982208
O   O15       1.0  0.29490  0.06280  0.93400  1.0000 -0.5303410563
O   O16       1.0  0.20630  0.96360  0.91180  1.0000 -0.5303410563
O   O17       1.0  0.52290  0.77010  0.87940  1.0000 -0.3149155351
O   O18       1.0  0.72720  0.79380  0.85500  1.0000 -0.3316637325
O   O19       1.0  0.29700  0.43920  0.43300  1.0000 -0.5303410563
O   O20       1.0  0.20400  0.53944  0.42220  1.0000 -0.5303410563
O   O21       1.0  0.78880  0.41690  0.41920  1.0000 -0.5427487764
O   O22       1.0  0.90350  0.50823  0.45285  1.0000 -0.5753771039
O   O23       1.0  0.69650  0.72610  0.36950  1.0000 -0.3194182538
O   O24       1.0  0.49120  0.72410  0.34010  1.0000 -0.3194182538
O   O25       1.0  0.40760  0.49247  0.05305  1.0000 -0.5689782324
O   O26       1.0  0.28380  0.40246  0.08270  1.0000 -0.5490982208
O   O27       1.0  0.79490  0.43720  0.06600  1.0000 -0.5303410563
O   O28       1.0  0.70630  0.53640  0.08820  1.0000 -0.5303410563
O   O29       1.0  0.02290  0.72990  0.12060  1.0000 -0.3149155351
O   O30       1.0  0.22720  0.70620  0.14500  1.0000 -0.3316637325
O   O31       1.0  0.79700  0.06080  0.56700  1.0000 -0.5303410563
O   O32       1.0  0.70400  0.96056  0.57780  1.0000 -0.5303410563
O   O33       1.0  0.28880  0.08310  0.58080  1.0000 -0.5427487764
O   O34       1.0  0.40350  0.99177  0.54715  1.0000 -0.5753771039
O   O35       1.0  0.19650  0.77390  0.63050  1.0000 -0.3194182538
O   O36       1.0  0.99120  0.77590  0.65990  1.0000 -0.3194182538
O   O37       1.0  0.59240  0.99247  0.44695  1.0000 -0.5689782324
O   O38       1.0  0.71620  0.90246  0.41730  1.0000 -0.5490982208
O   O39       1.0  0.20510  0.93720  0.43400  1.0000 -0.5303410563
O   O40       1.0  0.29370  0.03640  0.41180  1.0000 -0.5303410563
O   O41       1.0  0.97710  0.22990  0.37940  1.0000 -0.3149155351
O   O42       1.0  0.77280  0.20620  0.35500  1.0000 -0.3316637325
O   O43       1.0  0.20300  0.56080  0.93300  1.0000 -0.5303410563
O   O44       1.0  0.29600  0.46056  0.92220  1.0000 -0.5303410563
O   O45       1.0  0.71120  0.58310  0.91920  1.0000 -0.5427487764
O   O46       1.0  0.59650  0.49177  0.95285  1.0000 -0.5753771039
O   O47       1.0  0.80350  0.27390  0.86950  1.0000 -0.3194182538
O   O48       1.0  0.00880  0.27590  0.84010  1.0000 -0.3194182538
