# DDEC6 charges by PACMAN v1.1 (https://github.com/mtap-research/PACMAN-charge/)
data_2017[Nd][nan]3[ASR]5
_chemical_formula_sum              "Nd4 C48 O24 F24"
_cell_length_a       7.866
_cell_length_b       21.215
_cell_length_c       10.205
_cell_angle_alpha    90
_cell_angle_beta     98.642
_cell_angle_gamma    90

_symmetry_space_group_name_H-M    "P 1"
_symmetry_Int_Tables_number       1

loop_
  _symmetry_equiv_pos_as_xyz
  'x, y, z'

loop_
  _atom_site_type_symbol
  _atom_site_label
  _atom_site_symmetry_multiplicity
  _atom_site_fract_x
  _atom_site_fract_y
  _atom_site_fract_z
  _atom_site_occupancy
  _atom_site_charge
Nd  Nd1       1.0  0.99580  0.78473  0.49075  1.0000 2.1053889008
Nd  Nd2       1.0  0.50420  0.28473  0.50925  1.0000 2.1053889008
Nd  Nd3       1.0  0.00420  0.21527  0.50925  1.0000 2.1053889008
Nd  Nd4       1.0  0.49580  0.71527  0.49075  1.0000 2.1053889008
C   C1        1.0  0.36510  0.87310  0.50000  1.0000 0.6977640601
C   C2        1.0  0.13490  0.37310  0.50000  1.0000 0.6977640601
C   C3        1.0  0.63490  0.12690  0.50000  1.0000 0.6977640601
C   C4        1.0  0.86510  0.62690  0.50000  1.0000 0.6977640601
C   C5        1.0  0.43020  0.93920  0.50090  1.0000 -0.1991901337
C   C6        1.0  0.06980  0.43920  0.49910  1.0000 -0.1991901337
C   C7        1.0  0.56980  0.06080  0.49910  1.0000 -0.1991901337
C   C8        1.0  0.93020  0.56080  0.50090  1.0000 -0.1991901337
C   C9        1.0  0.44380  0.97010  0.38490  1.0000 0.140573761
C   C10       1.0  0.05620  0.47010  0.61510  1.0000 0.140573761
C   C11       1.0  0.55620  0.02990  0.61510  1.0000 0.140573761
C   C12       1.0  0.94380  0.52990  0.38490  1.0000 0.140573761
C   C13       1.0  0.49280  0.96980  0.61650  1.0000 0.1538585336
C   C14       1.0  0.00720  0.46980  0.38350  1.0000 0.1538585336
C   C15       1.0  0.50720  0.03020  0.38350  1.0000 0.1538585336
C   C16       1.0  0.99280  0.53020  0.61650  1.0000 0.1538585336
C   C17       1.0  0.27940  0.79170  0.91020  1.0000 0.1585451758
C   C18       1.0  0.22060  0.29170  0.08980  1.0000 0.1585451758
C   C19       1.0  0.72060  0.20830  0.08980  1.0000 0.1585451758
C   C20       1.0  0.77940  0.70830  0.91020  1.0000 0.1585451758
C   C21       1.0  0.28620  0.72950  0.86480  1.0000 -0.2087326399
C   C22       1.0  0.21380  0.22950  0.13520  1.0000 -0.2087326399
C   C23       1.0  0.71380  0.27050  0.13520  1.0000 -0.2087326399
C   C24       1.0  0.78620  0.77050  0.86480  1.0000 -0.2087326399
C   C25       1.0  0.25140  0.68220  0.94800  1.0000 0.1585451758
C   C26       1.0  0.24860  0.18220  0.05200  1.0000 0.1585451758
C   C27       1.0  0.74860  0.31780  0.05200  1.0000 0.1585451758
C   C28       1.0  0.75140  0.81780  0.94800  1.0000 0.1585451758
C   C29       1.0  0.20700  0.69580  0.07070  1.0000 0.1585451758
C   C30       1.0  0.29300  0.19580  0.92930  1.0000 0.1585451758
C   C31       1.0  0.79300  0.30420  0.92930  1.0000 0.1538585336
C   C32       1.0  0.70700  0.80420  0.07070  1.0000 0.1585451758
C   C33       1.0  0.19510  0.75670  0.11500  1.0000 -0.2087326399
C   C34       1.0  0.30490  0.25670  0.88500  1.0000 -0.2087326399
C   C35       1.0  0.80490  0.24330  0.88500  1.0000 -0.2087326399
C   C36       1.0  0.69510  0.74330  0.11500  1.0000 -0.2087326399
C   C37       1.0  0.23330  0.80500  0.03060  1.0000 0.1585451758
C   C38       1.0  0.26670  0.30500  0.96940  1.0000 0.1538585336
C   C39       1.0  0.76670  0.19500  0.96940  1.0000 0.1538585336
C   C40       1.0  0.73330  0.69500  0.03060  1.0000 0.1585451758
C   C41       1.0  0.14300  0.77200  0.24850  1.0000 0.6417667182
C   C42       1.0  0.35700  0.27200  0.75150  1.0000 0.6417667182
C   C43       1.0  0.85700  0.22800  0.75150  1.0000 0.6417667182
C   C44       1.0  0.64300  0.72800  0.24850  1.0000 0.6417667182
C   C45       1.0  0.34020  0.71630  0.73150  1.0000 0.6417667182
C   C46       1.0  0.15980  0.21630  0.26850  1.0000 0.6417667182
C   C47       1.0  0.65980  0.28370  0.26850  1.0000 0.6417667182
C   C48       1.0  0.84020  0.78370  0.73150  1.0000 0.6417667182
O   O1        1.0  0.03060  0.81030  0.25470  1.0000 -0.5330033241
O   O2        1.0  0.46940  0.31030  0.74530  1.0000 -0.5330033241
O   O3        1.0  0.96940  0.18970  0.74530  1.0000 -0.5330033241
O   O4        1.0  0.53060  0.68970  0.25470  1.0000 -0.5330033241
O   O5        1.0  0.21700  0.74230  0.34940  1.0000 -0.7284549861
O   O6        1.0  0.28300  0.24230  0.65060  1.0000 -0.7284549861
O   O7        1.0  0.78300  0.25770  0.65060  1.0000 -0.7284549861
O   O8        1.0  0.71700  0.75770  0.34940  1.0000 -0.7284549861
O   O9        1.0  0.47030  0.83040  0.48720  1.0000 -0.6378245144
O   O10       1.0  0.02970  0.33040  0.51280  1.0000 -0.6378245144
O   O11       1.0  0.52970  0.16960  0.51280  1.0000 -0.6378245144
O   O12       1.0  0.97030  0.66960  0.48720  1.0000 -0.6378245144
O   O13       1.0  0.20860  0.86670  0.51160  1.0000 -0.6664263992
O   O14       1.0  0.29140  0.36670  0.48840  1.0000 -0.6664263992
O   O15       1.0  0.79140  0.13330  0.48840  1.0000 -0.6664263992
O   O16       1.0  0.70860  0.63330  0.51160  1.0000 -0.6664263992
O   O17       1.0  0.25340  0.74050  0.62970  1.0000 -0.7180082439
O   O18       1.0  0.24660  0.24050  0.37030  1.0000 -0.7180082439
O   O19       1.0  0.74660  0.25950  0.37030  1.0000 -0.7180082439
O   O20       1.0  0.75340  0.75950  0.62970  1.0000 -0.7180082439
O   O21       1.0  0.46610  0.68420  0.72450  1.0000 -0.538765931
O   O22       1.0  0.03390  0.18420  0.27550  1.0000 -0.538765931
O   O23       1.0  0.53390  0.31580  0.27550  1.0000 -0.538765931
O   O24       1.0  0.96610  0.81580  0.72450  1.0000 -0.538765931
F   F1        1.0  0.48360  0.94130  0.73220  1.0000 -0.0990908187
F   F2        1.0  0.01640  0.44130  0.26780  1.0000 -0.0990908187
F   F3        1.0  0.51640  0.05870  0.26780  1.0000 -0.0990908187
F   F4        1.0  0.98360  0.55870  0.73220  1.0000 -0.0990908187
F   F5        1.0  0.38730  0.94100  0.26910  1.0000 -0.0990908187
F   F6        1.0  0.11270  0.44100  0.73090  1.0000 -0.0990908187
F   F7        1.0  0.61270  0.05900  0.73090  1.0000 -0.0990908187
F   F8        1.0  0.88730  0.55900  0.26910  1.0000 -0.0990908187
F   F9        1.0  0.22750  0.86480  0.06880  1.0000 -0.0990908187
F   F10       1.0  0.27250  0.36480  0.93120  1.0000 -0.0990908187
F   F11       1.0  0.77250  0.13520  0.93120  1.0000 -0.0990908187
F   F12       1.0  0.72750  0.63520  0.06880  1.0000 -0.0990908187
F   F13       1.0  0.32360  0.83890  0.83540  1.0000 -0.0840435787
F   F14       1.0  0.17640  0.33890  0.16460  1.0000 -0.0840435787
F   F15       1.0  0.67640  0.16110  0.16460  1.0000 -0.0840435787
F   F16       1.0  0.82360  0.66110  0.83540  1.0000 -0.0840435787
F   F17       1.0  0.16410  0.64790  0.14610  1.0000 -0.0922387479
F   F18       1.0  0.33590  0.14790  0.85390  1.0000 -0.0922387479
F   F19       1.0  0.83590  0.35210  0.85390  1.0000 -0.0922387479
F   F20       1.0  0.66410  0.85210  0.14610  1.0000 -0.0922387479
F   F21       1.0  0.25740  0.62190  0.91080  1.0000 -0.0990908187
F   F22       1.0  0.24260  0.12190  0.08920  1.0000 -0.0990908187
F   F23       1.0  0.74260  0.37810  0.08920  1.0000 -0.0990908187
F   F24       1.0  0.75740  0.87810  0.91080  1.0000 -0.0990908187
