# DDEC6 charges by PACMAN v1.1 (https://github.com/mtap-research/PACMAN-charge/)
data_2017[Ag][hcb]2[ASR]22
_chemical_formula_sum              "Ag2 H42 C54 N6 O12"
_cell_length_a       9.4851
_cell_length_b       12.8831
_cell_length_c       15.3555
_cell_angle_alpha    108.182
_cell_angle_beta     91.449
_cell_angle_gamma    103.308

_symmetry_space_group_name_H-M    "P 1"
_symmetry_Int_Tables_number       1

loop_
  _symmetry_equiv_pos_as_xyz
  'x, y, z'

loop_
  _atom_site_type_symbol
  _atom_site_label
  _atom_site_symmetry_multiplicity
  _atom_site_fract_x
  _atom_site_fract_y
  _atom_site_fract_z
  _atom_site_occupancy
  _atom_site_charge
Ag  Ag1       1.0  0.73525  0.89734  0.27964  1.0000 0.2242198162
Ag  Ag2       1.0  0.26475  0.10266  0.72036  1.0000 0.2242198162
H   H1        1.0  0.76580  0.97760  0.49970  1.0000 0.0900784158
H   H2        1.0  0.72010  0.11000  0.62860  1.0000 0.1316394203
H   H3        1.0  0.52540  0.23470  0.46000  1.0000 0.1316394203
H   H4        1.0  0.57750  0.09820  0.33570  1.0000 0.1005289556
H   H5        1.0  0.43330  0.39360  0.74310  1.0000 0.1005289556
H   H6        1.0  0.57720  0.48020  0.73150  1.0000 0.1168421232
H   H7        1.0  0.88150  0.83400  0.43510  1.0000 0.0900784158
H   H8        1.0  0.01230  0.71260  0.46090  1.0000 0.1316394203
H   H9        1.0  0.98120  0.56300  0.18460  1.0000 0.1391117
H   H10       1.0  0.84820  0.68510  0.16790  1.0000 0.1005289556
H   H11       1.0  0.14650  0.40780  0.42130  1.0000 0.1068639803
H   H12       1.0  0.29920  0.48230  0.40670  1.0000 0.1005289556
H   H13       1.0  0.42360  0.80040  0.16360  1.0000 0.1068639803
H   H14       1.0  0.30560  0.76700  0.01980  1.0000 0.1316394203
H   H15       1.0  0.67990  0.93530  0.95470  1.0000 0.1316394203
H   H16       1.0  0.78650  0.96500  0.10060  1.0000 0.0900784158
H   H17       1.0  0.10130  0.70100  0.77000  1.0000 0.1168421232
H   H18       1.0  0.22580  0.79420  0.74840  1.0000 0.1005289556
H   H19       1.0  0.37820  0.59470  0.79230  1.0000 0.1168421232
H   H20       1.0  0.37830  0.40430  0.52770  1.0000 0.1168421232
H   H21       1.0  0.15600  0.64690  0.58830  1.0000 0.1168421232
H   H22       1.0  0.23420  0.02240  0.50030  1.0000 0.0900784158
H   H23       1.0  0.27990  0.89000  0.37140  1.0000 0.1316394203
H   H24       1.0  0.47460  0.76530  0.54000  1.0000 0.1316394203
H   H25       1.0  0.42250  0.90180  0.66430  1.0000 0.1005289556
H   H26       1.0  0.56670  0.60640  0.25690  1.0000 0.1005289556
H   H27       1.0  0.42280  0.51980  0.26850  1.0000 0.1168421232
H   H28       1.0  0.11850  0.16600  0.56490  1.0000 0.0900784158
H   H29       1.0  0.98770  0.28740  0.53910  1.0000 0.1316394203
H   H30       1.0  0.01880  0.43700  0.81540  1.0000 0.1391117
H   H31       1.0  0.15180  0.31490  0.83210  1.0000 0.1005289556
H   H32       1.0  0.85350  0.59220  0.57870  1.0000 0.1068639803
H   H33       1.0  0.70080  0.51770  0.59330  1.0000 0.1005289556
H   H34       1.0  0.57640  0.19960  0.83640  1.0000 0.1068639803
H   H35       1.0  0.69440  0.23300  0.98020  1.0000 0.1316394203
H   H36       1.0  0.32010  0.06470  0.04530  1.0000 0.1316394203
H   H37       1.0  0.21350  0.03500  0.89940  1.0000 0.0900784158
H   H38       1.0  0.89870  0.29900  0.23000  1.0000 0.1168421232
H   H39       1.0  0.77420  0.20580  0.25160  1.0000 0.1005289556
H   H40       1.0  0.62180  0.40530  0.20770  1.0000 0.1168421232
H   H41       1.0  0.62170  0.59570  0.47230  1.0000 0.1168421232
H   H42       1.0  0.84400  0.35310  0.41170  1.0000 0.1168421232
C   C1        1.0  0.71570  0.03050  0.49170  1.0000 0.0345717859
C   C2        1.0  0.68910  0.10900  0.56890  1.0000 -0.1708654622
C   C3        1.0  0.61610  0.18730  0.55860  1.0000 -0.0012842247
C   C4        1.0  0.57480  0.18230  0.46980  1.0000 -0.1708654622
C   C5        1.0  0.60610  0.10060  0.39620  1.0000 0.0454843477
C   C6        1.0  0.58710  0.27170  0.64240  1.0000 0.4806191795
C   C7        1.0  0.48430  0.42710  0.69910  1.0000 -0.0835546344
C   C8        1.0  0.90100  0.77730  0.38360  1.0000 0.0403738567
C   C9        1.0  0.97990  0.70580  0.39980  1.0000 -0.1754409201
C   C10       1.0  0.01040  0.62440  0.32520  1.0000 0.0072682504
C   C11       1.0  0.96100  0.61760  0.23740  1.0000 -0.157373657
C   C12       1.0  0.88250  0.69100  0.22830  1.0000 0.0345717859
C   C13       1.0  0.09470  0.54330  0.33640  1.0000 0.489640715
C   C14       1.0  0.21290  0.48440  0.44160  1.0000 -0.0835546344
C   C15       1.0  0.47670  0.82730  0.12010  1.0000 0.0609659725
C   C16       1.0  0.40510  0.80720  0.03460  1.0000 -0.1708654622
C   C17       1.0  0.62490  0.90620  0.99660  1.0000 -0.1708654622
C   C18       1.0  0.48110  0.84670  0.97130  1.0000 -0.0082767556
C   C19       1.0  0.68790  0.92290  0.08350  1.0000 0.0403738567
C   C20       1.0  0.41330  0.82810  0.87720  1.0000 0.489640715
C   C21       1.0  0.20760  0.72710  0.76890  1.0000 -0.0930294819
C   C22       1.0  0.26080  0.63480  0.70110  1.0000 0.1005289556
C   C23       1.0  0.34770  0.57580  0.72870  1.0000 -0.2216756445
C   C24       1.0  0.39120  0.48890  0.66430  1.0000 0.1068639803
C   C25       1.0  0.34780  0.46270  0.57200  1.0000 -0.2216756445
C   C26       1.0  0.25910  0.52130  0.54300  1.0000 0.1005289556
C   C27       1.0  0.21620  0.60690  0.60760  1.0000 -0.2216756445
C   C28       1.0  0.28430  0.96950  0.50830  1.0000 0.0345717859
C   C29       1.0  0.31090  0.89100  0.43110  1.0000 -0.1708654622
C   C30       1.0  0.38390  0.81270  0.44140  1.0000 -0.0012842247
C   C31       1.0  0.42520  0.81770  0.53020  1.0000 -0.1708654622
C   C32       1.0  0.39390  0.89940  0.60380  1.0000 0.0454843477
C   C33       1.0  0.41290  0.72830  0.35760  1.0000 0.4806191795
C   C34       1.0  0.51570  0.57290  0.30090  1.0000 -0.0835546344
C   C35       1.0  0.09900  0.22270  0.61640  1.0000 0.0403738567
C   C36       1.0  0.02010  0.29420  0.60020  1.0000 -0.1708654622
C   C37       1.0  0.98960  0.37560  0.67480  1.0000 0.0072682504
C   C38       1.0  0.03900  0.38240  0.76260  1.0000 -0.157373657
C   C39       1.0  0.11750  0.30900  0.77170  1.0000 0.0345717859
C   C40       1.0  0.90530  0.45670  0.66360  1.0000 0.489640715
C   C41       1.0  0.78710  0.51560  0.55840  1.0000 -0.0835546344
C   C42       1.0  0.52330  0.17270  0.87990  1.0000 0.0609659725
C   C43       1.0  0.59490  0.19280  0.96540  1.0000 -0.1708654622
C   C44       1.0  0.37510  0.09380  0.00340  1.0000 -0.1708654622
C   C45       1.0  0.51890  0.15330  0.02870  1.0000 -0.0082767556
C   C46       1.0  0.31210  0.07710  0.91650  1.0000 0.0403738567
C   C47       1.0  0.58670  0.17190  0.12280  1.0000 0.489640715
C   C48       1.0  0.79240  0.27290  0.23110  1.0000 -0.0930294819
C   C49       1.0  0.73920  0.36520  0.29890  1.0000 0.1005289556
C   C50       1.0  0.65230  0.42420  0.27130  1.0000 -0.2216756445
C   C51       1.0  0.60880  0.51110  0.33570  1.0000 0.1068639803
C   C52       1.0  0.65220  0.53730  0.42800  1.0000 -0.2216756445
C   C53       1.0  0.74090  0.47870  0.45700  1.0000 0.1005289556
C   C54       1.0  0.78380  0.39310  0.39240  1.0000 -0.2216756445
N   N1        1.0  0.67530  0.02410  0.40580  1.0000 -0.2002778403
N   N2        1.0  0.85110  0.77080  0.29960  1.0000 -0.1938811071
N   N3        1.0  0.61640  0.88270  0.14460  1.0000 -0.2002778403
N   N4        1.0  0.32470  0.97590  0.59420  1.0000 -0.2002778403
N   N5        1.0  0.14890  0.22920  0.70040  1.0000 -0.1938811071
N   N6        1.0  0.38360  0.11730  0.85540  1.0000 -0.2002778403
O   O1        1.0  0.62690  0.28110  0.71973  1.0000 -0.4709000713
O   O2        1.0  0.51300  0.33950  0.62183  1.0000 -0.2265778236
O   O3        1.0  0.11850  0.46910  0.27302  1.0000 -0.4598088092
O   O4        1.0  0.13940  0.56389  0.42432  1.0000 -0.2369540907
O   O5        1.0  0.47190  0.86960  0.82377  1.0000 -0.4598088092
O   O6        1.0  0.27970  0.75830  0.86075  1.0000 -0.2265778236
O   O7        1.0  0.37310  0.71890  0.28027  1.0000 -0.4709000713
O   O8        1.0  0.48700  0.66050  0.37817  1.0000 -0.2265778236
O   O9        1.0  0.88150  0.53090  0.72698  1.0000 -0.4598088092
O   O10       1.0  0.86060  0.43611  0.57568  1.0000 -0.2369540907
O   O11       1.0  0.52810  0.13040  0.17623  1.0000 -0.4598088092
O   O12       1.0  0.72030  0.24170  0.13925  1.0000 -0.2265778236
