# DDEC6 charges by PACMAN v1.1 (https://github.com/mtap-research/PACMAN-charge/)
data_2017[Zn][mab]3[ASR]1
_chemical_formula_sum              "Zn8 H136 C208 N8 O40"
_cell_length_a       18.1263
_cell_length_b       18.1263
_cell_length_c       24.2564
_cell_angle_alpha    77.418
_cell_angle_beta     102.582
_cell_angle_gamma    129.221

_symmetry_space_group_name_H-M    "P 1"
_symmetry_Int_Tables_number       1

loop_
  _symmetry_equiv_pos_as_xyz
  'x, y, z'

loop_
  _atom_site_type_symbol
  _atom_site_label
  _atom_site_symmetry_multiplicity
  _atom_site_fract_x
  _atom_site_fract_y
  _atom_site_fract_z
  _atom_site_occupancy
  _atom_site_charge
Zn  Zn1       1.0  0.90481  0.47733  0.99866  1.0000 0.8279855423
Zn  Zn2       1.0  0.58985  0.99379  0.04622  1.0000 0.8279855423
Zn  Zn3       1.0  0.47733  0.90481  0.50134  1.0000 0.8279855423
Zn  Zn4       1.0  0.99379  0.58985  0.45378  1.0000 0.8279855423
Zn  Zn5       1.0  0.09519  0.52267  0.00134  1.0000 0.8279855423
Zn  Zn6       1.0  0.41015  0.00621  0.95378  1.0000 0.8279855423
Zn  Zn7       1.0  0.52267  0.09519  0.49866  1.0000 0.8279855423
Zn  Zn8       1.0  0.00621  0.41015  0.54622  1.0000 0.8279855423
H   H1        1.0  0.70170  0.35170  0.94580  1.0000 0.1129706245
H   H2        1.0  0.55640  0.31180  0.94870  1.0000 0.1451184921
H   H3        1.0  0.67770  0.50030  0.06120  1.0000 0.131171533
H   H4        1.0  0.82110  0.53450  0.05580  1.0000 0.1129706245
H   H5        1.0  0.45300  0.32960  0.98360  1.0000 0.1181881369
H   H6        1.0  0.53380  0.44780  0.06620  1.0000 0.1046369173
H   H7        1.0  0.31840  0.28860  0.98450  1.0000 0.1181881369
H   H8        1.0  0.16780  0.23900  0.98830  1.0000 0.1181881369
H   H9        1.0  0.20590  0.39390  0.13200  1.0000 0.1129706245
H   H10       1.0  0.33030  0.49210  0.19510  1.0000 0.1129706245
H   H11       1.0  0.48390  0.55090  0.18630  1.0000 0.1129706245
H   H12       1.0  0.50980  0.49200  0.12520  1.0000 0.1129706245
H   H13       1.0  0.09210  0.31350  0.06630  1.0000 0.1181881369
H   H14       1.0  0.03460  0.14880  0.03260  1.0000 0.1181881369
H   H15       1.0  0.86420  0.02320  0.01280  1.0000 0.1389442587
H   H16       1.0  0.71190  0.96010  0.01450  1.0000 0.1129706245
H   H17       1.0  0.78610  0.18110  0.07730  1.0000 0.1181881369
H   H18       1.0  0.94390  0.25110  0.07800  1.0000 0.131171533
H   H19       1.0  0.26760  0.79780  0.07200  1.0000 0.131171533
H   H20       1.0  0.33890  0.92450  0.12330  1.0000 0.1389442587
H   H21       1.0  0.08280  0.84380  0.14190  1.0000 0.1389442587
H   H22       1.0  0.00790  0.71150  0.09100  1.0000 0.1129706245
H   H23       1.0  0.35030  0.10670  0.22670  1.0000 0.131171533
H   H24       1.0  0.41080  0.11180  0.32150  1.0000 0.1181881369
H   H25       1.0  0.31590  0.84470  0.33110  1.0000 0.1181881369
H   H26       1.0  0.25630  0.83750  0.23760  1.0000 0.131171533
H   H27       1.0  0.40680  0.11940  0.08200  1.0000 0.1129706245
H   H28       1.0  0.42370  0.21230  0.14120  1.0000 0.1389442587
H   H29       1.0  0.70760  0.34980  0.16580  1.0000 0.131171533
H   H30       1.0  0.68740  0.24720  0.11060  1.0000 0.1181881369
H   H31       1.0  0.65430  0.50810  0.22190  1.0000 0.1389442587
H   H32       1.0  0.76250  0.57750  0.29980  1.0000 0.1181881369
H   H33       1.0  0.75700  0.34780  0.34460  1.0000 0.1181881369
H   H34       1.0  0.63940  0.27500  0.26870  1.0000 0.1389442587
H   H35       1.0  0.35170  0.70170  0.55420  1.0000 0.1129706245
H   H36       1.0  0.31180  0.55640  0.55130  1.0000 0.1451184921
H   H37       1.0  0.50030  0.67770  0.43880  1.0000 0.131171533
H   H38       1.0  0.53450  0.82110  0.44420  1.0000 0.1129706245
H   H39       1.0  0.32960  0.45300  0.51640  1.0000 0.1181881369
H   H40       1.0  0.44780  0.53380  0.43380  1.0000 0.1046369173
H   H41       1.0  0.28860  0.31840  0.51550  1.0000 0.1181881369
H   H42       1.0  0.23900  0.16780  0.51170  1.0000 0.1181881369
H   H43       1.0  0.39390  0.20590  0.36800  1.0000 0.1129706245
H   H44       1.0  0.49210  0.33030  0.30490  1.0000 0.1129706245
H   H45       1.0  0.55090  0.48390  0.31370  1.0000 0.1129706245
H   H46       1.0  0.49200  0.50980  0.37480  1.0000 0.1129706245
H   H47       1.0  0.31350  0.09210  0.43370  1.0000 0.1181881369
H   H48       1.0  0.14880  0.03460  0.46740  1.0000 0.1181881369
H   H49       1.0  0.02320  0.86420  0.48720  1.0000 0.1389442587
H   H50       1.0  0.96010  0.71190  0.48550  1.0000 0.1129706245
H   H51       1.0  0.18110  0.78610  0.42270  1.0000 0.1181881369
H   H52       1.0  0.25110  0.94390  0.42200  1.0000 0.131171533
H   H53       1.0  0.79780  0.26760  0.42800  1.0000 0.131171533
H   H54       1.0  0.92450  0.33890  0.37670  1.0000 0.1389442587
H   H55       1.0  0.84380  0.08280  0.35810  1.0000 0.1389442587
H   H56       1.0  0.71150  0.00790  0.40900  1.0000 0.1129706245
H   H57       1.0  0.10670  0.35030  0.27330  1.0000 0.131171533
H   H58       1.0  0.11180  0.41080  0.17850  1.0000 0.1181881369
H   H59       1.0  0.84470  0.31590  0.16890  1.0000 0.1181881369
H   H60       1.0  0.83750  0.25630  0.26240  1.0000 0.131171533
H   H61       1.0  0.11940  0.40680  0.41800  1.0000 0.1129706245
H   H62       1.0  0.21230  0.42370  0.35880  1.0000 0.1389442587
H   H63       1.0  0.34980  0.70760  0.33420  1.0000 0.131171533
H   H64       1.0  0.24720  0.68740  0.38940  1.0000 0.1181881369
H   H65       1.0  0.50810  0.65430  0.27810  1.0000 0.1389442587
H   H66       1.0  0.57750  0.76250  0.20020  1.0000 0.1181881369
H   H67       1.0  0.34780  0.75700  0.15540  1.0000 0.1181881369
H   H68       1.0  0.27500  0.63940  0.23130  1.0000 0.1389442587
H   H69       1.0  0.29830  0.64830  0.05420  1.0000 0.1129706245
H   H70       1.0  0.44360  0.68820  0.05130  1.0000 0.1451184921
H   H71       1.0  0.32230  0.49970  0.93880  1.0000 0.131171533
H   H72       1.0  0.17890  0.46550  0.94420  1.0000 0.1129706245
H   H73       1.0  0.54700  0.67040  0.01640  1.0000 0.1181881369
H   H74       1.0  0.46620  0.55220  0.93380  1.0000 0.1046369173
H   H75       1.0  0.68160  0.71140  0.01550  1.0000 0.1181881369
H   H76       1.0  0.83220  0.76100  0.01170  1.0000 0.1181881369
H   H77       1.0  0.79410  0.60610  0.86800  1.0000 0.1129706245
H   H78       1.0  0.66970  0.50790  0.80490  1.0000 0.1129706245
H   H79       1.0  0.51610  0.44910  0.81370  1.0000 0.1129706245
H   H80       1.0  0.49020  0.50800  0.87480  1.0000 0.1129706245
H   H81       1.0  0.90790  0.68650  0.93370  1.0000 0.1181881369
H   H82       1.0  0.96540  0.85120  0.96740  1.0000 0.1181881369
H   H83       1.0  0.13580  0.97680  0.98720  1.0000 0.1389442587
H   H84       1.0  0.28810  0.03990  0.98550  1.0000 0.1129706245
H   H85       1.0  0.21390  0.81890  0.92270  1.0000 0.1181881369
H   H86       1.0  0.05610  0.74890  0.92200  1.0000 0.131171533
H   H87       1.0  0.73240  0.20220  0.92800  1.0000 0.131171533
H   H88       1.0  0.66110  0.07550  0.87670  1.0000 0.1389442587
H   H89       1.0  0.91720  0.15620  0.85810  1.0000 0.1389442587
H   H90       1.0  0.99210  0.28850  0.90900  1.0000 0.1129706245
H   H91       1.0  0.64970  0.89330  0.77330  1.0000 0.131171533
H   H92       1.0  0.58920  0.88820  0.67850  1.0000 0.1181881369
H   H93       1.0  0.68410  0.15530  0.66890  1.0000 0.1181881369
H   H94       1.0  0.74370  0.16250  0.76240  1.0000 0.131171533
H   H95       1.0  0.59320  0.88060  0.91800  1.0000 0.1129706245
H   H96       1.0  0.57630  0.78770  0.85880  1.0000 0.1389442587
H   H97       1.0  0.29240  0.65020  0.83420  1.0000 0.131171533
H   H98       1.0  0.31260  0.75280  0.88940  1.0000 0.1181881369
H   H99       1.0  0.34570  0.49190  0.77810  1.0000 0.1389442587
H   H100      1.0  0.23750  0.42250  0.70020  1.0000 0.1181881369
H   H101      1.0  0.24300  0.65220  0.65540  1.0000 0.1181881369
H   H102      1.0  0.36060  0.72500  0.73130  1.0000 0.1389442587
H   H103      1.0  0.64830  0.29830  0.44580  1.0000 0.1129706245
H   H104      1.0  0.68820  0.44360  0.44870  1.0000 0.1451184921
H   H105      1.0  0.49970  0.32230  0.56120  1.0000 0.131171533
H   H106      1.0  0.46550  0.17890  0.55580  1.0000 0.1129706245
H   H107      1.0  0.67040  0.54700  0.48360  1.0000 0.1181881369
H   H108      1.0  0.55220  0.46620  0.56620  1.0000 0.1046369173
H   H109      1.0  0.71140  0.68160  0.48450  1.0000 0.1181881369
H   H110      1.0  0.76100  0.83220  0.48830  1.0000 0.1181881369
H   H111      1.0  0.60610  0.79410  0.63200  1.0000 0.1129706245
H   H112      1.0  0.50790  0.66970  0.69510  1.0000 0.1129706245
H   H113      1.0  0.44910  0.51610  0.68630  1.0000 0.1129706245
H   H114      1.0  0.50800  0.49020  0.62520  1.0000 0.1129706245
H   H115      1.0  0.68650  0.90790  0.56630  1.0000 0.1181881369
H   H116      1.0  0.85120  0.96540  0.53260  1.0000 0.1181881369
H   H117      1.0  0.97680  0.13580  0.51280  1.0000 0.1389442587
H   H118      1.0  0.03990  0.28810  0.51450  1.0000 0.1129706245
H   H119      1.0  0.81890  0.21390  0.57730  1.0000 0.1181881369
H   H120      1.0  0.74890  0.05610  0.57800  1.0000 0.131171533
H   H121      1.0  0.20220  0.73240  0.57200  1.0000 0.131171533
H   H122      1.0  0.07550  0.66110  0.62330  1.0000 0.1389442587
H   H123      1.0  0.15620  0.91720  0.64190  1.0000 0.1389442587
H   H124      1.0  0.28850  0.99210  0.59100  1.0000 0.1129706245
H   H125      1.0  0.89330  0.64970  0.72670  1.0000 0.131171533
H   H126      1.0  0.88820  0.58920  0.82150  1.0000 0.1181881369
H   H127      1.0  0.15530  0.68410  0.83110  1.0000 0.1181881369
H   H128      1.0  0.16250  0.74370  0.73760  1.0000 0.131171533
H   H129      1.0  0.88060  0.59320  0.58200  1.0000 0.1129706245
H   H130      1.0  0.78770  0.57630  0.64120  1.0000 0.1389442587
H   H131      1.0  0.65020  0.29240  0.66580  1.0000 0.131171533
H   H132      1.0  0.75280  0.31260  0.61060  1.0000 0.1181881369
H   H133      1.0  0.49190  0.34570  0.72190  1.0000 0.1389442587
H   H134      1.0  0.42250  0.23750  0.79980  1.0000 0.1181881369
H   H135      1.0  0.65220  0.24300  0.84460  1.0000 0.1181881369
H   H136      1.0  0.72500  0.36060  0.76870  1.0000 0.1389442587
C   C1        1.0  0.69730  0.38270  0.96930  1.0000 0.0894371393
C   C2        1.0  0.60930  0.35790  0.97090  1.0000 -0.1921640724
C   C3        1.0  0.59901  0.40119  0.00510  1.0000 0.1639686846
C   C4        1.0  0.68097  0.46903  0.03730  1.0000 -0.1921640724
C   C5        1.0  0.76714  0.48966  0.03350  1.0000 0.0680684619
C   C6        1.0  0.50320  0.37280  0.00820  1.0000 -0.1439393587
C   C7        1.0  0.48320  0.40300  0.04240  1.0000 -0.1201083544
C   C8        1.0  0.38620  0.37200  0.04660  1.0000 0.0642613121
C   C9        1.0  0.30940  0.31080  0.01150  1.0000 -0.1605195567
C   C10       1.0  0.21810  0.28010  0.01380  1.0000 -0.1605195567
C   C11       1.0  0.20130  0.31010  0.05370  1.0000 0.0642613121
C   C12       1.0  0.27920  0.37600  0.09120  1.0000 0.0285523706
C   C13       1.0  0.26630  0.41190  0.13080  1.0000 -0.1338406182
C   C14       1.0  0.34070  0.47250  0.16730  1.0000 -0.0907603
C   C15       1.0  0.43250  0.50530  0.16320  1.0000 -0.0982023182
C   C16       1.0  0.44850  0.47190  0.12590  1.0000 -0.1475686855
C   C17       1.0  0.37209  0.40671  0.08800  1.0000 0.0285523706
C   C18       1.0  0.10070  0.27310  0.05580  1.0000 -0.1138118632
C   C19       1.0  0.02440  0.18720  0.04380  1.0000 -0.1475686855
C   C20       1.0  0.92519  0.14581  0.04620  1.0000 0.170190575
C   C21       1.0  0.85040  0.05680  0.02680  1.0000 -0.1993911281
C   C22       1.0  0.75940  0.01920  0.02830  1.0000 0.0894371393
C   C23       1.0  0.80265  0.14855  0.06510  1.0000 0.0894371393
C   C24       1.0  0.89748  0.19112  0.06510  1.0000 -0.1798675484
C   C25       1.0  0.08372  0.65428  0.04610  1.0000 0.5717562311
C   C26       1.0  0.13144  0.74096  0.07740  1.0000 -0.0438477467
C   C27       1.0  0.22990  0.80570  0.08660  1.0000 -0.0907603
C   C28       1.0  0.27260  0.88120  0.11690  1.0000 -0.1921640724
C   C29       1.0  0.21650  0.89250  0.13780  1.0000 0.2207948514
C   C30       1.0  0.11900  0.83280  0.12840  1.0000 -0.2120148647
C   C31       1.0  0.07430  0.75410  0.09770  1.0000 -0.0982023182
C   C32       1.0  0.29570  0.97070  0.22310  1.0000 0.2485635452
C   C33       1.0  0.34300  0.05340  0.24770  1.0000 -0.1993911281
C   C34       1.0  0.37970  0.05610  0.30450  1.0000 -0.0982023182
C   C35       1.0  0.37113  0.97927  0.33590  1.0000 -0.0438477467
C   C36       1.0  0.32360  0.89820  0.31010  1.0000 -0.0907603
C   C37       1.0  0.28700  0.89320  0.25430  1.0000 -0.2120148647
C   C38       1.0  0.41430  0.98410  0.39750  1.0000 0.5758059495
C   C39       1.0  0.53150  0.10650  0.05570  1.0000 0.5853389971
C   C40       1.0  0.54449  0.17111  0.09140  1.0000 -0.0613109745
C   C41       1.0  0.46695  0.16385  0.10010  1.0000 -0.0814383305
C   C42       1.0  0.47700  0.22020  0.13440  1.0000 -0.1921640724
C   C43       1.0  0.56690  0.28970  0.15920  1.0000 0.24355753
C   C44       1.0  0.64690  0.30190  0.14990  1.0000 -0.2197768603
C   C45       1.0  0.63460  0.24100  0.11640  1.0000 -0.0814383305
C   C46       1.0  0.63810  0.38430  0.23760  1.0000 0.24355753
C   C47       1.0  0.67430  0.47570  0.24690  1.0000 -0.2197768603
C   C48       1.0  0.73940  0.51740  0.29300  1.0000 -0.0814383305
C   C49       1.0  0.77140  0.46900  0.32990  1.0000 -0.024727169
C   C50       1.0  0.73580  0.38000  0.32060  1.0000 -0.0907603
C   C51       1.0  0.66630  0.33710  0.27410  1.0000 -0.2197768603
C   C52       1.0  0.84990  0.51910  0.37980  1.0000 0.5340772145
C   C53       1.0  0.38270  0.69730  0.53070  1.0000 0.0894371393
C   C54       1.0  0.35790  0.60930  0.52910  1.0000 -0.1921640724
C   C55       1.0  0.40119  0.59901  0.49490  1.0000 0.1639686846
C   C56       1.0  0.46903  0.68097  0.46270  1.0000 -0.1921640724
C   C57       1.0  0.48966  0.76714  0.46650  1.0000 0.0680684619
C   C58       1.0  0.37280  0.50320  0.49180  1.0000 -0.1439393587
C   C59       1.0  0.40300  0.48320  0.45760  1.0000 -0.1201083544
C   C60       1.0  0.37200  0.38620  0.45340  1.0000 0.0642613121
C   C61       1.0  0.31080  0.30940  0.48850  1.0000 -0.1605195567
C   C62       1.0  0.28010  0.21810  0.48620  1.0000 -0.1605195567
C   C63       1.0  0.31010  0.20130  0.44630  1.0000 0.0642613121
C   C64       1.0  0.37600  0.27920  0.40880  1.0000 0.0285523706
C   C65       1.0  0.41190  0.26630  0.36920  1.0000 -0.1338406182
C   C66       1.0  0.47250  0.34070  0.33270  1.0000 -0.0907603
C   C67       1.0  0.50530  0.43250  0.33680  1.0000 -0.0982023182
C   C68       1.0  0.47190  0.44850  0.37410  1.0000 -0.1475686855
C   C69       1.0  0.40671  0.37209  0.41200  1.0000 0.0285523706
C   C70       1.0  0.27310  0.10070  0.44420  1.0000 -0.1138118632
C   C71       1.0  0.18720  0.02440  0.45620  1.0000 -0.1475686855
C   C72       1.0  0.14581  0.92519  0.45380  1.0000 0.170190575
C   C73       1.0  0.05680  0.85040  0.47320  1.0000 -0.1993911281
C   C74       1.0  0.01920  0.75940  0.47170  1.0000 0.0894371393
C   C75       1.0  0.14855  0.80265  0.43490  1.0000 0.0894371393
C   C76       1.0  0.19112  0.89748  0.43490  1.0000 -0.1798675484
C   C77       1.0  0.65428  0.08372  0.45390  1.0000 0.5717562311
C   C78       1.0  0.74096  0.13144  0.42260  1.0000 -0.0438477467
C   C79       1.0  0.80570  0.22990  0.41340  1.0000 -0.0907603
C   C80       1.0  0.88120  0.27260  0.38310  1.0000 -0.1921640724
C   C81       1.0  0.89250  0.21650  0.36220  1.0000 0.2207948514
C   C82       1.0  0.83280  0.11900  0.37160  1.0000 -0.2120148647
C   C83       1.0  0.75410  0.07430  0.40230  1.0000 -0.0982023182
C   C84       1.0  0.97070  0.29570  0.27690  1.0000 0.2485635452
C   C85       1.0  0.05340  0.34300  0.25230  1.0000 -0.1993911281
C   C86       1.0  0.05610  0.37970  0.19550  1.0000 -0.0982023182
C   C87       1.0  0.97927  0.37113  0.16410  1.0000 -0.0438477467
C   C88       1.0  0.89820  0.32360  0.18990  1.0000 -0.0907603
C   C89       1.0  0.89320  0.28700  0.24570  1.0000 -0.2120148647
C   C90       1.0  0.98410  0.41430  0.10250  1.0000 0.5758059495
C   C91       1.0  0.10650  0.53150  0.44430  1.0000 0.5853389971
C   C92       1.0  0.17111  0.54449  0.40860  1.0000 -0.0613109745
C   C93       1.0  0.16385  0.46695  0.39990  1.0000 -0.0814383305
C   C94       1.0  0.22020  0.47700  0.36560  1.0000 -0.1921640724
C   C95       1.0  0.28970  0.56690  0.34080  1.0000 0.24355753
C   C96       1.0  0.30190  0.64690  0.35010  1.0000 -0.2197768603
C   C97       1.0  0.24100  0.63460  0.38360  1.0000 -0.0814383305
C   C98       1.0  0.38430  0.63810  0.26240  1.0000 0.24355753
C   C99       1.0  0.47570  0.67430  0.25310  1.0000 -0.2197768603
C   C100      1.0  0.51740  0.73940  0.20700  1.0000 -0.0814383305
C   C101      1.0  0.46900  0.77140  0.17010  1.0000 -0.024727169
C   C102      1.0  0.38000  0.73580  0.17940  1.0000 -0.0907603
C   C103      1.0  0.33710  0.66630  0.22590  1.0000 -0.2197768603
C   C104      1.0  0.51910  0.84990  0.12020  1.0000 0.5340772145
C   C105      1.0  0.30270  0.61730  0.03070  1.0000 0.0894371393
C   C106      1.0  0.39070  0.64210  0.02910  1.0000 -0.1921640724
C   C107      1.0  0.40099  0.59881  0.99490  1.0000 0.1639686846
C   C108      1.0  0.31903  0.53097  0.96270  1.0000 -0.1921640724
C   C109      1.0  0.23286  0.51034  0.96650  1.0000 0.0680684619
C   C110      1.0  0.49680  0.62720  0.99180  1.0000 -0.1439393587
C   C111      1.0  0.51680  0.59700  0.95760  1.0000 -0.1201083544
C   C112      1.0  0.61380  0.62800  0.95340  1.0000 0.0642613121
C   C113      1.0  0.69060  0.68920  0.98850  1.0000 -0.1605195567
C   C114      1.0  0.78190  0.71990  0.98620  1.0000 -0.1605195567
C   C115      1.0  0.79870  0.68990  0.94630  1.0000 0.0642613121
C   C116      1.0  0.72080  0.62400  0.90880  1.0000 0.0285523706
C   C117      1.0  0.73370  0.58810  0.86920  1.0000 -0.1338406182
C   C118      1.0  0.65930  0.52750  0.83270  1.0000 -0.0907603
C   C119      1.0  0.56750  0.49470  0.83680  1.0000 -0.0982023182
C   C120      1.0  0.55150  0.52810  0.87410  1.0000 -0.1475686855
C   C121      1.0  0.62791  0.59329  0.91200  1.0000 0.0285523706
C   C122      1.0  0.89930  0.72690  0.94420  1.0000 -0.1138118632
C   C123      1.0  0.97560  0.81280  0.95620  1.0000 -0.1475686855
C   C124      1.0  0.07481  0.85419  0.95380  1.0000 0.170190575
C   C125      1.0  0.14960  0.94320  0.97320  1.0000 -0.1993911281
C   C126      1.0  0.24060  0.98080  0.97170  1.0000 0.0894371393
C   C127      1.0  0.19735  0.85145  0.93490  1.0000 0.0894371393
C   C128      1.0  0.10252  0.80888  0.93490  1.0000 -0.1798675484
C   C129      1.0  0.91628  0.34572  0.95390  1.0000 0.5717562311
C   C130      1.0  0.86856  0.25904  0.92260  1.0000 -0.0438477467
C   C131      1.0  0.77010  0.19430  0.91340  1.0000 -0.0907603
C   C132      1.0  0.72740  0.11880  0.88310  1.0000 -0.1921640724
C   C133      1.0  0.78350  0.10750  0.86220  1.0000 0.2207948514
C   C134      1.0  0.88100  0.16720  0.87160  1.0000 -0.2120148647
C   C135      1.0  0.92570  0.24590  0.90230  1.0000 -0.0982023182
C   C136      1.0  0.70430  0.02930  0.77690  1.0000 0.2485635452
C   C137      1.0  0.65700  0.94660  0.75230  1.0000 -0.1993911281
C   C138      1.0  0.62030  0.94390  0.69550  1.0000 -0.0982023182
C   C139      1.0  0.62887  0.02073  0.66410  1.0000 -0.0438477467
C   C140      1.0  0.67640  0.10180  0.68990  1.0000 -0.0907603
C   C141      1.0  0.71300  0.10680  0.74570  1.0000 -0.2120148647
C   C142      1.0  0.58570  0.01590  0.60250  1.0000 0.5758059495
C   C143      1.0  0.46850  0.89350  0.94430  1.0000 0.5853389971
C   C144      1.0  0.45551  0.82889  0.90860  1.0000 -0.0613109745
C   C145      1.0  0.53305  0.83615  0.89990  1.0000 -0.0814383305
C   C146      1.0  0.52300  0.77980  0.86560  1.0000 -0.1921640724
C   C147      1.0  0.43310  0.71030  0.84080  1.0000 0.24355753
C   C148      1.0  0.35310  0.69810  0.85010  1.0000 -0.2197768603
C   C149      1.0  0.36540  0.75900  0.88360  1.0000 -0.0814383305
C   C150      1.0  0.36190  0.61570  0.76240  1.0000 0.24355753
C   C151      1.0  0.32570  0.52430  0.75310  1.0000 -0.2197768603
C   C152      1.0  0.26060  0.48260  0.70700  1.0000 -0.0814383305
C   C153      1.0  0.22860  0.53100  0.67010  1.0000 -0.024727169
C   C154      1.0  0.26420  0.62000  0.67940  1.0000 -0.0907603
C   C155      1.0  0.33370  0.66290  0.72590  1.0000 -0.2197768603
C   C156      1.0  0.15010  0.48090  0.62020  1.0000 0.5340772145
C   C157      1.0  0.61730  0.30270  0.46930  1.0000 0.0894371393
C   C158      1.0  0.64210  0.39070  0.47090  1.0000 -0.1921640724
C   C159      1.0  0.59881  0.40099  0.50510  1.0000 0.1639686846
C   C160      1.0  0.53097  0.31903  0.53730  1.0000 -0.1921640724
C   C161      1.0  0.51034  0.23286  0.53350  1.0000 0.0680684619
C   C162      1.0  0.62720  0.49680  0.50820  1.0000 -0.1439393587
C   C163      1.0  0.59700  0.51680  0.54240  1.0000 -0.1201083544
C   C164      1.0  0.62800  0.61380  0.54660  1.0000 0.0642613121
C   C165      1.0  0.68920  0.69060  0.51150  1.0000 -0.1605195567
C   C166      1.0  0.71990  0.78190  0.51380  1.0000 -0.1605195567
C   C167      1.0  0.68990  0.79870  0.55370  1.0000 0.0642613121
C   C168      1.0  0.62400  0.72080  0.59120  1.0000 0.0285523706
C   C169      1.0  0.58810  0.73370  0.63080  1.0000 -0.1338406182
C   C170      1.0  0.52750  0.65930  0.66730  1.0000 -0.0907603
C   C171      1.0  0.49470  0.56750  0.66320  1.0000 -0.0982023182
C   C172      1.0  0.52810  0.55150  0.62590  1.0000 -0.1475686855
C   C173      1.0  0.59329  0.62791  0.58800  1.0000 0.0285523706
C   C174      1.0  0.72690  0.89930  0.55580  1.0000 -0.1138118632
C   C175      1.0  0.81280  0.97560  0.54380  1.0000 -0.1475686855
C   C176      1.0  0.85419  0.07481  0.54620  1.0000 0.170190575
C   C177      1.0  0.94320  0.14960  0.52680  1.0000 -0.1993911281
C   C178      1.0  0.98080  0.24060  0.52830  1.0000 0.0894371393
C   C179      1.0  0.85145  0.19735  0.56510  1.0000 0.0894371393
C   C180      1.0  0.80888  0.10252  0.56510  1.0000 -0.1798675484
C   C181      1.0  0.34572  0.91628  0.54610  1.0000 0.5717562311
C   C182      1.0  0.25904  0.86856  0.57740  1.0000 -0.0438477467
C   C183      1.0  0.19430  0.77010  0.58660  1.0000 -0.0907603
C   C184      1.0  0.11880  0.72740  0.61690  1.0000 -0.1921640724
C   C185      1.0  0.10750  0.78350  0.63780  1.0000 0.2207948514
C   C186      1.0  0.16720  0.88100  0.62840  1.0000 -0.2120148647
C   C187      1.0  0.24590  0.92570  0.59770  1.0000 -0.0982023182
C   C188      1.0  0.02930  0.70430  0.72310  1.0000 0.2485635452
C   C189      1.0  0.94660  0.65700  0.74770  1.0000 -0.1993911281
C   C190      1.0  0.94390  0.62030  0.80450  1.0000 -0.0982023182
C   C191      1.0  0.02073  0.62887  0.83590  1.0000 -0.0438477467
C   C192      1.0  0.10180  0.67640  0.81010  1.0000 -0.0907603
C   C193      1.0  0.10680  0.71300  0.75430  1.0000 -0.2120148647
C   C194      1.0  0.01590  0.58570  0.89750  1.0000 0.5758059495
C   C195      1.0  0.89350  0.46850  0.55570  1.0000 0.5853389971
C   C196      1.0  0.82889  0.45551  0.59140  1.0000 -0.0613109745
C   C197      1.0  0.83615  0.53305  0.60010  1.0000 -0.0814383305
C   C198      1.0  0.77980  0.52300  0.63440  1.0000 -0.1921640724
C   C199      1.0  0.71030  0.43310  0.65920  1.0000 0.24355753
C   C200      1.0  0.69810  0.35310  0.64990  1.0000 -0.2197768603
C   C201      1.0  0.75900  0.36540  0.61640  1.0000 -0.0814383305
C   C202      1.0  0.61570  0.36190  0.73760  1.0000 0.24355753
C   C203      1.0  0.52430  0.32570  0.74690  1.0000 -0.2197768603
C   C204      1.0  0.48260  0.26060  0.79300  1.0000 -0.0814383305
C   C205      1.0  0.53100  0.22860  0.82990  1.0000 -0.024727169
C   C206      1.0  0.62000  0.26420  0.82060  1.0000 -0.0907603
C   C207      1.0  0.66290  0.33370  0.77410  1.0000 -0.2197768603
C   C208      1.0  0.48090  0.15010  0.87980  1.0000 0.5340772145
N   N1        1.0  0.77643  0.44737  0.99895  1.0000 -0.2306794949
N   N2        1.0  0.73256  0.06084  0.04798  1.0000 -0.2306794949
N   N3        1.0  0.44737  0.77643  0.50105  1.0000 -0.2306794949
N   N4        1.0  0.06084  0.73256  0.45202  1.0000 -0.2306794949
N   N5        1.0  0.22357  0.55263  0.00105  1.0000 -0.2306794949
N   N6        1.0  0.26744  0.93916  0.95202  1.0000 -0.2306794949
N   N7        1.0  0.55263  0.22357  0.49895  1.0000 -0.2306794949
N   N8        1.0  0.93916  0.26744  0.54798  1.0000 -0.2306794949
O   O1        1.0  0.89360  0.48700  0.40210  1.0000 -0.5189554818
O   O2        1.0  0.86300  0.58780  0.39510  1.0000 -0.5614953316
O   O3        1.0  0.60132  0.10548  0.05610  1.0000 -0.5505877561
O   O4        1.0  0.45245  0.05455  0.02770  1.0000 -0.5409217404
O   O5        1.0  0.99504  0.60436  0.03427  1.0000 -0.5505877561
O   O6        1.0  0.13654  0.63866  0.03482  1.0000 -0.5409217404
O   O7        1.0  0.44790  0.05890  0.41944  1.0000 -0.5614953316
O   O8        1.0  0.41365  0.91555  0.42128  1.0000 -0.5409217404
O   O9        1.0  0.26008  0.97332  0.16647  1.0000 -0.2306794949
O   O10       1.0  0.57142  0.34758  0.19130  1.0000 -0.2306794949
O   O11       1.0  0.48700  0.89360  0.09790  1.0000 -0.5189554818
O   O12       1.0  0.58780  0.86300  0.10490  1.0000 -0.5614953316
O   O13       1.0  0.10548  0.60132  0.44390  1.0000 -0.5505877561
O   O14       1.0  0.05455  0.45245  0.47230  1.0000 -0.5409217404
O   O15       1.0  0.60436  0.99504  0.46573  1.0000 -0.5505877561
O   O16       1.0  0.63866  0.13654  0.46518  1.0000 -0.5409217404
O   O17       1.0  0.05890  0.44790  0.08056  1.0000 -0.5614953316
O   O18       1.0  0.91555  0.41365  0.07872  1.0000 -0.5409217404
O   O19       1.0  0.97332  0.26008  0.33353  1.0000 -0.2306794949
O   O20       1.0  0.34758  0.57142  0.30870  1.0000 -0.2306794949
O   O21       1.0  0.10640  0.51300  0.59790  1.0000 -0.5189554818
O   O22       1.0  0.13700  0.41220  0.60490  1.0000 -0.5614953316
O   O23       1.0  0.39868  0.89452  0.94390  1.0000 -0.5505877561
O   O24       1.0  0.54755  0.94545  0.97230  1.0000 -0.5409217404
O   O25       1.0  0.00496  0.39564  0.96573  1.0000 -0.5505877561
O   O26       1.0  0.86346  0.36134  0.96518  1.0000 -0.5409217404
O   O27       1.0  0.55210  0.94110  0.58056  1.0000 -0.5614953316
O   O28       1.0  0.58635  0.08445  0.57872  1.0000 -0.5409217404
O   O29       1.0  0.73992  0.02668  0.83353  1.0000 -0.2306794949
O   O30       1.0  0.42858  0.65242  0.80870  1.0000 -0.2306794949
O   O31       1.0  0.51300  0.10640  0.90210  1.0000 -0.5189554818
O   O32       1.0  0.41220  0.13700  0.89510  1.0000 -0.5614953316
O   O33       1.0  0.89452  0.39868  0.55610  1.0000 -0.5505877561
O   O34       1.0  0.94545  0.54755  0.52770  1.0000 -0.5409217404
O   O35       1.0  0.39564  0.00496  0.53427  1.0000 -0.5505877561
O   O36       1.0  0.36134  0.86346  0.53482  1.0000 -0.5409217404
O   O37       1.0  0.94110  0.55210  0.91944  1.0000 -0.5614953316
O   O38       1.0  0.08445  0.58635  0.92128  1.0000 -0.5409217404
O   O39       1.0  0.02668  0.73992  0.66647  1.0000 -0.2306794949
O   O40       1.0  0.65242  0.42858  0.69130  1.0000 -0.2306794949
