# DDEC6 charges by PACMAN v1.1 (https://github.com/mtap-research/PACMAN-charge/)
data_2017[Eu][nan]2[ASR]1
_chemical_formula_sum              "Eu4 H24 C68 O36"
_cell_length_a       13.9715
_cell_length_b       13.9715
_cell_length_c       21.749
_cell_angle_alpha    65.2103
_cell_angle_beta     114.79
_cell_angle_gamma    145.957

_symmetry_space_group_name_H-M    "P 1"
_symmetry_Int_Tables_number       1

loop_
  _symmetry_equiv_pos_as_xyz
  'x, y, z'

loop_
  _atom_site_type_symbol
  _atom_site_label
  _atom_site_symmetry_multiplicity
  _atom_site_fract_x
  _atom_site_fract_y
  _atom_site_fract_z
  _atom_site_occupancy
  _atom_site_charge
Eu  Eu1       1.0  0.63715  0.14299  0.96489  1.0000 2.117694467
Eu  Eu2       1.0  0.14299  0.63715  0.03511  1.0000 2.117694467
Eu  Eu3       1.0  0.35992  0.85668  0.47173  1.0000 2.117694467
Eu  Eu4       1.0  0.85668  0.35992  0.52827  1.0000 2.1137850381
H   H1        1.0  0.53910  0.72850  0.94760  1.0000 0.1515495091
H   H2        1.0  0.31640  0.39320  0.81510  1.0000 0.1311662489
H   H3        1.0  0.09130  0.97510  0.95720  1.0000 0.1311662489
H   H4        1.0  0.43220  0.36860  0.78350  1.0000 0.1363841779
H   H5        1.0  0.94710  0.23930  0.89050  1.0000 0.1515495091
H   H6        1.0  0.42040  0.49320  0.92680  1.0000 0.123012386
H   H7        1.0  0.72850  0.53910  0.05240  1.0000 0.1515495091
H   H8        1.0  0.39320  0.31640  0.18490  1.0000 0.1311662489
H   H9        1.0  0.97510  0.09130  0.04280  1.0000 0.1311662489
H   H10       1.0  0.36860  0.43220  0.21650  1.0000 0.1363841779
H   H11       1.0  0.23930  0.94710  0.10950  1.0000 0.1515495091
H   H12       1.0  0.49320  0.42040  0.07320  1.0000 0.123012386
H   H13       1.0  0.26230  0.52150  0.39690  1.0000 0.1515495091
H   H14       1.0  0.06060  0.11360  0.31690  1.0000 0.1311662489
H   H15       1.0  0.97900  0.03860  0.42170  1.0000 0.123012386
H   H16       1.0  0.08220  0.99620  0.28490  1.0000 0.1363841779
H   H17       1.0  0.51480  0.38900  0.43700  1.0000 0.1363841779
H   H18       1.0  0.75860  0.93660  0.44870  1.0000 0.1515495091
H   H19       1.0  0.52150  0.26230  0.60310  1.0000 0.1515495091
H   H20       1.0  0.11360  0.06060  0.68310  1.0000 0.1311662489
H   H21       1.0  0.03860  0.97900  0.57830  1.0000 0.1311662489
H   H22       1.0  0.99620  0.08220  0.71510  1.0000 0.1311662489
H   H23       1.0  0.38900  0.51480  0.56300  1.0000 0.1363841779
H   H24       1.0  0.93660  0.75860  0.55130  1.0000 0.1515495091
C   C1        1.0  0.39784  0.77396  0.95470  1.0000 0.6379605926
C   C2        1.0  0.42000  0.62980  0.93710  1.0000 -0.0909633797
C   C3        1.0  0.17180  0.34100  0.90860  1.0000 0.0023160752
C   C4        1.0  0.21324  0.91196  0.94710  1.0000 0.6126749463
C   C5        1.0  0.13444  0.47616  0.91560  1.0000 -0.0406832906
C   C6        1.0  0.18922  0.18538  0.88870  1.0000 -0.0130172787
C   C7        1.0  0.29460  0.30420  0.83740  1.0000 -0.0909633797
C   C8        1.0  0.31480  0.62460  0.93410  1.0000 0.0023160752
C   C9        1.0  0.16282  0.05638  0.92340  1.0000 -0.0710099652
C   C10       1.0  0.36680  0.29160  0.81930  1.0000 -0.1061589522
C   C11       1.0  0.24336  0.04884  0.90760  1.0000 -0.0550719403
C   C12       1.0  0.06567  0.33673  0.90290  1.0000 -0.0710099652
C   C13       1.0  0.34270  0.16450  0.85430  1.0000 0.0169706907
C   C14       1.0  0.01370  0.46350  0.91140  1.0000 0.6379605926
C   C15       1.0  0.40970  0.14270  0.82920  1.0000 0.6033017434
C   C16       1.0  0.08860  0.17880  0.90340  1.0000 0.3654611207
C   C17       1.0  0.34870  0.48870  0.92450  1.0000 -0.1061589522
C   C18       1.0  0.77396  0.39784  0.04530  1.0000 0.6379605926
C   C19       1.0  0.62980  0.42000  0.06290  1.0000 -0.0909633797
C   C20       1.0  0.34100  0.17180  0.09140  1.0000 0.0023160752
C   C21       1.0  0.91196  0.21324  0.05290  1.0000 0.6126749463
C   C22       1.0  0.47616  0.13444  0.08440  1.0000 -0.0406832906
C   C23       1.0  0.18538  0.18922  0.11130  1.0000 -0.0130172787
C   C24       1.0  0.30420  0.29460  0.16260  1.0000 -0.0909633797
C   C25       1.0  0.62460  0.31480  0.06590  1.0000 0.0023160752
C   C26       1.0  0.05638  0.16282  0.07660  1.0000 -0.0710099652
C   C27       1.0  0.29160  0.36680  0.18070  1.0000 -0.1061589522
C   C28       1.0  0.04884  0.24336  0.09240  1.0000 -0.0548765339
C   C29       1.0  0.33673  0.06567  0.09710  1.0000 -0.0710099652
C   C30       1.0  0.16450  0.34270  0.14570  1.0000 0.0169706907
C   C31       1.0  0.46350  0.01370  0.08860  1.0000 0.6379605926
C   C32       1.0  0.14270  0.40970  0.17080  1.0000 0.6033017434
C   C33       1.0  0.17880  0.08860  0.09660  1.0000 0.364363382
C   C34       1.0  0.48870  0.34870  0.07550  1.0000 -0.1061589522
C   C35       1.0  0.87960  0.16820  0.44100  1.0000 0.0077277528
C   C36       1.0  0.16050  0.40350  0.40750  1.0000 -0.0819260704
C   C37       1.0  0.03050  0.34530  0.42360  1.0000 -0.0406832906
C   C38       1.0  0.15650  0.14550  0.33510  1.0000 -0.0909633797
C   C39       1.0  0.43256  0.22564  0.39190  1.0000 -0.028756104
C   C40       1.0  0.28610  0.26590  0.38000  1.0000 -0.0130172787
C   C41       1.0  0.99260  0.11560  0.42230  1.0000 -0.1061589522
C   C42       1.0  0.58674  0.27626  0.42880  1.0000 0.6184241869
C   C43       1.0  0.29870  0.36890  0.39660  1.0000 0.364363382
C   C44       1.0  0.06080  0.47760  0.42280  1.0000 0.6379605926
C   C45       1.0  0.30493  0.10887  0.34560  1.0000 0.0023160752
C   C46       1.0  0.30810  0.02570  0.31920  1.0000 0.6126749463
C   C47       1.0  0.16800  0.07240  0.31710  1.0000 -0.0909633797
C   C48       1.0  0.42493  0.30627  0.40750  1.0000 -0.0819260704
C   C49       1.0  0.14310  0.29110  0.40690  1.0000 0.0077277528
C   C50       1.0  0.73474  0.08866  0.46550  1.0000 0.6379605926
C   C51       1.0  0.86070  0.05490  0.43890  1.0000 -0.0909633797
C   C52       1.0  0.16820  0.87960  0.55900  1.0000 0.0077277528
C   C53       1.0  0.40350  0.16050  0.59250  1.0000 -0.0819260704
C   C54       1.0  0.34530  0.03050  0.57640  1.0000 -0.0406832906
C   C55       1.0  0.14550  0.15650  0.66490  1.0000 -0.0909633797
C   C56       1.0  0.22564  0.43256  0.60810  1.0000 -0.028756104
C   C57       1.0  0.26590  0.28610  0.62000  1.0000 -0.0130172787
C   C58       1.0  0.11560  0.99260  0.57770  1.0000 -0.1061589522
C   C59       1.0  0.27626  0.58674  0.57120  1.0000 0.6184241869
C   C60       1.0  0.36890  0.29870  0.60340  1.0000 0.364363382
C   C61       1.0  0.47760  0.06080  0.57720  1.0000 0.6379605926
C   C62       1.0  0.10887  0.30493  0.65440  1.0000 0.0023160752
C   C63       1.0  0.02570  0.30810  0.68080  1.0000 0.6126749463
C   C64       1.0  0.07240  0.16800  0.68290  1.0000 -0.0909633797
C   C65       1.0  0.30627  0.42493  0.59250  1.0000 -0.0909633797
C   C66       1.0  0.29110  0.14310  0.59310  1.0000 0.0077277528
C   C67       1.0  0.08866  0.73474  0.53450  1.0000 0.6379605926
C   C68       1.0  0.05490  0.86070  0.56110  1.0000 -0.0909633797
O   O1        1.0  0.33200  0.93920  0.95825  1.0000 -0.7319026493
O   O2        1.0  0.49043  0.91397  0.91520  1.0000 -0.5694422178
O   O3        1.0  0.85437  0.32503  0.89686  1.0000 -0.601260712
O   O4        1.0  0.55341  0.21199  0.85636  1.0000 -0.6121312879
O   O5        1.0  0.38245  0.75635  0.01322  1.0000 -0.6835378312
O   O6        1.0  0.94115  0.04065  0.91420  1.0000 -0.3597054534
O   O7        1.0  0.07551  0.77249  0.97160  1.0000 -0.550071498
O   O8        1.0  0.07776  0.59064  0.92396  1.0000 -0.6190306745
O   O9        1.0  0.31667  0.05873  0.78100  1.0000 -0.4712690614
O   O10       1.0  0.93920  0.33200  0.04175  1.0000 -0.7319026493
O   O11       1.0  0.91397  0.49043  0.08480  1.0000 -0.5694422178
O   O12       1.0  0.32503  0.85437  0.10314  1.0000 -0.601260712
O   O13       1.0  0.21199  0.55341  0.14364  1.0000 -0.6121312879
O   O14       1.0  0.75635  0.38245  0.98678  1.0000 -0.6835378312
O   O15       1.0  0.04065  0.94115  0.08580  1.0000 -0.3597054534
O   O16       1.0  0.77249  0.07551  0.02840  1.0000 -0.550071498
O   O17       1.0  0.59064  0.07776  0.07604  1.0000 -0.6190306745
O   O18       1.0  0.05873  0.31667  0.21900  1.0000 -0.4712690614
O   O19       1.0  0.76897  0.13083  0.51890  1.0000 -0.6580380402
O   O20       1.0  0.28393  0.91187  0.35930  1.0000 -0.6283159606
O   O21       1.0  0.56740  0.16200  0.44780  1.0000 -0.7319026493
O   O22       1.0  0.58844  0.98236  0.43160  1.0000 -0.5694422178
O   O23       1.0  0.21260  0.63260  0.41900  1.0000 -0.601260712
O   O24       1.0  0.72706  0.42594  0.44171  1.0000 -0.550071498
O   O25       1.0  0.43980  0.52140  0.40240  1.0000 -0.3721889161
O   O26       1.0  0.33189  0.07251  0.26050  1.0000 -0.4429418646
O   O27       1.0  0.93798  0.42942  0.42685  1.0000 -0.6283159606
O   O28       1.0  0.13083  0.76897  0.48110  1.0000 -0.6580380402
O   O29       1.0  0.91187  0.28393  0.64070  1.0000 -0.6283159606
O   O30       1.0  0.16200  0.56740  0.55220  1.0000 -0.7319026493
O   O31       1.0  0.98236  0.58844  0.56840  1.0000 -0.5694422178
O   O32       1.0  0.63260  0.21260  0.58100  1.0000 -0.601260712
O   O33       1.0  0.42594  0.72706  0.55829  1.0000 -0.550071498
O   O34       1.0  0.52140  0.43980  0.59760  1.0000 -0.3721889161
O   O35       1.0  0.07251  0.33189  0.73950  1.0000 -0.4463405811
O   O36       1.0  0.42942  0.93798  0.57315  1.0000 -0.6283159606
