# DDEC6 charges by PACMAN v1.1 (https://github.com/mtap-research/PACMAN-charge/)
data_2017[Ce][pts]3[ASR]2
_chemical_formula_sum              "Ce4 H20 C44 N4 O28"
_cell_length_a       14.4129
_cell_length_b       14.4129
_cell_length_c       14.6329
_cell_angle_alpha    79.4254
_cell_angle_beta     100.575
_cell_angle_gamma    124.536

_symmetry_space_group_name_H-M    "P 1"
_symmetry_Int_Tables_number       1

loop_
  _symmetry_equiv_pos_as_xyz
  'x, y, z'

loop_
  _atom_site_type_symbol
  _atom_site_label
  _atom_site_symmetry_multiplicity
  _atom_site_fract_x
  _atom_site_fract_y
  _atom_site_fract_z
  _atom_site_occupancy
  _atom_site_charge
Ce  Ce1       1.0  0.36510  0.01700  0.45134  1.0000 1.9033352055
Ce  Ce2       1.0  0.01700  0.36510  0.04866  1.0000 1.9125558056
Ce  Ce3       1.0  0.63490  0.98300  0.54866  1.0000 1.9033352055
Ce  Ce4       1.0  0.98300  0.63490  0.95134  1.0000 1.9125558056
H   H1        1.0  0.18360  0.71000  0.70500  1.0000 0.1270953112
H   H2        1.0  0.71000  0.18360  0.79500  1.0000 0.1270953112
H   H3        1.0  0.81640  0.29000  0.29500  1.0000 0.1270953112
H   H4        1.0  0.29000  0.81640  0.20500  1.0000 0.1270953112
H   H5        1.0  0.25050  0.48130  0.83500  1.0000 0.1100338691
H   H6        1.0  0.48130  0.25050  0.66500  1.0000 0.1100338691
H   H7        1.0  0.74950  0.51870  0.16500  1.0000 0.1100338691
H   H8        1.0  0.51870  0.74950  0.33500  1.0000 0.1100338691
H   H9        1.0  0.42120  0.69140  0.61880  1.0000 0.1154143729
H   H10       1.0  0.69140  0.42120  0.88120  1.0000 0.1154143729
H   H11       1.0  0.57880  0.30860  0.38120  1.0000 0.1154143729
H   H12       1.0  0.30860  0.57880  0.11880  1.0000 0.1154143729
H   H13       1.0  0.41460  0.52380  0.60330  1.0000 0.1154143729
H   H14       1.0  0.52380  0.41460  0.89670  1.0000 0.1154143729
H   H15       1.0  0.58540  0.47620  0.39670  1.0000 0.1154143729
H   H16       1.0  0.47620  0.58540  0.10330  1.0000 0.1154143729
H   H17       1.0  0.50600  0.43140  0.62110  1.0000 0.1100338691
H   H18       1.0  0.43140  0.50600  0.87890  1.0000 0.1100338691
H   H19       1.0  0.49400  0.56860  0.37890  1.0000 0.1100338691
H   H20       1.0  0.56860  0.49400  0.12110  1.0000 0.1100338691
C   C1        1.0  0.33240  0.81640  0.58210  1.0000 0.6014554121
C   C2        1.0  0.81640  0.33240  0.91790  1.0000 0.6014554121
C   C3        1.0  0.66760  0.18360  0.41790  1.0000 0.6014554121
C   C4        1.0  0.18360  0.66760  0.08210  1.0000 0.6014554121
C   C5        1.0  0.30900  0.71780  0.65230  1.0000 -0.0401063603
C   C6        1.0  0.71780  0.30900  0.84770  1.0000 -0.0401063603
C   C7        1.0  0.69100  0.28220  0.34770  1.0000 -0.0401063603
C   C8        1.0  0.28220  0.69100  0.15230  1.0000 -0.0401063603
C   C9        1.0  0.22540  0.67800  0.71190  1.0000 -0.0962133365
C   C10       1.0  0.67800  0.22540  0.78810  1.0000 -0.0949145115
C   C11       1.0  0.77460  0.32200  0.28810  1.0000 -0.0962133365
C   C12       1.0  0.32200  0.77460  0.21190  1.0000 -0.0962133365
C   C13       1.0  0.20470  0.59010  0.78170  1.0000 -0.0401063603
C   C14       1.0  0.59010  0.20470  0.71830  1.0000 -0.0401063603
C   C15       1.0  0.79530  0.40990  0.21830  1.0000 -0.0401063603
C   C16       1.0  0.40990  0.79530  0.28170  1.0000 -0.0401063603
C   C17       1.0  0.26570  0.54090  0.78930  1.0000 -0.1197696956
C   C18       1.0  0.54090  0.26570  0.71070  1.0000 -0.1197696956
C   C19       1.0  0.73430  0.45910  0.21070  1.0000 -0.1197696956
C   C20       1.0  0.45910  0.73430  0.28930  1.0000 -0.1197696956
C   C21       1.0  0.34790  0.57750  0.73130  1.0000 0.0666086295
C   C22       1.0  0.57750  0.34790  0.76870  1.0000 0.0666086295
C   C23       1.0  0.65210  0.42250  0.26870  1.0000 0.0666086295
C   C24       1.0  0.42250  0.65210  0.23130  1.0000 0.0666086295
C   C25       1.0  0.36800  0.66700  0.66020  1.0000 -0.1466295726
C   C26       1.0  0.66700  0.36800  0.83980  1.0000 -0.1466295726
C   C27       1.0  0.63200  0.33300  0.33980  1.0000 -0.1466295726
C   C28       1.0  0.33300  0.63200  0.16020  1.0000 -0.1466295726
C   C29       1.0  0.12080  0.55220  0.84850  1.0000 0.6139668741
C   C30       1.0  0.55220  0.12080  0.65150  1.0000 0.6139668741
C   C31       1.0  0.87920  0.44780  0.15150  1.0000 0.6139668741
C   C32       1.0  0.44780  0.87920  0.34850  1.0000 0.6139668741
C   C33       1.0  0.40970  0.52150  0.73940  1.0000 0.0614849117
C   C34       1.0  0.52150  0.40970  0.76060  1.0000 0.0614849117
C   C35       1.0  0.59030  0.47850  0.26060  1.0000 0.0614849117
C   C36       1.0  0.47850  0.59030  0.23940  1.0000 0.0614849117
C   C37       1.0  0.43470  0.50070  0.66290  1.0000 -0.1197696956
C   C38       1.0  0.50070  0.43470  0.83710  1.0000 -0.1197696956
C   C39       1.0  0.56530  0.49930  0.33710  1.0000 -0.1197696956
C   C40       1.0  0.49930  0.56530  0.16290  1.0000 -0.1197696956
C   C41       1.0  0.48990  0.44510  0.67390  1.0000 -0.1197696956
C   C42       1.0  0.44510  0.48990  0.82610  1.0000 -0.1197696956
C   C43       1.0  0.51010  0.55490  0.32610  1.0000 -0.1197696956
C   C44       1.0  0.55490  0.51010  0.17390  1.0000 -0.1197696956
N   N1        1.0  0.30920  0.17200  0.50590  1.0000 0.6511817493
N   N2        1.0  0.17200  0.30920  0.99410  1.0000 0.6511817493
N   N3        1.0  0.69080  0.82800  0.49410  1.0000 0.6511817493
N   N4        1.0  0.82800  0.69080  0.00590  1.0000 0.6511817493
O   O1        1.0  0.42940  0.87700  0.55210  1.0000 -0.6868985228
O   O2        1.0  0.87700  0.42940  0.94790  1.0000 -0.6868985228
O   O3        1.0  0.57060  0.12300  0.44790  1.0000 -0.6868985228
O   O4        1.0  0.12300  0.57060  0.05210  1.0000 -0.6868985228
O   O5        1.0  0.26020  0.83840  0.55710  1.0000 -0.5408144675
O   O6        1.0  0.83840  0.26020  0.94290  1.0000 -0.5408144675
O   O7        1.0  0.73980  0.16160  0.44290  1.0000 -0.5408144675
O   O8        1.0  0.16160  0.73980  0.05710  1.0000 -0.5408144675
O   O9        1.0  0.09280  0.61840  0.85490  1.0000 -0.6289563856
O   O10       1.0  0.61840  0.09280  0.64510  1.0000 -0.6289563856
O   O11       1.0  0.90720  0.38160  0.14510  1.0000 -0.6289563856
O   O12       1.0  0.38160  0.90720  0.35490  1.0000 -0.6289563856
O   O13       1.0  0.08360  0.45780  0.89440  1.0000 -0.6032431058
O   O14       1.0  0.45780  0.08360  0.60560  1.0000 -0.6032431058
O   O15       1.0  0.91640  0.54220  0.10560  1.0000 -0.6032431058
O   O16       1.0  0.54220  0.91640  0.39440  1.0000 -0.6032431058
O   O17       1.0  0.24540  0.06520  0.52330  1.0000 -0.5177002035
O   O18       1.0  0.06520  0.24540  0.97670  1.0000 -0.5115287982
O   O19       1.0  0.75460  0.93480  0.47670  1.0000 -0.5115287982
O   O20       1.0  0.93480  0.75460  0.02330  1.0000 -0.5115287982
O   O21       1.0  0.38750  0.21090  0.46050  1.0000 -0.4688591144
O   O22       1.0  0.21090  0.38750  0.03950  1.0000 -0.4637530229
O   O23       1.0  0.61250  0.78910  0.53950  1.0000 -0.4637530229
O   O24       1.0  0.78910  0.61250  0.96050  1.0000 -0.4637530229
O   O25       1.0  0.29470  0.23830  0.53620  1.0000 -0.36058119
O   O26       1.0  0.23830  0.29470  0.96380  1.0000 -0.36058119
O   O27       1.0  0.70530  0.76170  0.46380  1.0000 -0.36058119
O   O28       1.0  0.76170  0.70530  0.03620  1.0000 -0.36058119
