# DDEC6 charges by PACMAN v1.1 (https://github.com/mtap-research/PACMAN-charge/)
data_2017[Tb][esg]3[ASR]1
_chemical_formula_sum              "Tb4 H48 C96 N12 O24"
_cell_length_a       17.2658
_cell_length_b       17.2658
_cell_length_c       27.314
_cell_angle_alpha    73.0924
_cell_angle_beta     106.908
_cell_angle_gamma    147.322

_symmetry_space_group_name_H-M    "P 1"
_symmetry_Int_Tables_number       1

loop_
  _symmetry_equiv_pos_as_xyz
  'x, y, z'

loop_
  _atom_site_type_symbol
  _atom_site_label
  _atom_site_symmetry_multiplicity
  _atom_site_fract_x
  _atom_site_fract_y
  _atom_site_fract_z
  _atom_site_occupancy
  _atom_site_charge
Tb  Tb1       1.0  0.83458  0.93914  0.49762  1.0000 2.059067383
Tb  Tb2       1.0  0.93914  0.83458  0.00238  1.0000 2.059067383
Tb  Tb3       1.0  0.16542  0.06086  0.50238  1.0000 2.059067383
Tb  Tb4       1.0  0.06086  0.16542  0.99762  1.0000 2.059067383
H   H1        1.0  0.84880  0.57780  0.41730  1.0000 0.1203627247
H   H2        1.0  0.57780  0.84880  0.08270  1.0000 0.1203627247
H   H3        1.0  0.15120  0.42220  0.58270  1.0000 0.1203627247
H   H4        1.0  0.42220  0.15120  0.91730  1.0000 0.1203627247
H   H5        1.0  0.92500  0.74100  0.45530  1.0000 0.1278421633
H   H6        1.0  0.74100  0.92500  0.04470  1.0000 0.1278421633
H   H7        1.0  0.07500  0.25900  0.54470  1.0000 0.1278421633
H   H8        1.0  0.25900  0.07500  0.95530  1.0000 0.1278421633
H   H9        1.0  0.58150  0.59390  0.38110  1.0000 0.1203627247
H   H10       1.0  0.59390  0.58150  0.11890  1.0000 0.1203627247
H   H11       1.0  0.41850  0.40610  0.61890  1.0000 0.1203627247
H   H12       1.0  0.40610  0.41850  0.88110  1.0000 0.1203627247
H   H13       1.0  0.54250  0.06230  0.32190  1.0000 0.1107577826
H   H14       1.0  0.06230  0.54250  0.17810  1.0000 0.1107577826
H   H15       1.0  0.45750  0.93770  0.67810  1.0000 0.1107577826
H   H16       1.0  0.93770  0.45750  0.82190  1.0000 0.1107577826
H   H17       1.0  0.21190  0.97090  0.15340  1.0000 0.1278421633
H   H18       1.0  0.97090  0.21190  0.34660  1.0000 0.1278421633
H   H19       1.0  0.78810  0.02910  0.84660  1.0000 0.1278421633
H   H20       1.0  0.02910  0.78810  0.65340  1.0000 0.1278421633
H   H21       1.0  0.59990  0.97370  0.36290  1.0000 0.1203627247
H   H22       1.0  0.97370  0.59990  0.13710  1.0000 0.1203627247
H   H23       1.0  0.40010  0.02630  0.63710  1.0000 0.1203627247
H   H24       1.0  0.02630  0.40010  0.86290  1.0000 0.1203627247
H   H25       1.0  0.81770  0.35730  0.42470  1.0000 0.1107577826
H   H26       1.0  0.35730  0.81770  0.07530  1.0000 0.1107577826
H   H27       1.0  0.18230  0.64270  0.57530  1.0000 0.1107577826
H   H28       1.0  0.64270  0.18230  0.92470  1.0000 0.1107577826
H   H29       1.0  0.88160  0.27460  0.46470  1.0000 0.1203627247
H   H30       1.0  0.27460  0.88160  0.03530  1.0000 0.1203627247
H   H31       1.0  0.11840  0.72540  0.53530  1.0000 0.1203627247
H   H32       1.0  0.72540  0.11840  0.96470  1.0000 0.1203627247
H   H33       1.0  0.51630  0.44450  0.33840  1.0000 0.1107577826
H   H34       1.0  0.44450  0.51630  0.16160  1.0000 0.1107577826
H   H35       1.0  0.48370  0.55550  0.66160  1.0000 0.1107577826
H   H36       1.0  0.55550  0.48370  0.83840  1.0000 0.1107577826
H   H37       1.0  0.35350  0.04570  0.23150  1.0000 0.1203627247
H   H38       1.0  0.04570  0.35350  0.26850  1.0000 0.1203627247
H   H39       1.0  0.64650  0.95430  0.76850  1.0000 0.1203627247
H   H40       1.0  0.95430  0.64650  0.73150  1.0000 0.1203627247
H   H41       1.0  0.33030  0.30070  0.13900  1.0000 0.1107577826
H   H42       1.0  0.30070  0.33030  0.36100  1.0000 0.1107577826
H   H43       1.0  0.66970  0.69930  0.86100  1.0000 0.1107577826
H   H44       1.0  0.69930  0.66970  0.63900  1.0000 0.1107577826
H   H45       1.0  0.46700  0.37240  0.21790  1.0000 0.1107577826
H   H46       1.0  0.37240  0.46700  0.28210  1.0000 0.1107577826
H   H47       1.0  0.53300  0.62760  0.78210  1.0000 0.1107577826
H   H48       1.0  0.62760  0.53300  0.71790  1.0000 0.1107577826
C   C1        1.0  0.50898  0.26182  0.28240  1.0000 0.371590368
C   C2        1.0  0.26182  0.50898  0.21760  1.0000 0.371590368
C   C3        1.0  0.49102  0.73818  0.71760  1.0000 0.371590368
C   C4        1.0  0.73818  0.49102  0.78240  1.0000 0.371590368
C   C5        1.0  0.62951  0.26569  0.34641  1.0000 0.3796437155
C   C6        1.0  0.26569  0.62951  0.15359  1.0000 0.3796437155
C   C7        1.0  0.37049  0.73431  0.65359  1.0000 0.3796437155
C   C8        1.0  0.73431  0.37049  0.84641  1.0000 0.3796437155
C   C9        1.0  0.63302  0.39798  0.34830  1.0000 0.3796437155
C   C10       1.0  0.39798  0.63302  0.15170  1.0000 0.3796437155
C   C11       1.0  0.36698  0.60202  0.65170  1.0000 0.3796437155
C   C12       1.0  0.60202  0.36698  0.84830  1.0000 0.3796437155
C   C13       1.0  0.77628  0.05292  0.44512  1.0000 0.5629846599
C   C14       1.0  0.05292  0.77628  0.05488  1.0000 0.5629846599
C   C15       1.0  0.22372  0.94708  0.55488  1.0000 0.5629846599
C   C16       1.0  0.94708  0.22372  0.94512  1.0000 0.5629846599
C   C17       1.0  0.75843  0.68137  0.42187  1.0000 -0.0110413259
C   C18       1.0  0.68137  0.75843  0.07813  1.0000 -0.0110413259
C   C19       1.0  0.24157  0.31863  0.57813  1.0000 -0.0110413259
C   C20       1.0  0.31863  0.24157  0.92187  1.0000 -0.0110413259
C   C21       1.0  0.80236  0.78124  0.44794  1.0000 0.6223938312
C   C22       1.0  0.78124  0.80236  0.05206  1.0000 0.6223938312
C   C23       1.0  0.19764  0.21876  0.55206  1.0000 0.6223938312
C   C24       1.0  0.21876  0.19764  0.94794  1.0000 0.6223938312
C   C25       1.0  0.79628  0.58352  0.40910  1.0000 -0.1100363987
C   C26       1.0  0.58352  0.79628  0.09090  1.0000 -0.1100363987
C   C27       1.0  0.20372  0.41648  0.59090  1.0000 -0.1100363987
C   C28       1.0  0.41648  0.20372  0.90910  1.0000 -0.1100363987
C   C29       1.0  0.67079  0.21421  0.37022  1.0000 0.019771467
C   C30       1.0  0.21421  0.67079  0.12978  1.0000 0.019771467
C   C31       1.0  0.32921  0.78579  0.62978  1.0000 0.019771467
C   C32       1.0  0.78579  0.32921  0.87022  1.0000 0.019771467
C   C33       1.0  0.74434  0.11386  0.41788  1.0000 -0.0159278832
C   C34       1.0  0.11386  0.74434  0.08212  1.0000 -0.0159278832
C   C35       1.0  0.25566  0.88614  0.58212  1.0000 -0.0159278832
C   C36       1.0  0.88614  0.25566  0.91788  1.0000 -0.0159278832
C   C37       1.0  0.83997  0.67823  0.43230  1.0000 -0.0992322814
C   C38       1.0  0.67823  0.83997  0.06770  1.0000 -0.0992322814
C   C39       1.0  0.16003  0.32177  0.56770  1.0000 -0.0992322814
C   C40       1.0  0.32177  0.16003  0.93230  1.0000 -0.0992322814
C   C41       1.0  0.63766  0.59274  0.38770  1.0000 -0.0992322814
C   C42       1.0  0.59274  0.63766  0.11230  1.0000 -0.0992322814
C   C43       1.0  0.36234  0.40726  0.61230  1.0000 -0.0992322814
C   C44       1.0  0.40726  0.36234  0.88770  1.0000 -0.0992322814
C   C45       1.0  0.60945  0.10395  0.35150  1.0000 -0.1199369242
C   C46       1.0  0.10395  0.60945  0.14850  1.0000 -0.1199369242
C   C47       1.0  0.39055  0.89605  0.64850  1.0000 -0.1199369242
C   C48       1.0  0.89605  0.39055  0.85150  1.0000 -0.1199369242
C   C49       1.0  0.16769  0.08231  0.08808  1.0000 0.6424853947
C   C50       1.0  0.08231  0.16769  0.41192  1.0000 0.6424853947
C   C51       1.0  0.83231  0.91769  0.91192  1.0000 0.6424853947
C   C52       1.0  0.91769  0.83231  0.58808  1.0000 0.6424853947
C   C53       1.0  0.26419  0.05281  0.16659  1.0000 -0.0992322814
C   C54       1.0  0.05281  0.26419  0.33341  1.0000 -0.0992322814
C   C55       1.0  0.73581  0.94719  0.83341  1.0000 -0.0992322814
C   C56       1.0  0.94719  0.73581  0.66659  1.0000 -0.0992322814
C   C57       1.0  0.64477  0.05203  0.37570  1.0000 -0.0946801532
C   C58       1.0  0.05203  0.64477  0.12430  1.0000 -0.0992322814
C   C59       1.0  0.35523  0.94797  0.62430  1.0000 -0.0992322814
C   C60       1.0  0.94797  0.35523  0.87570  1.0000 -0.0992322814
C   C61       1.0  0.67716  0.49724  0.37430  1.0000 0.019771467
C   C62       1.0  0.49724  0.67716  0.12570  1.0000 0.019771467
C   C63       1.0  0.32284  0.50276  0.62570  1.0000 0.019771467
C   C64       1.0  0.50276  0.32284  0.87430  1.0000 0.019771467
C   C65       1.0  0.25709  0.12831  0.13918  1.0000 -0.0159278832
C   C66       1.0  0.12831  0.25709  0.36082  1.0000 -0.0159278832
C   C67       1.0  0.74291  0.87169  0.86082  1.0000 -0.0159278832
C   C68       1.0  0.87169  0.74291  0.63918  1.0000 -0.0159278832
C   C69       1.0  0.77318  0.27902  0.41220  1.0000 -0.1199369242
C   C70       1.0  0.27902  0.77318  0.08780  1.0000 -0.1199369242
C   C71       1.0  0.22682  0.72098  0.58780  1.0000 -0.1199369242
C   C72       1.0  0.72098  0.22682  0.91220  1.0000 -0.1199369242
C   C73       1.0  0.81101  0.22979  0.43610  1.0000 -0.0992322814
C   C74       1.0  0.22979  0.81101  0.06390  1.0000 -0.0992322814
C   C75       1.0  0.18899  0.77021  0.56390  1.0000 -0.0992322814
C   C76       1.0  0.77021  0.18899  0.93610  1.0000 -0.0992322814
C   C77       1.0  0.59767  0.50273  0.36300  1.0000 -0.1286600348
C   C78       1.0  0.50273  0.59767  0.13700  1.0000 -0.1286600348
C   C79       1.0  0.40233  0.49727  0.63700  1.0000 -0.1286600348
C   C80       1.0  0.49727  0.40233  0.86300  1.0000 -0.1286600348
C   C81       1.0  0.34729  0.09651  0.21320  1.0000 -0.1100363987
C   C82       1.0  0.09651  0.34729  0.28680  1.0000 -0.1100363987
C   C83       1.0  0.65271  0.90349  0.78680  1.0000 -0.1100363987
C   C84       1.0  0.90349  0.65271  0.71320  1.0000 -0.1100363987
C   C85       1.0  0.33362  0.24778  0.15810  1.0000 -0.0992322814
C   C86       1.0  0.24778  0.33362  0.34190  1.0000 -0.0992322814
C   C87       1.0  0.66638  0.75222  0.84190  1.0000 -0.0992322814
C   C88       1.0  0.75222  0.66638  0.65810  1.0000 -0.0992322814
C   C89       1.0  0.42085  0.21335  0.23300  1.0000 0.0133782398
C   C90       1.0  0.21335  0.42085  0.26700  1.0000 0.0133782398
C   C91       1.0  0.57915  0.78665  0.76700  1.0000 0.0133782398
C   C92       1.0  0.78665  0.57915  0.73300  1.0000 0.0133782398
C   C93       1.0  0.41493  0.29047  0.20480  1.0000 -0.1199369242
C   C94       1.0  0.29047  0.41493  0.29520  1.0000 -0.1199369242
C   C95       1.0  0.58507  0.70953  0.79520  1.0000 -0.1199369242
C   C96       1.0  0.70953  0.58507  0.70480  1.0000 -0.1199369242
N   N1        1.0  0.67780  0.35960  0.37094  1.0000 -0.413684449
N   N2        1.0  0.35960  0.67780  0.12906  1.0000 -0.413684449
N   N3        1.0  0.32220  0.64040  0.62906  1.0000 -0.413684449
N   N4        1.0  0.64040  0.32220  0.87094  1.0000 -0.413684449
N   N5        1.0  0.54471  0.21309  0.30201  1.0000 -0.4198498045
N   N6        1.0  0.21309  0.54471  0.19799  1.0000 -0.4198498045
N   N7        1.0  0.45529  0.78691  0.69799  1.0000 -0.413684449
N   N8        1.0  0.78691  0.45529  0.80201  1.0000 -0.4198498045
N   N9        1.0  0.54847  0.35213  0.30443  1.0000 -0.4198498045
N   N10       1.0  0.35213  0.54847  0.19557  1.0000 -0.4257129583
N   N11       1.0  0.45153  0.64787  0.69557  1.0000 -0.4198498045
N   N12       1.0  0.64787  0.45153  0.80443  1.0000 -0.4257129583
O   O1        1.0  0.70185  0.93835  0.43281  1.0000 -0.616493151
O   O2        1.0  0.93835  0.70185  0.06719  1.0000 -0.6092491203
O   O3        1.0  0.29815  0.06165  0.56719  1.0000 -0.6092491203
O   O4        1.0  0.06165  0.29815  0.93281  1.0000 -0.616493151
O   O5        1.0  0.92585  0.88095  0.47057  1.0000 -0.7304036919
O   O6        1.0  0.88095  0.92585  0.02943  1.0000 -0.7304036919
O   O7        1.0  0.07415  0.11905  0.52943  1.0000 -0.7304036919
O   O8        1.0  0.11905  0.07415  0.97057  1.0000 -0.7304036919
O   O9        1.0  0.71372  0.76268  0.44568  1.0000 -0.6092491203
O   O10       1.0  0.76268  0.71372  0.05432  1.0000 -0.6092491203
O   O11       1.0  0.28628  0.23732  0.55432  1.0000 -0.6092491203
O   O12       1.0  0.23732  0.28628  0.94568  1.0000 -0.6092491203
O   O13       1.0  0.87755  0.11945  0.48023  1.0000 -0.6510794018
O   O14       1.0  0.11945  0.87755  0.01977  1.0000 -0.6510794018
O   O15       1.0  0.12245  0.88055  0.51977  1.0000 -0.6510794018
O   O16       1.0  0.88055  0.12245  0.98023  1.0000 -0.6510794018
O   O17       1.0  0.08532  0.96468  0.07557  1.0000 -0.6042799805
O   O18       1.0  0.96468  0.08532  0.42443  1.0000 -0.6042799805
O   O19       1.0  0.91468  0.03532  0.92443  1.0000 -0.6042799805
O   O20       1.0  0.03532  0.91468  0.57557  1.0000 -0.6042799805
O   O21       1.0  0.18704  0.17076  0.06295  1.0000 -0.6736631249
O   O22       1.0  0.17076  0.18704  0.43705  1.0000 -0.6736631249
O   O23       1.0  0.81296  0.82924  0.93705  1.0000 -0.6736631249
O   O24       1.0  0.82924  0.81296  0.56295  1.0000 -0.6736631249
