# DDEC6 charges by PACMAN v1.1 (https://github.com/mtap-research/PACMAN-charge/)
data_2017[Co][gra]3[ASR]2
_chemical_formula_sum              "Co4 H128 C196 N24 O16"
_cell_length_a       18.8664
_cell_length_b       18.8664
_cell_length_c       17.57
_cell_angle_alpha    78.6115
_cell_angle_beta     101.389
_cell_angle_gamma    119.615

_symmetry_space_group_name_H-M    "P 1"
_symmetry_Int_Tables_number       1

loop_
  _symmetry_equiv_pos_as_xyz
  'x, y, z'

loop_
  _atom_site_type_symbol
  _atom_site_label
  _atom_site_symmetry_multiplicity
  _atom_site_fract_x
  _atom_site_fract_y
  _atom_site_fract_z
  _atom_site_occupancy
  _atom_site_charge
Co  Co1       1.0  0.74549  0.54749  0.04063  1.0000 0.7748562488
Co  Co2       1.0  0.54749  0.74549  0.45937  1.0000 0.7748562488
Co  Co3       1.0  0.25451  0.45251  0.95937  1.0000 0.7748562488
Co  Co4       1.0  0.45251  0.25451  0.54063  1.0000 0.7748562488
H   H1        1.0  0.74400  0.53220  0.83270  1.0000 0.1272701415
H   H2        1.0  0.53220  0.74400  0.66730  1.0000 0.1272701415
H   H3        1.0  0.25600  0.46780  0.16730  1.0000 0.1272701415
H   H4        1.0  0.46780  0.25600  0.33270  1.0000 0.1272701415
H   H5        1.0  0.77640  0.49920  0.72980  1.0000 0.1099085203
H   H6        1.0  0.49920  0.77640  0.77020  1.0000 0.1099085203
H   H7        1.0  0.22360  0.50080  0.27020  1.0000 0.1099085203
H   H8        1.0  0.50080  0.22360  0.22980  1.0000 0.1099085203
H   H9        1.0  0.73790  0.53990  0.59990  1.0000 0.0982638541
H   H10       1.0  0.53990  0.73790  0.90010  1.0000 0.0982638541
H   H11       1.0  0.26210  0.46010  0.40010  1.0000 0.0982638541
H   H12       1.0  0.46010  0.26210  0.09990  1.0000 0.0982638541
H   H13       1.0  0.61400  0.66760  0.92690  1.0000 0.1099085203
H   H14       1.0  0.66760  0.61400  0.57310  1.0000 0.1099085203
H   H15       1.0  0.38600  0.33240  0.07310  1.0000 0.1099085203
H   H16       1.0  0.33240  0.38600  0.42690  1.0000 0.1099085203
H   H17       1.0  0.83770  0.41050  0.10670  1.0000 0.1099085203
H   H18       1.0  0.41050  0.83770  0.39330  1.0000 0.1099085203
H   H19       1.0  0.16230  0.58950  0.89330  1.0000 0.1099085203
H   H20       1.0  0.58950  0.16230  0.60670  1.0000 0.1099085203
H   H21       1.0  0.88200  0.36480  0.22700  1.0000 0.0982638541
H   H22       1.0  0.36480  0.88200  0.27300  1.0000 0.0982638541
H   H23       1.0  0.11800  0.63520  0.77300  1.0000 0.0982638541
H   H24       1.0  0.63520  0.11800  0.72700  1.0000 0.0982638541
H   H25       1.0  0.01640  0.37980  0.25400  1.0000 0.1099085203
H   H26       1.0  0.37980  0.01640  0.24600  1.0000 0.1099085203
H   H27       1.0  0.98360  0.62020  0.74600  1.0000 0.1099085203
H   H28       1.0  0.62020  0.98360  0.75400  1.0000 0.1099085203
H   H29       1.0  0.89640  0.55940  0.84030  1.0000 0.1200623935
H   H30       1.0  0.55940  0.89640  0.65970  1.0000 0.1200623935
H   H31       1.0  0.10360  0.44060  0.15970  1.0000 0.1200623935
H   H32       1.0  0.44060  0.10360  0.34030  1.0000 0.1200623935
H   H33       1.0  0.75650  0.45470  0.21690  1.0000 0.1200623935
H   H34       1.0  0.45470  0.75650  0.28310  1.0000 0.1200623935
H   H35       1.0  0.24350  0.54530  0.78310  1.0000 0.1200623935
H   H36       1.0  0.54530  0.24350  0.71690  1.0000 0.1200623935
H   H37       1.0  0.69310  0.30510  0.25400  1.0000 0.1200623935
H   H38       1.0  0.30510  0.69310  0.24600  1.0000 0.1200623935
H   H39       1.0  0.30690  0.69490  0.74600  1.0000 0.1200623935
H   H40       1.0  0.69490  0.30690  0.75400  1.0000 0.1200623935
H   H41       1.0  0.64430  0.35050  0.02300  1.0000 0.1200623935
H   H42       1.0  0.35050  0.64430  0.47700  1.0000 0.1200623935
H   H43       1.0  0.35570  0.64950  0.97700  1.0000 0.1200623935
H   H44       1.0  0.64950  0.35570  0.52300  1.0000 0.1200623935
H   H45       1.0  0.66780  0.17640  0.22610  1.0000 0.1200623935
H   H46       1.0  0.17640  0.66780  0.27390  1.0000 0.1200623935
H   H47       1.0  0.33220  0.82360  0.77390  1.0000 0.1200623935
H   H48       1.0  0.82360  0.33220  0.72610  1.0000 0.1200623935
H   H49       1.0  0.58610  0.03570  0.22130  1.0000 0.1099085203
H   H50       1.0  0.03570  0.58610  0.27870  1.0000 0.1099085203
H   H51       1.0  0.41390  0.96430  0.77870  1.0000 0.1099085203
H   H52       1.0  0.96430  0.41390  0.72130  1.0000 0.1099085203
H   H53       1.0  0.44830  0.07750  0.02910  1.0000 0.1099085203
H   H54       1.0  0.07750  0.44830  0.47090  1.0000 0.1099085203
H   H55       1.0  0.55170  0.92250  0.97090  1.0000 0.1099085203
H   H56       1.0  0.92250  0.55170  0.52910  1.0000 0.1099085203
H   H57       1.0  0.52840  0.21840  0.03430  1.0000 0.1200623935
H   H58       1.0  0.21840  0.52840  0.46570  1.0000 0.1200623935
H   H59       1.0  0.47160  0.78160  0.96570  1.0000 0.1200623935
H   H60       1.0  0.78160  0.47160  0.53430  1.0000 0.1200623935
H   H61       1.0  0.55230  0.92650  0.13380  1.0000 0.1099085203
H   H62       1.0  0.92650  0.55230  0.36620  1.0000 0.1099085203
H   H63       1.0  0.44770  0.07350  0.86620  1.0000 0.1099085203
H   H64       1.0  0.07350  0.44770  0.63380  1.0000 0.1099085203
H   H65       1.0  0.32800  0.72820  0.11330  1.0000 0.1200623935
H   H66       1.0  0.72820  0.32800  0.38670  1.0000 0.1200623935
H   H67       1.0  0.67200  0.27180  0.88670  1.0000 0.1200623935
H   H68       1.0  0.27180  0.67200  0.61330  1.0000 0.1200623935
H   H69       1.0  0.34840  0.95180  0.11150  1.0000 0.1099085203
H   H70       1.0  0.95180  0.34840  0.38850  1.0000 0.1099085203
H   H71       1.0  0.65160  0.04820  0.88850  1.0000 0.1099085203
H   H72       1.0  0.04820  0.65160  0.61150  1.0000 0.1099085203
H   H73       1.0  0.24090  0.88550  0.17570  1.0000 0.1099085203
H   H74       1.0  0.88550  0.24090  0.32430  1.0000 0.1099085203
H   H75       1.0  0.75910  0.11450  0.82430  1.0000 0.1099085203
H   H76       1.0  0.11450  0.75910  0.67570  1.0000 0.1099085203
H   H77       1.0  0.10210  0.82470  0.19200  1.0000 0.1200623935
H   H78       1.0  0.82470  0.10210  0.30800  1.0000 0.1200623935
H   H79       1.0  0.89790  0.17530  0.80800  1.0000 0.1200623935
H   H80       1.0  0.17530  0.89790  0.69200  1.0000 0.1200623935
H   H81       1.0  0.06090  0.62730  0.09670  1.0000 0.1200623935
H   H82       1.0  0.62730  0.06090  0.40330  1.0000 0.1200623935
H   H83       1.0  0.93910  0.37270  0.90330  1.0000 0.1200623935
H   H84       1.0  0.37270  0.93910  0.59670  1.0000 0.1200623935
H   H85       1.0  0.19870  0.68910  0.07800  1.0000 0.1272701415
H   H86       1.0  0.68910  0.19870  0.42200  1.0000 0.1272701415
H   H87       1.0  0.80130  0.31090  0.92200  1.0000 0.1272701415
H   H88       1.0  0.31090  0.80130  0.57800  1.0000 0.1272701415
H   H89       1.0  0.97030  0.72270  0.24960  1.0000 0.1272701415
H   H90       1.0  0.72270  0.97030  0.25040  1.0000 0.1272701415
H   H91       1.0  0.02970  0.27730  0.75040  1.0000 0.1272701415
H   H92       1.0  0.27730  0.02970  0.74960  1.0000 0.1272701415
H   H93       1.0  0.82170  0.64190  0.21170  1.0000 0.1200623935
H   H94       1.0  0.64190  0.82170  0.28830  1.0000 0.1200623935
H   H95       1.0  0.17830  0.35810  0.78830  1.0000 0.1200623935
H   H96       1.0  0.35810  0.17830  0.71170  1.0000 0.1200623935
H   H97       1.0  0.93330  0.61910  0.05750  1.0000 0.1200623935
H   H98       1.0  0.61910  0.93330  0.44250  1.0000 0.1200623935
H   H99       1.0  0.06670  0.38090  0.94250  1.0000 0.1200623935
H   H100      1.0  0.38090  0.06670  0.55750  1.0000 0.1200623935
H   H101      1.0  0.38450  0.65650  0.14680  1.0000 0.1200623935
H   H102      1.0  0.65650  0.38450  0.35320  1.0000 0.1200623935
H   H103      1.0  0.61550  0.34350  0.85320  1.0000 0.1200623935
H   H104      1.0  0.34350  0.61550  0.64680  1.0000 0.1200623935
H   H105      1.0  0.44210  0.57330  0.14640  1.0000 0.1272701415
H   H106      1.0  0.57330  0.44210  0.35360  1.0000 0.1272701415
H   H107      1.0  0.55790  0.42670  0.85360  1.0000 0.1272701415
H   H108      1.0  0.42670  0.55790  0.64640  1.0000 0.1272701415
H   H109      1.0  0.65800  0.77420  0.10430  1.0000 0.1200623935
H   H110      1.0  0.77420  0.65800  0.39570  1.0000 0.1200623935
H   H111      1.0  0.34200  0.22580  0.89570  1.0000 0.1200623935
H   H112      1.0  0.22580  0.34200  0.60430  1.0000 0.1200623935
H   H113      1.0  0.59960  0.85720  0.10400  1.0000 0.1099085203
H   H114      1.0  0.85720  0.59960  0.39600  1.0000 0.1099085203
H   H115      1.0  0.40040  0.14280  0.89600  1.0000 0.1099085203
H   H116      1.0  0.14280  0.40040  0.60400  1.0000 0.1099085203
H   H117      1.0  0.50360  0.49880  0.17250  1.0000 0.1200623935
H   H118      1.0  0.49880  0.50360  0.32750  1.0000 0.1200623935
H   H119      1.0  0.49640  0.50120  0.82750  1.0000 0.1200623935
H   H120      1.0  0.50120  0.49640  0.67250  1.0000 0.1200623935
H   H121      1.0  0.59160  0.44700  0.14590  1.0000 0.1200623935
H   H122      1.0  0.44700  0.59160  0.35410  1.0000 0.1200623935
H   H123      1.0  0.40840  0.55300  0.85410  1.0000 0.1200623935
H   H124      1.0  0.55300  0.40840  0.64590  1.0000 0.1200623935
H   H125      1.0  0.69530  0.68390  0.07410  1.0000 0.1099085203
H   H126      1.0  0.68390  0.69530  0.42590  1.0000 0.1099085203
H   H127      1.0  0.30470  0.31610  0.92590  1.0000 0.1099085203
H   H128      1.0  0.31610  0.30470  0.57410  1.0000 0.1099085203
C   C1        1.0  0.69361  0.59563  0.91090  1.0000 0.5477914009
C   C2        1.0  0.59563  0.69361  0.58910  1.0000 0.5477914009
C   C3        1.0  0.30639  0.40437  0.08910  1.0000 0.5477914009
C   C4        1.0  0.40437  0.30639  0.41090  1.0000 0.5477914009
C   C5        1.0  0.66667  0.61946  0.82790  1.0000 -0.1008667503
C   C6        1.0  0.61946  0.66667  0.67210  1.0000 -0.1008667503
C   C7        1.0  0.33333  0.38054  0.17210  1.0000 -0.1008667503
C   C8        1.0  0.38054  0.33333  0.32790  1.0000 -0.1008667503
C   C9        1.0  0.68626  0.59732  0.76660  1.0000 0.0505977974
C   C10       1.0  0.59732  0.68626  0.73340  1.0000 0.0505977974
C   C11       1.0  0.31374  0.40268  0.23340  1.0000 0.0505977974
C   C12       1.0  0.40268  0.31374  0.26660  1.0000 0.0505977974
C   C13       1.0  0.72883  0.54985  0.78060  1.0000 -0.1280542604
C   C14       1.0  0.54985  0.72883  0.71940  1.0000 -0.1280542604
C   C15       1.0  0.27117  0.45015  0.21940  1.0000 -0.1280542604
C   C16       1.0  0.45015  0.27117  0.28060  1.0000 -0.1280542604
C   C17       1.0  0.74746  0.52994  0.71980  1.0000 -0.1008667503
C   C18       1.0  0.52994  0.74746  0.78020  1.0000 -0.1008667503
C   C19       1.0  0.25254  0.47006  0.28020  1.0000 -0.1008667503
C   C20       1.0  0.47006  0.25254  0.21980  1.0000 -0.1008667503
C   C21       1.0  0.72437  0.55443  0.64170  1.0000 -0.1078955911
C   C22       1.0  0.55443  0.72437  0.85830  1.0000 -0.1078955911
C   C23       1.0  0.27563  0.44557  0.35830  1.0000 -0.1078955911
C   C24       1.0  0.44557  0.27563  0.14170  1.0000 -0.1078955911
C   C25       1.0  0.59855  0.68325  0.87410  1.0000 -0.1410090334
C   C26       1.0  0.68325  0.59855  0.62590  1.0000 -0.1410090334
C   C27       1.0  0.40145  0.31675  0.12590  1.0000 -0.1410090334
C   C28       1.0  0.31675  0.40145  0.37410  1.0000 -0.1410090334
C   C29       1.0  0.62206  0.66312  0.81240  1.0000 0.0441533159
C   C30       1.0  0.66312  0.62206  0.68760  1.0000 0.0441533159
C   C31       1.0  0.37794  0.33688  0.18760  1.0000 0.0441533159
C   C32       1.0  0.33688  0.37794  0.31240  1.0000 0.0441533159
C   C33       1.0  0.83159  0.47779  0.96672  1.0000 0.5680017862
C   C34       1.0  0.47779  0.83159  0.53328  1.0000 0.5680017862
C   C35       1.0  0.16841  0.52221  0.03328  1.0000 0.5680017862
C   C36       1.0  0.52221  0.16841  0.46672  1.0000 0.5680017862
C   C37       1.0  0.91876  0.48898  0.98353  1.0000 -0.1197185635
C   C38       1.0  0.48898  0.91876  0.51647  1.0000 -0.1197185635
C   C39       1.0  0.08124  0.51102  0.01647  1.0000 -0.1197185635
C   C40       1.0  0.51102  0.08124  0.48353  1.0000 -0.1197185635
C   C41       1.0  0.94482  0.45860  0.05630  1.0000 0.0505977974
C   C42       1.0  0.45860  0.94482  0.44370  1.0000 0.0505977974
C   C43       1.0  0.05518  0.54140  0.94370  1.0000 0.0505977974
C   C44       1.0  0.54140  0.05518  0.55630  1.0000 0.0505977974
C   C45       1.0  0.89218  0.41810  0.11680  1.0000 -0.1410090334
C   C46       1.0  0.41810  0.89218  0.38320  1.0000 -0.1410090334
C   C47       1.0  0.10782  0.58190  0.88320  1.0000 -0.1410090334
C   C48       1.0  0.58190  0.10782  0.61680  1.0000 -0.1410090334
C   C49       1.0  0.91794  0.39046  0.18760  1.0000 -0.1008667503
C   C50       1.0  0.39046  0.91794  0.31240  1.0000 -0.1008667503
C   C51       1.0  0.08206  0.60954  0.81240  1.0000 -0.1008667503
C   C52       1.0  0.60954  0.08206  0.68760  1.0000 -0.1008667503
C   C53       1.0  0.99876  0.39964  0.20390  1.0000 -0.1008667503
C   C54       1.0  0.39964  0.99876  0.29610  1.0000 -0.1008667503
C   C55       1.0  0.00124  0.60036  0.79610  1.0000 -0.1008667503
C   C56       1.0  0.60036  0.00124  0.70390  1.0000 -0.1008667503
C   C57       1.0  0.94955  0.56365  0.85150  1.0000 -0.1410090334
C   C58       1.0  0.56365  0.94955  0.64850  1.0000 -0.1410090334
C   C59       1.0  0.05045  0.43635  0.14850  1.0000 -0.1410090334
C   C60       1.0  0.43635  0.05045  0.35150  1.0000 -0.1410090334
C   C61       1.0  0.97323  0.53101  0.92690  1.0000 0.0505977974
C   C62       1.0  0.53101  0.97323  0.57310  1.0000 0.0505977974
C   C63       1.0  0.02677  0.46899  0.07310  1.0000 0.0505977974
C   C64       1.0  0.46899  0.02677  0.42690  1.0000 0.0505977974
C   C65       1.0  0.72553  0.41421  0.18190  1.0000 -0.0400144887
C   C66       1.0  0.41421  0.72553  0.31810  1.0000 -0.0400144887
C   C67       1.0  0.27447  0.58579  0.81810  1.0000 -0.0400144887
C   C68       1.0  0.58579  0.27447  0.68190  1.0000 -0.0400144887
C   C69       1.0  0.69115  0.33251  0.20270  1.0000 -0.1078955911
C   C70       1.0  0.33251  0.69115  0.29730  1.0000 -0.1078955911
C   C71       1.0  0.30885  0.66749  0.79730  1.0000 -0.1078955911
C   C72       1.0  0.66749  0.30885  0.70270  1.0000 -0.1078955911
C   C73       1.0  0.66492  0.35824  0.07632  1.0000 0.1200623935
C   C74       1.0  0.35824  0.66492  0.42368  1.0000 0.1200623935
C   C75       1.0  0.33508  0.64176  0.92368  1.0000 0.1200623935
C   C76       1.0  0.64176  0.33508  0.57632  1.0000 0.1200623935
C   C77       1.0  0.60499  0.21049  0.13020  1.0000 0.1600300861
C   C78       1.0  0.21049  0.60499  0.36980  1.0000 0.1600300861
C   C79       1.0  0.39501  0.78951  0.86980  1.0000 0.1600300861
C   C80       1.0  0.78951  0.39501  0.63020  1.0000 0.1600300861
C   C81       1.0  0.62301  0.15631  0.18630  1.0000 -0.1696577576
C   C82       1.0  0.15631  0.62301  0.31370  1.0000 -0.1696577576
C   C83       1.0  0.37699  0.84369  0.81370  1.0000 -0.1696577576
C   C84       1.0  0.84369  0.37699  0.68630  1.0000 -0.1696577576
C   C85       1.0  0.57444  0.07294  0.18290  1.0000 -0.1197185635
C   C86       1.0  0.07294  0.57444  0.31710  1.0000 -0.1197185635
C   C87       1.0  0.42556  0.92706  0.81710  1.0000 -0.1197185635
C   C88       1.0  0.92706  0.42556  0.68290  1.0000 -0.1197185635
C   C89       1.0  0.50938  0.04226  0.12510  1.0000 0.064142486
C   C90       1.0  0.04226  0.50938  0.37490  1.0000 0.064142486
C   C91       1.0  0.49062  0.95774  0.87490  1.0000 0.064142486
C   C92       1.0  0.95774  0.49062  0.62510  1.0000 0.064142486
C   C93       1.0  0.49264  0.09742  0.06933  1.0000 -0.1197185635
C   C94       1.0  0.09742  0.49264  0.43067  1.0000 -0.1197185635
C   C95       1.0  0.50736  0.90258  0.93067  1.0000 -0.1197185635
C   C96       1.0  0.90258  0.50736  0.56933  1.0000 -0.1197185635
C   C97       1.0  0.54038  0.18112  0.07233  1.0000 -0.1812776036
C   C98       1.0  0.18112  0.54038  0.42767  1.0000 -0.1812776036
C   C99       1.0  0.45962  0.81888  0.92767  1.0000 -0.1812776036
C   C100      1.0  0.81888  0.45962  0.57233  1.0000 -0.1812776036
C   C101      1.0  0.45781  0.95247  0.12240  1.0000 0.0893409518
C   C102      1.0  0.95247  0.45781  0.37760  1.0000 0.0893409518
C   C103      1.0  0.54219  0.04753  0.87760  1.0000 0.0893409518
C   C104      1.0  0.04753  0.54219  0.62240  1.0000 0.0893409518
C   C105      1.0  0.49415  0.90279  0.12736  1.0000 -0.2042744514
C   C106      1.0  0.90279  0.49415  0.37264  1.0000 -0.2042744514
C   C107      1.0  0.50585  0.09721  0.87264  1.0000 -0.2042744514
C   C108      1.0  0.09721  0.50585  0.62736  1.0000 -0.2042744514
C   C109      1.0  0.44629  0.81871  0.12306  1.0000 0.081388669
C   C110      1.0  0.81871  0.44629  0.37694  1.0000 0.081388669
C   C111      1.0  0.55371  0.18129  0.87694  1.0000 0.081388669
C   C112      1.0  0.18129  0.55371  0.62306  1.0000 0.081388669
C   C113      1.0  0.36136  0.78518  0.11729  1.0000 -0.2062715327
C   C114      1.0  0.78518  0.36136  0.38271  1.0000 -0.2062715327
C   C115      1.0  0.63864  0.21482  0.88271  1.0000 -0.2042744514
C   C116      1.0  0.21482  0.63864  0.61729  1.0000 -0.2062715327
C   C117      1.0  0.32379  0.83305  0.11715  1.0000 0.0893409518
C   C118      1.0  0.83305  0.32379  0.38285  1.0000 0.0893409518
C   C119      1.0  0.67621  0.16695  0.88285  1.0000 0.0893409518
C   C120      1.0  0.16695  0.67621  0.61715  1.0000 0.0893409518
C   C121      1.0  0.37314  0.91762  0.11630  1.0000 -0.2062715327
C   C122      1.0  0.91762  0.37314  0.38370  1.0000 -0.2062715327
C   C123      1.0  0.62686  0.08238  0.88370  1.0000 -0.2062715327
C   C124      1.0  0.08238  0.62686  0.61630  1.0000 -0.2062715327
C   C125      1.0  0.23494  0.79452  0.12439  1.0000 0.0505977974
C   C126      1.0  0.79452  0.23494  0.37561  1.0000 0.0505977974
C   C127      1.0  0.76506  0.20548  0.87561  1.0000 0.0505977974
C   C128      1.0  0.20548  0.76506  0.62439  1.0000 0.0505977974
C   C129      1.0  0.20419  0.83315  0.15880  1.0000 -0.1280542604
C   C130      1.0  0.83315  0.20419  0.34120  1.0000 -0.1280542604
C   C131      1.0  0.79581  0.16685  0.84120  1.0000 -0.1280542604
C   C132      1.0  0.16685  0.79581  0.65880  1.0000 -0.1280542604
C   C133      1.0  0.12171  0.79719  0.16900  1.0000 -0.1812776036
C   C134      1.0  0.79719  0.12171  0.33100  1.0000 -0.1812776036
C   C135      1.0  0.87829  0.20281  0.83100  1.0000 -0.1812776036
C   C136      1.0  0.20281  0.87829  0.66900  1.0000 -0.1812776036
C   C137      1.0  0.06874  0.72068  0.14500  1.0000 0.1600300861
C   C138      1.0  0.72068  0.06874  0.35500  1.0000 0.1600300861
C   C139      1.0  0.93126  0.27932  0.85500  1.0000 0.1600300861
C   C140      1.0  0.27932  0.93126  0.64500  1.0000 0.1600300861
C   C141      1.0  0.09760  0.68032  0.11200  1.0000 -0.1812776036
C   C142      1.0  0.68032  0.09760  0.38800  1.0000 -0.1812776036
C   C143      1.0  0.90240  0.31968  0.88800  1.0000 -0.1812776036
C   C144      1.0  0.31968  0.90240  0.61200  1.0000 -0.1812776036
C   C145      1.0  0.17967  0.71701  0.10140  1.0000 -0.1078955911
C   C146      1.0  0.71701  0.17967  0.39860  1.0000 -0.1078955911
C   C147      1.0  0.82033  0.28299  0.89860  1.0000 -0.1078955911
C   C148      1.0  0.28299  0.82033  0.60140  1.0000 -0.1078955911
C   C149      1.0  0.94481  0.69189  0.20620  1.0000 -0.1280542604
C   C150      1.0  0.69189  0.94481  0.29380  1.0000 -0.1280542604
C   C151      1.0  0.05519  0.30811  0.79380  1.0000 -0.1280542604
C   C152      1.0  0.30811  0.05519  0.70620  1.0000 -0.1280542604
C   C153      1.0  0.86368  0.64774  0.18480  1.0000 -0.0290717621
C   C154      1.0  0.64774  0.86368  0.31520  1.0000 -0.0290717621
C   C155      1.0  0.13632  0.35226  0.81520  1.0000 -0.0290717621
C   C156      1.0  0.35226  0.13632  0.68480  1.0000 -0.0290717621
C   C157      1.0  0.92352  0.63486  0.10090  1.0000 0.1200623935
C   C158      1.0  0.63486  0.92352  0.39910  1.0000 0.1200623935
C   C159      1.0  0.07648  0.36514  0.89910  1.0000 0.1200623935
C   C160      1.0  0.36514  0.07648  0.60090  1.0000 0.1200623935
C   C161      1.0  0.48486  0.76588  0.12532  1.0000 0.0505977974
C   C162      1.0  0.76588  0.48486  0.37468  1.0000 0.0505977974
C   C163      1.0  0.51514  0.23412  0.87468  1.0000 0.0505977974
C   C164      1.0  0.23412  0.51514  0.62532  1.0000 0.0505977974
C   C165      1.0  0.44033  0.68101  0.13780  1.0000 -0.1280542604
C   C166      1.0  0.68101  0.44033  0.36220  1.0000 -0.1280542604
C   C167      1.0  0.55967  0.31899  0.86220  1.0000 -0.1280542604
C   C168      1.0  0.31899  0.55967  0.63780  1.0000 -0.1280542604
C   C169      1.0  0.47439  0.63123  0.13770  1.0000 -0.1475280356
C   C170      1.0  0.63123  0.47439  0.36230  1.0000 -0.1475280356
C   C171      1.0  0.52561  0.36877  0.86230  1.0000 -0.1475280356
C   C172      1.0  0.36877  0.52561  0.63770  1.0000 -0.1475280356
C   C173      1.0  0.55560  0.66564  0.12490  1.0000 0.1600300861
C   C174      1.0  0.66564  0.55560  0.37510  1.0000 0.1600300861
C   C175      1.0  0.44440  0.33436  0.87510  1.0000 0.1600300861
C   C176      1.0  0.33436  0.44440  0.62490  1.0000 0.1600300861
C   C177      1.0  0.60204  0.75006  0.11270  1.0000 -0.18733125
C   C178      1.0  0.75006  0.60204  0.38730  1.0000 -0.18733125
C   C179      1.0  0.39796  0.24994  0.88730  1.0000 -0.18733125
C   C180      1.0  0.24994  0.39796  0.61270  1.0000 -0.18733125
C   C181      1.0  0.56716  0.79924  0.11270  1.0000 -0.1475280356
C   C182      1.0  0.79924  0.56716  0.38730  1.0000 -0.1475280356
C   C183      1.0  0.43284  0.20076  0.88730  1.0000 -0.1475280356
C   C184      1.0  0.20076  0.43284  0.61270  1.0000 -0.1475280356
C   C185      1.0  0.55307  0.53013  0.14890  1.0000 -0.1008667503
C   C186      1.0  0.53013  0.55307  0.35110  1.0000 -0.1008667503
C   C187      1.0  0.44693  0.46987  0.85110  1.0000 -0.1008667503
C   C188      1.0  0.46987  0.44693  0.64890  1.0000 -0.1008667503
C   C189      1.0  0.60149  0.50231  0.13400  1.0000 -0.0290717621
C   C190      1.0  0.50231  0.60149  0.36600  1.0000 -0.0290717621
C   C191      1.0  0.39851  0.49769  0.86600  1.0000 -0.0290717621
C   C192      1.0  0.49769  0.39851  0.63400  1.0000 -0.0290717621
C   C193      1.0  0.65785  0.63043  0.09490  1.0000 0.0893409518
C   C194      1.0  0.63043  0.65785  0.40510  1.0000 0.0893409518
C   C195      1.0  0.34215  0.36957  0.90510  1.0000 0.0893409518
C   C196      1.0  0.36957  0.34215  0.59490  1.0000 0.0893409518
N   N1        1.0  0.70903  0.43019  0.10246  1.0000 -0.2974092272
N   N2        1.0  0.43019  0.70903  0.39754  1.0000 -0.2974092272
N   N3        1.0  0.29097  0.56981  0.89754  1.0000 -0.2974092272
N   N4        1.0  0.56981  0.29097  0.60246  1.0000 -0.2974092272
N   N5        1.0  0.65267  0.29683  0.13505  1.0000 0.0027733932
N   N6        1.0  0.29683  0.65267  0.36495  1.0000 0.0027733932
N   N7        1.0  0.34733  0.70317  0.86495  1.0000 0.0027733932
N   N8        1.0  0.70317  0.34733  0.63505  1.0000 0.0027733932
N   N9        1.0  0.98340  0.68324  0.15190  1.0000 0.0027733932
N   N10       1.0  0.68324  0.98340  0.34810  1.0000 0.0027733932
N   N11       1.0  0.01660  0.31676  0.84810  1.0000 0.0027733932
N   N12       1.0  0.31676  0.01660  0.65190  1.0000 0.0027733932
N   N13       1.0  0.85025  0.61219  0.11820  1.0000 -0.292006245
N   N14       1.0  0.61219  0.85025  0.38180  1.0000 -0.292006245
N   N15       1.0  0.14975  0.38781  0.88180  1.0000 -0.292006245
N   N16       1.0  0.38781  0.14975  0.61820  1.0000 -0.292006245
N   N17       1.0  0.58917  0.61275  0.12351  1.0000 0.0100136669
N   N18       1.0  0.61275  0.58917  0.37649  1.0000 0.0100136669
N   N19       1.0  0.41083  0.38725  0.87649  1.0000 0.0100136669
N   N20       1.0  0.38725  0.41083  0.62351  1.0000 0.0100136669
N   N21       1.0  0.66710  0.56466  0.09912  1.0000 -0.292006245
N   N22       1.0  0.56466  0.66710  0.40088  1.0000 -0.292006245
N   N23       1.0  0.33290  0.43534  0.90088  1.0000 -0.292006245
N   N24       1.0  0.43534  0.33290  0.59912  1.0000 -0.292006245
O   O1        1.0  0.65758  0.52176  0.93933  1.0000 -0.5308988896
O   O2        1.0  0.52176  0.65758  0.56067  1.0000 -0.5308988896
O   O3        1.0  0.34242  0.47824  0.06067  1.0000 -0.5308988896
O   O4        1.0  0.47824  0.34242  0.43933  1.0000 -0.5308988896
O   O5        1.0  0.75222  0.64948  0.94968  1.0000 -0.519921383
O   O6        1.0  0.64948  0.75222  0.55032  1.0000 -0.519921383
O   O7        1.0  0.24778  0.35052  0.05032  1.0000 -0.519921383
O   O8        1.0  0.35052  0.24778  0.44968  1.0000 -0.519921383
O   O9        1.0  0.82447  0.53695  0.98092  1.0000 -0.5471509305
O   O10       1.0  0.53695  0.82447  0.51908  1.0000 -0.5471509305
O   O11       1.0  0.17553  0.46305  0.01908  1.0000 -0.5471509305
O   O12       1.0  0.46305  0.17553  0.48092  1.0000 -0.5471509305
O   O13       1.0  0.77618  0.41416  0.94110  1.0000 -0.5404917207
O   O14       1.0  0.41416  0.77618  0.55890  1.0000 -0.5404917207
O   O15       1.0  0.22382  0.58584  0.05890  1.0000 -0.5404917207
O   O16       1.0  0.58584  0.22382  0.44110  1.0000 -0.5404917207
