# DDEC6 charges by PACMAN v1.1 (https://github.com/mtap-research/PACMAN-charge/)
data_2017[Gd][nan]3[ASR]2
_chemical_formula_sum              "Gd4 H12 C36 O24"
_cell_length_a       10.3548
_cell_length_b       10.3548
_cell_length_c       14.4872
_cell_angle_alpha    90
_cell_angle_beta     90
_cell_angle_gamma    90

_symmetry_space_group_name_H-M    "P 1"
_symmetry_Int_Tables_number       1

loop_
  _symmetry_equiv_pos_as_xyz
  'x, y, z'

loop_
  _atom_site_type_symbol
  _atom_site_label
  _atom_site_symmetry_multiplicity
  _atom_site_fract_x
  _atom_site_fract_y
  _atom_site_fract_z
  _atom_site_occupancy
  _atom_site_charge
Gd  Gd1       1.0  0.64554  0.64554  0.12500  1.0000 2.0723886447
Gd  Gd2       1.0  0.35446  0.35446  0.62500  1.0000 2.0723886447
Gd  Gd3       1.0  0.35446  0.64554  0.87500  1.0000 2.0757835663
Gd  Gd4       1.0  0.64554  0.35446  0.37500  1.0000 2.0723886447
H   H1        1.0  0.56990  0.05770  0.12950  1.0000 0.1369618593
H   H2        1.0  0.43010  0.94230  0.62950  1.0000 0.1369618593
H   H3        1.0  0.94230  0.56990  0.87950  1.0000 0.1369618593
H   H4        1.0  0.05770  0.43010  0.37950  1.0000 0.1369618593
H   H5        1.0  0.43010  0.05770  0.87050  1.0000 0.1369618593
H   H6        1.0  0.56990  0.94230  0.37050  1.0000 0.1369618593
H   H7        1.0  0.05770  0.56990  0.12050  1.0000 0.1369618593
H   H8        1.0  0.94230  0.43010  0.62050  1.0000 0.1369618593
H   H9        1.0  0.50000  0.39280  0.00000  1.0000 0.1098950363
H   H10       1.0  0.50000  0.60720  0.50000  1.0000 0.1098950363
H   H11       1.0  0.60720  0.50000  0.75000  1.0000 0.1098950363
H   H12       1.0  0.39280  0.50000  0.25000  1.0000 0.1098950363
C   C1        1.0  0.58270  0.31140  0.16090  1.0000 0.6337692074
C   C2        1.0  0.54170  0.10260  0.07760  1.0000 -0.0947177031
C   C3        1.0  0.54110  0.23700  0.07750  1.0000 -0.0387329743
C   C4        1.0  0.41730  0.68860  0.66090  1.0000 0.6337692074
C   C5        1.0  0.45830  0.89740  0.57760  1.0000 -0.0947177031
C   C6        1.0  0.45890  0.76300  0.57750  1.0000 -0.0387329743
C   C7        1.0  0.68860  0.58270  0.91090  1.0000 0.6337692074
C   C8        1.0  0.89740  0.54170  0.82760  1.0000 -0.0947177031
C   C9        1.0  0.76300  0.54110  0.82750  1.0000 -0.0387329743
C   C10       1.0  0.31140  0.41730  0.41090  1.0000 0.6337692074
C   C11       1.0  0.10260  0.45830  0.32760  1.0000 -0.0950795405
C   C12       1.0  0.23700  0.45890  0.32750  1.0000 -0.0387329743
C   C13       1.0  0.41730  0.31140  0.83910  1.0000 0.6337692074
C   C14       1.0  0.45830  0.10260  0.92240  1.0000 -0.0947177031
C   C15       1.0  0.45890  0.23700  0.92250  1.0000 -0.0387329743
C   C16       1.0  0.58270  0.68860  0.33910  1.0000 0.6337692074
C   C17       1.0  0.54170  0.89740  0.42240  1.0000 -0.0950795405
C   C18       1.0  0.54110  0.76300  0.42250  1.0000 -0.0387329743
C   C19       1.0  0.31140  0.58270  0.08910  1.0000 0.6337692074
C   C20       1.0  0.10260  0.54170  0.17240  1.0000 -0.0947177031
C   C21       1.0  0.23700  0.54110  0.17250  1.0000 -0.0387329743
C   C22       1.0  0.68860  0.41730  0.58910  1.0000 0.6337692074
C   C23       1.0  0.89740  0.45830  0.67240  1.0000 -0.0950795405
C   C24       1.0  0.76300  0.45890  0.67250  1.0000 -0.0387329743
C   C25       1.0  0.50000  0.88940  0.00000  1.0000 0.6617107696
C   C26       1.0  0.50000  0.03560  0.00000  1.0000 -0.0387329743
C   C27       1.0  0.50000  0.30300  0.00000  1.0000 -0.1102098611
C   C28       1.0  0.50000  0.11060  0.50000  1.0000 0.6617107696
C   C29       1.0  0.50000  0.96440  0.50000  1.0000 -0.0387329743
C   C30       1.0  0.50000  0.69700  0.50000  1.0000 -0.1102098611
C   C31       1.0  0.11060  0.50000  0.75000  1.0000 0.6617107696
C   C32       1.0  0.96440  0.50000  0.75000  1.0000 -0.0387329743
C   C33       1.0  0.69700  0.50000  0.75000  1.0000 -0.1102098611
C   C34       1.0  0.88940  0.50000  0.25000  1.0000 0.6617107696
C   C35       1.0  0.03560  0.50000  0.25000  1.0000 -0.0387329743
C   C36       1.0  0.30300  0.50000  0.25000  1.0000 -0.1102098611
O   O1        1.0  0.60680  0.42720  0.15410  1.0000 -0.6692666181
O   O2        1.0  0.59050  0.25340  0.23663  1.0000 -0.6465616369
O   O3        1.0  0.43140  0.83510  0.94111  1.0000 -0.6692666181
O   O4        1.0  0.39320  0.57280  0.65410  1.0000 -0.6692666181
O   O5        1.0  0.40950  0.74660  0.73663  1.0000 -0.6465616369
O   O6        1.0  0.56860  0.16490  0.44111  1.0000 -0.6692666181
O   O7        1.0  0.57280  0.60680  0.90410  1.0000 -0.6692666181
O   O8        1.0  0.74660  0.59050  0.98663  1.0000 -0.6465616369
O   O9        1.0  0.16490  0.43140  0.69111  1.0000 -0.6692666181
O   O10       1.0  0.42720  0.39320  0.40410  1.0000 -0.6692666181
O   O11       1.0  0.25340  0.40950  0.48663  1.0000 -0.6465616369
O   O12       1.0  0.83510  0.56860  0.19111  1.0000 -0.6692666181
O   O13       1.0  0.39320  0.42720  0.84590  1.0000 -0.6692666181
O   O14       1.0  0.40950  0.25340  0.76337  1.0000 -0.6465616369
O   O15       1.0  0.56860  0.83510  0.05889  1.0000 -0.6692666181
O   O16       1.0  0.60680  0.57280  0.34590  1.0000 -0.6692666181
O   O17       1.0  0.59050  0.74660  0.26337  1.0000 -0.6465616369
O   O18       1.0  0.43140  0.16490  0.55889  1.0000 -0.6692666181
O   O19       1.0  0.42720  0.60680  0.09590  1.0000 -0.6692666181
O   O20       1.0  0.25340  0.59050  0.01337  1.0000 -0.6465616369
O   O21       1.0  0.83510  0.43140  0.30889  1.0000 -0.6692666181
O   O22       1.0  0.57280  0.39320  0.59590  1.0000 -0.6692666181
O   O23       1.0  0.74660  0.40950  0.51337  1.0000 -0.6465616369
O   O24       1.0  0.16490  0.56860  0.80889  1.0000 -0.6692666181
