# DDEC6 charges by PACMAN v1.1 (https://github.com/mtap-research/PACMAN-charge/)
data_2017[Cd][hcb]2[ASR]4
_chemical_formula_sum              "Cd4 H56 C76 N8 O16"
_cell_length_a       9.3366
_cell_length_b       22.462
_cell_length_c       11.4578
_cell_angle_alpha    90
_cell_angle_beta     101.135
_cell_angle_gamma    90

_symmetry_space_group_name_H-M    "P 1"
_symmetry_Int_Tables_number       1

loop_
  _symmetry_equiv_pos_as_xyz
  'x, y, z'

loop_
  _atom_site_type_symbol
  _atom_site_label
  _atom_site_symmetry_multiplicity
  _atom_site_fract_x
  _atom_site_fract_y
  _atom_site_fract_z
  _atom_site_occupancy
  _atom_site_charge
Cd  Cd1       1.0  0.92562  0.53895  0.69415  1.0000 0.8820275941
Cd  Cd2       1.0  0.07438  0.03895  0.80585  1.0000 0.8820275941
Cd  Cd3       1.0  0.07438  0.46105  0.30585  1.0000 0.8820275941
Cd  Cd4       1.0  0.92562  0.96105  0.19415  1.0000 0.8820275941
H   H1        1.0  0.35960  0.43850  0.62320  1.0000 0.1281843881
H   H2        1.0  0.56720  0.38040  0.66520  1.0000 0.1281843881
H   H3        1.0  0.61630  0.32480  0.83760  1.0000 0.108358001
H   H4        1.0  0.23950  0.37940  0.92120  1.0000 0.1197337164
H   H5        1.0  0.51020  0.34200  0.07760  1.0000 0.1197337164
H   H6        1.0  0.55500  0.28660  0.00950  1.0000 0.1197337164
H   H7        1.0  0.31770  0.33260  0.17530  1.0000 0.1197337164
H   H8        1.0  0.13160  0.27800  0.22680  1.0000 0.108358001
H   H9        1.0  0.05680  0.19030  0.12610  1.0000 0.1197337164
H   H10       1.0  0.35560  0.21680  0.92340  1.0000 0.1197337164
H   H11       1.0  0.88210  0.47260  0.93110  1.0000 0.108358001
H   H12       1.0  0.72350  0.46020  0.05870  1.0000 0.1281843881
H   H13       1.0  0.42070  0.54840  0.82670  1.0000 0.1281843881
H   H14       1.0  0.58850  0.55840  0.70520  1.0000 0.108358001
H   H15       1.0  0.64040  0.93850  0.87680  1.0000 0.1281843881
H   H16       1.0  0.43280  0.88040  0.83480  1.0000 0.1281843881
H   H17       1.0  0.38370  0.82480  0.66240  1.0000 0.108358001
H   H18       1.0  0.76050  0.87940  0.57880  1.0000 0.1197337164
H   H19       1.0  0.48980  0.84200  0.42240  1.0000 0.1197337164
H   H20       1.0  0.44500  0.78660  0.49050  1.0000 0.1197337164
H   H21       1.0  0.68230  0.83260  0.32470  1.0000 0.1197337164
H   H22       1.0  0.86840  0.77800  0.27320  1.0000 0.108358001
H   H23       1.0  0.94320  0.69030  0.37390  1.0000 0.1197337164
H   H24       1.0  0.64440  0.71680  0.57660  1.0000 0.1197337164
H   H25       1.0  0.11790  0.97260  0.56890  1.0000 0.108358001
H   H26       1.0  0.27650  0.96020  0.44130  1.0000 0.1281843881
H   H27       1.0  0.57930  0.04840  0.67330  1.0000 0.1281843881
H   H28       1.0  0.41150  0.05840  0.79480  1.0000 0.108358001
H   H29       1.0  0.64040  0.56150  0.37680  1.0000 0.1281843881
H   H30       1.0  0.43280  0.61960  0.33480  1.0000 0.1281843881
H   H31       1.0  0.38370  0.67520  0.16240  1.0000 0.108358001
H   H32       1.0  0.76050  0.62060  0.07880  1.0000 0.1197337164
H   H33       1.0  0.48980  0.65800  0.92240  1.0000 0.1197337164
H   H34       1.0  0.44500  0.71340  0.99050  1.0000 0.1197337164
H   H35       1.0  0.68230  0.66740  0.82470  1.0000 0.1197337164
H   H36       1.0  0.86840  0.72200  0.77320  1.0000 0.108358001
H   H37       1.0  0.94320  0.80970  0.87390  1.0000 0.1197337164
H   H38       1.0  0.64440  0.78320  0.07660  1.0000 0.1197337164
H   H39       1.0  0.11790  0.52740  0.06890  1.0000 0.108358001
H   H40       1.0  0.27650  0.53980  0.94130  1.0000 0.1281843881
H   H41       1.0  0.57930  0.45160  0.17330  1.0000 0.1281843881
H   H42       1.0  0.41150  0.44160  0.29480  1.0000 0.108358001
H   H43       1.0  0.35960  0.06150  0.12320  1.0000 0.1281843881
H   H44       1.0  0.56720  0.11960  0.16520  1.0000 0.1281843881
H   H45       1.0  0.61630  0.17520  0.33760  1.0000 0.108358001
H   H46       1.0  0.23950  0.12060  0.42120  1.0000 0.1197337164
H   H47       1.0  0.51020  0.15800  0.57760  1.0000 0.1197337164
H   H48       1.0  0.55500  0.21340  0.50950  1.0000 0.1197337164
H   H49       1.0  0.31770  0.16740  0.67530  1.0000 0.1197337164
H   H50       1.0  0.13160  0.22200  0.72680  1.0000 0.108358001
H   H51       1.0  0.05680  0.30970  0.62610  1.0000 0.1197337164
H   H52       1.0  0.35560  0.28320  0.42340  1.0000 0.1197337164
H   H53       1.0  0.88210  0.02740  0.43110  1.0000 0.108358001
H   H54       1.0  0.72350  0.03980  0.55870  1.0000 0.1281843881
H   H55       1.0  0.42070  0.95160  0.32670  1.0000 0.1281843881
H   H56       1.0  0.58850  0.94160  0.20520  1.0000 0.108358001
C   C1        1.0  0.27710  0.41422  0.76747  1.0000 -0.0567862823
C   C2        1.0  0.37720  0.41499  0.69130  1.0000 -0.082222285
C   C3        1.0  0.50220  0.38083  0.71730  1.0000 -0.1530866645
C   C4        1.0  0.53110  0.34728  0.82030  1.0000 -0.0302468849
C   C5        1.0  0.30610  0.38007  0.87041  1.0000 -0.0302468849
C   C6        1.0  0.14360  0.45266  0.74363  1.0000 0.5398472228
C   C7        1.0  0.47540  0.31364  0.01460  1.0000 -0.1882943868
C   C8        1.0  0.35260  0.27918  0.04598  1.0000 0.0796025411
C   C9        1.0  0.28710  0.29758  0.13470  1.0000 -0.1584145821
C   C10       1.0  0.17640  0.26514  0.16550  1.0000 -0.0893596805
C   C11       1.0  0.13110  0.21299  0.10500  1.0000 -0.1097474641
C   C12       1.0  0.19790  0.19492  0.01252  1.0000 -0.0078295017
C   C13       1.0  0.30950  0.22871  0.98464  1.0000 -0.1672090351
C   C14       1.0  0.15160  0.13876  0.94290  1.0000 0.5279769578
C   C15       1.0  0.78840  0.48825  0.91010  1.0000 0.0796025411
C   C16       1.0  0.69320  0.48058  0.98750  1.0000 -0.2103234998
C   C17       1.0  0.55200  0.50329  0.95896  1.0000 0.1015048228
C   C18       1.0  0.51400  0.53278  0.85030  1.0000 -0.2103234998
C   C19       1.0  0.61590  0.53867  0.77740  1.0000 0.0721071639
C   C20       1.0  0.72290  0.91422  0.73253  1.0000 -0.0567862823
C   C21       1.0  0.62280  0.91499  0.80870  1.0000 -0.082222285
C   C22       1.0  0.49780  0.88083  0.78270  1.0000 -0.1530866645
C   C23       1.0  0.46890  0.84728  0.67970  1.0000 -0.0302468849
C   C24       1.0  0.69390  0.88007  0.62959  1.0000 -0.0302468849
C   C25       1.0  0.85640  0.95266  0.75637  1.0000 0.5398472228
C   C26       1.0  0.52460  0.81364  0.48540  1.0000 -0.1882943868
C   C27       1.0  0.64740  0.77918  0.45402  1.0000 0.0796025411
C   C28       1.0  0.71290  0.79758  0.36530  1.0000 -0.1584145821
C   C29       1.0  0.82360  0.76514  0.33450  1.0000 -0.0893596805
C   C30       1.0  0.86890  0.71299  0.39500  1.0000 -0.1097474641
C   C31       1.0  0.80210  0.69492  0.48748  1.0000 -0.0078295017
C   C32       1.0  0.69050  0.72871  0.51536  1.0000 -0.1672090351
C   C33       1.0  0.84840  0.63876  0.55710  1.0000 0.5279769578
C   C34       1.0  0.21160  0.98825  0.58990  1.0000 0.0796025411
C   C35       1.0  0.30680  0.98058  0.51250  1.0000 -0.2103234998
C   C36       1.0  0.44800  0.00329  0.54104  1.0000 0.1015048228
C   C37       1.0  0.48600  0.03278  0.64970  1.0000 -0.2103234998
C   C38       1.0  0.38410  0.03867  0.72260  1.0000 0.0721071639
C   C39       1.0  0.72290  0.58578  0.23253  1.0000 -0.0567862823
C   C40       1.0  0.62280  0.58501  0.30870  1.0000 -0.082222285
C   C41       1.0  0.49780  0.61917  0.28270  1.0000 -0.1530866645
C   C42       1.0  0.46890  0.65272  0.17970  1.0000 -0.0302468849
C   C43       1.0  0.69390  0.61993  0.12959  1.0000 -0.0302468849
C   C44       1.0  0.85640  0.54734  0.25637  1.0000 0.5398472228
C   C45       1.0  0.52460  0.68636  0.98540  1.0000 -0.1882943868
C   C46       1.0  0.64740  0.72082  0.95402  1.0000 0.0796025411
C   C47       1.0  0.71290  0.70242  0.86530  1.0000 -0.1584145821
C   C48       1.0  0.82360  0.73486  0.83450  1.0000 -0.0893596805
C   C49       1.0  0.86890  0.78701  0.89500  1.0000 -0.1097474641
C   C50       1.0  0.80210  0.80508  0.98748  1.0000 -0.0078295017
C   C51       1.0  0.69050  0.77129  0.01536  1.0000 -0.1672090351
C   C52       1.0  0.84840  0.86124  0.05710  1.0000 0.5279769578
C   C53       1.0  0.21160  0.51175  0.08990  1.0000 0.0796025411
C   C54       1.0  0.30680  0.51942  0.01250  1.0000 -0.2103234998
C   C55       1.0  0.44800  0.49671  0.04104  1.0000 0.1015048228
C   C56       1.0  0.48600  0.46722  0.14970  1.0000 -0.2103234998
C   C57       1.0  0.38410  0.46133  0.22260  1.0000 0.0721071639
C   C58       1.0  0.27710  0.08578  0.26747  1.0000 -0.0567862823
C   C59       1.0  0.37720  0.08501  0.19130  1.0000 -0.082222285
C   C60       1.0  0.50220  0.11917  0.21730  1.0000 -0.1530866645
C   C61       1.0  0.53110  0.15272  0.32030  1.0000 -0.0302468849
C   C62       1.0  0.30610  0.11993  0.37041  1.0000 -0.0302468849
C   C63       1.0  0.14360  0.04734  0.24363  1.0000 0.5398472228
C   C64       1.0  0.47540  0.18636  0.51460  1.0000 -0.1882943868
C   C65       1.0  0.35260  0.22082  0.54598  1.0000 0.0796025411
C   C66       1.0  0.28710  0.20242  0.63470  1.0000 -0.1584145821
C   C67       1.0  0.17640  0.23486  0.66550  1.0000 -0.0893596805
C   C68       1.0  0.13110  0.28701  0.60500  1.0000 -0.1097474641
C   C69       1.0  0.19790  0.30508  0.51252  1.0000 -0.0078295017
C   C70       1.0  0.30950  0.27129  0.48464  1.0000 -0.1672090351
C   C71       1.0  0.15160  0.36124  0.44290  1.0000 0.5279769578
C   C72       1.0  0.78840  0.01175  0.41010  1.0000 0.0796025411
C   C73       1.0  0.69320  0.01942  0.48750  1.0000 -0.2103234998
C   C74       1.0  0.55200  0.99671  0.45896  1.0000 0.1015048228
C   C75       1.0  0.51400  0.96722  0.35030  1.0000 -0.2103234998
C   C76       1.0  0.61590  0.96133  0.27740  1.0000 0.0721071639
N   N1        1.0  0.43400  0.34679  0.89820  1.0000 0.0198351049
N   N2        1.0  0.75210  0.51707  0.80665  1.0000 -0.2533782668
N   N3        1.0  0.56600  0.84679  0.60180  1.0000 0.0198351049
N   N4        1.0  0.24790  0.01707  0.69335  1.0000 -0.2533782668
N   N5        1.0  0.56600  0.65321  0.10180  1.0000 0.0198351049
N   N6        1.0  0.24790  0.48293  0.19335  1.0000 -0.2533782668
N   N7        1.0  0.43400  0.15321  0.39820  1.0000 0.0198351049
N   N8        1.0  0.75210  0.98293  0.30665  1.0000 -0.2533782668
O   O1        1.0  0.03670  0.43997  0.79028  1.0000 -0.5806167744
O   O2        1.0  0.14429  0.49853  0.67977  1.0000 -0.534502717
O   O3        1.0  0.05220  0.10832  0.97143  1.0000 -0.5238706193
O   O4        1.0  0.21590  0.12602  0.86019  1.0000 -0.5806167744
O   O5        1.0  0.96330  0.93997  0.70972  1.0000 -0.5806167744
O   O6        1.0  0.85571  0.99853  0.82023  1.0000 -0.534502717
O   O7        1.0  0.94780  0.60832  0.52857  1.0000 -0.5238706193
O   O8        1.0  0.78410  0.62602  0.63981  1.0000 -0.5806167744
O   O9        1.0  0.96330  0.56003  0.20972  1.0000 -0.5806167744
O   O10       1.0  0.85571  0.50147  0.32023  1.0000 -0.534502717
O   O11       1.0  0.94780  0.89168  0.02857  1.0000 -0.5238706193
O   O12       1.0  0.78410  0.87398  0.13981  1.0000 -0.5806167744
O   O13       1.0  0.03670  0.06003  0.29028  1.0000 -0.5806167744
O   O14       1.0  0.14429  0.00147  0.17977  1.0000 -0.534502717
O   O15       1.0  0.05220  0.39168  0.47143  1.0000 -0.5238706193
O   O16       1.0  0.21590  0.37398  0.36019  1.0000 -0.5806167744
