# DDEC6 charges by PACMAN v1.1 (https://github.com/mtap-research/PACMAN-charge/)
data_2017[Cu][hcb]2[ASR]4
_chemical_formula_sum              "Cu4 H88 C100 N16 O16"
_cell_length_a       17.2527
_cell_length_b       12.3355
_cell_length_c       24.414
_cell_angle_alpha    90
_cell_angle_beta     133.408
_cell_angle_gamma    90

_symmetry_space_group_name_H-M    "P 1"
_symmetry_Int_Tables_number       1

loop_
  _symmetry_equiv_pos_as_xyz
  'x, y, z'

loop_
  _atom_site_type_symbol
  _atom_site_label
  _atom_site_symmetry_multiplicity
  _atom_site_fract_x
  _atom_site_fract_y
  _atom_site_fract_z
  _atom_site_occupancy
  _atom_site_charge
Cu  Cu1       1.0  0.58320  0.28270  0.65925  1.0000 0.7586872544
Cu  Cu2       1.0  0.58320  0.21730  0.15925  1.0000 0.7586872544
Cu  Cu3       1.0  0.41680  0.78270  0.84075  1.0000 0.7586872544
Cu  Cu4       1.0  0.41680  0.71730  0.34075  1.0000 0.7586872544
H   H1        1.0  0.73200  0.38360  0.86930  1.0000 0.1401377746
H   H2        1.0  0.64430  0.30490  0.80010  1.0000 0.1516963088
H   H3        1.0  0.45360  0.48300  0.55250  1.0000 0.1516963088
H   H4        1.0  0.44820  0.61040  0.56180  1.0000 0.1516963088
H   H5        1.0  0.54410  0.56160  0.57290  1.0000 0.1681180886
H   H6        1.0  0.77090  0.55960  0.89830  1.0000 0.1300178206
H   H7        1.0  0.73070  0.67910  0.86390  1.0000 0.1516963088
H   H8        1.0  0.65950  0.60280  0.86770  1.0000 0.1681180886
H   H9        1.0  0.62240  0.74480  0.64340  1.0000 0.1221219795
H   H10       1.0  0.60760  0.93290  0.63010  1.0000 0.1300178206
H   H11       1.0  0.53740  0.94850  0.75710  1.0000 0.1139209637
H   H12       1.0  0.54470  0.75970  0.76660  1.0000 0.1221219795
H   H13       1.0  0.82630  0.23260  0.68660  1.0000 0.1516963088
H   H14       1.0  0.87670  0.12630  0.73840  1.0000 0.1401377746
H   H15       1.0  0.75020  0.14420  0.67750  1.0000 0.1516963088
H   H16       1.0  0.95000  0.32400  0.98260  1.0000 0.1562188681
H   H17       1.0  0.01620  0.39240  0.97060  1.0000 0.1516963088
H   H18       1.0  0.90650  0.43920  0.94120  1.0000 0.1401377746
H   H19       1.0  0.08040  0.19860  0.98500  1.0000 0.1139209637
H   H20       1.0  0.26230  0.18240  0.05170  1.0000 0.1300178206
H   H21       1.0  0.19870  0.24890  0.86290  1.0000 0.1300178206
H   H22       1.0  0.02070  0.28120  0.79950  1.0000 0.1221219795
H   H23       1.0  0.73200  0.11640  0.36930  1.0000 0.1401377746
H   H24       1.0  0.64430  0.19510  0.30010  1.0000 0.1516963088
H   H25       1.0  0.45360  0.01700  0.05250  1.0000 0.1516963088
H   H26       1.0  0.44820  0.88960  0.06180  1.0000 0.1516963088
H   H27       1.0  0.54410  0.93840  0.07290  1.0000 0.1681180886
H   H28       1.0  0.77090  0.94040  0.39830  1.0000 0.1300178206
H   H29       1.0  0.73070  0.82090  0.36390  1.0000 0.1516963088
H   H30       1.0  0.65950  0.89720  0.36770  1.0000 0.1681180886
H   H31       1.0  0.62240  0.75520  0.14340  1.0000 0.1221219795
H   H32       1.0  0.60760  0.56710  0.13010  1.0000 0.1300178206
H   H33       1.0  0.53740  0.55150  0.25710  1.0000 0.1139209637
H   H34       1.0  0.54470  0.74030  0.26660  1.0000 0.1221219795
H   H35       1.0  0.82630  0.26740  0.18660  1.0000 0.1516963088
H   H36       1.0  0.87670  0.37370  0.23840  1.0000 0.1401377746
H   H37       1.0  0.75020  0.35580  0.17750  1.0000 0.1516963088
H   H38       1.0  0.95000  0.17600  0.48260  1.0000 0.1562188681
H   H39       1.0  0.01620  0.10760  0.47060  1.0000 0.1516963088
H   H40       1.0  0.90650  0.06080  0.44120  1.0000 0.1401377746
H   H41       1.0  0.08040  0.30140  0.48500  1.0000 0.1139209637
H   H42       1.0  0.26230  0.31760  0.55170  1.0000 0.1300178206
H   H43       1.0  0.19870  0.25110  0.36290  1.0000 0.1300178206
H   H44       1.0  0.02070  0.21880  0.29950  1.0000 0.1221219795
H   H45       1.0  0.26800  0.88360  0.63070  1.0000 0.1401377746
H   H46       1.0  0.35570  0.80490  0.69990  1.0000 0.1516963088
H   H47       1.0  0.54640  0.98300  0.94750  1.0000 0.1516963088
H   H48       1.0  0.55180  0.11040  0.93820  1.0000 0.1516963088
H   H49       1.0  0.45590  0.06160  0.92710  1.0000 0.1681180886
H   H50       1.0  0.22910  0.05960  0.60170  1.0000 0.1300178206
H   H51       1.0  0.26930  0.17910  0.63610  1.0000 0.1516963088
H   H52       1.0  0.34050  0.10280  0.63230  1.0000 0.1681180886
H   H53       1.0  0.37760  0.24480  0.85660  1.0000 0.1221219795
H   H54       1.0  0.39240  0.43290  0.86990  1.0000 0.1300178206
H   H55       1.0  0.46260  0.44850  0.74290  1.0000 0.1139209637
H   H56       1.0  0.45530  0.25970  0.73340  1.0000 0.1221219795
H   H57       1.0  0.17370  0.73260  0.81340  1.0000 0.1516963088
H   H58       1.0  0.12330  0.62630  0.76160  1.0000 0.1401377746
H   H59       1.0  0.24980  0.64420  0.82250  1.0000 0.1516963088
H   H60       1.0  0.05000  0.82400  0.51740  1.0000 0.1562188681
H   H61       1.0  0.98380  0.89240  0.52940  1.0000 0.1516963088
H   H62       1.0  0.09350  0.93920  0.55880  1.0000 0.1401377746
H   H63       1.0  0.91960  0.69860  0.51500  1.0000 0.1139209637
H   H64       1.0  0.73770  0.68240  0.44830  1.0000 0.1300178206
H   H65       1.0  0.80130  0.74890  0.63710  1.0000 0.1300178206
H   H66       1.0  0.97930  0.78120  0.70050  1.0000 0.1221219795
H   H67       1.0  0.26800  0.61640  0.13070  1.0000 0.1401377746
H   H68       1.0  0.35570  0.69510  0.19990  1.0000 0.1516963088
H   H69       1.0  0.54640  0.51700  0.44750  1.0000 0.1516963088
H   H70       1.0  0.55180  0.38960  0.43820  1.0000 0.1516963088
H   H71       1.0  0.45590  0.43840  0.42710  1.0000 0.1681180886
H   H72       1.0  0.22910  0.44040  0.10170  1.0000 0.1300178206
H   H73       1.0  0.26930  0.32090  0.13610  1.0000 0.1516963088
H   H74       1.0  0.34050  0.39720  0.13230  1.0000 0.1681180886
H   H75       1.0  0.37760  0.25520  0.35660  1.0000 0.1221219795
H   H76       1.0  0.39240  0.06710  0.36990  1.0000 0.1300178206
H   H77       1.0  0.46260  0.05150  0.24290  1.0000 0.1139209637
H   H78       1.0  0.45530  0.24030  0.23340  1.0000 0.1221219795
H   H79       1.0  0.17370  0.76740  0.31340  1.0000 0.1516963088
H   H80       1.0  0.12330  0.87370  0.26160  1.0000 0.1401377746
H   H81       1.0  0.24980  0.85580  0.32250  1.0000 0.1516963088
H   H82       1.0  0.05000  0.67600  0.01740  1.0000 0.1562188681
H   H83       1.0  0.98380  0.60760  0.02940  1.0000 0.1516963088
H   H84       1.0  0.09350  0.56080  0.05880  1.0000 0.1401377746
H   H85       1.0  0.91960  0.80140  0.01500  1.0000 0.1139209637
H   H86       1.0  0.73770  0.81760  0.94830  1.0000 0.1300178206
H   H87       1.0  0.80130  0.75110  0.13710  1.0000 0.1221219795
H   H88       1.0  0.97930  0.71880  0.20050  1.0000 0.1221219795
C   C1        1.0  0.69770  0.36160  0.81780  1.0000 -0.0782470048
C   C2        1.0  0.65270  0.56110  0.78390  1.0000 0.1681180886
C   C3        1.0  0.59750  0.61540  0.71640  1.0000 -0.141206051
C   C4        1.0  0.55910  0.53230  0.66170  1.0000 0.2625131276
C   C5        1.0  0.49590  0.54820  0.58030  1.0000 -0.4983898618
C   C6        1.0  0.70820  0.60430  0.85990  1.0000 -0.5073784964
C   C7        1.0  0.58580  0.73520  0.70630  1.0000 0.0928426482
C   C8        1.0  0.60430  0.78600  0.66610  1.0000 -0.141206051
C   C9        1.0  0.59640  0.89810  0.65890  1.0000 -0.0969901929
C   C10       1.0  0.57220  0.96050  0.69310  1.0000 -0.0107488042
C   C11       1.0  0.55390  0.90720  0.73340  1.0000 -0.1179586869
C   C12       1.0  0.55900  0.79510  0.73980  1.0000 -0.1488637213
C   C13       1.0  0.56850  0.08420  0.68850  1.0000 0.5276784565
C   C14       1.0  0.88430  0.31850  0.87390  1.0000 0.1562188681
C   C15       1.0  0.91970  0.26600  0.84510  1.0000 -0.1658469621
C   C16       1.0  0.82840  0.23810  0.77070  1.0000 0.239637826
C   C17       1.0  0.81970  0.18040  0.71350  1.0000 -0.4668672565
C   C18       1.0  0.94440  0.37330  0.94850  1.0000 -0.4983898618
C   C19       1.0  0.03280  0.24620  0.88520  1.0000 0.0928426482
C   C20       1.0  0.10460  0.21310  0.96060  1.0000 -0.1488637213
C   C21       1.0  0.21290  0.20170  0.99980  1.0000 -0.0969901929
C   C22       1.0  0.24880  0.21760  0.96560  1.0000 -0.0107488042
C   C23       1.0  0.17590  0.24310  0.88880  1.0000 -0.092497382
C   C24       1.0  0.06940  0.25970  0.85090  1.0000 -0.1488637213
C   C25       1.0  0.36690  0.20880  0.00870  1.0000 0.5445840623
C   C26       1.0  0.69770  0.13840  0.31780  1.0000 -0.0782470048
C   C27       1.0  0.65270  0.93890  0.28390  1.0000 0.1681180886
C   C28       1.0  0.59750  0.88460  0.21640  1.0000 -0.141206051
C   C29       1.0  0.55910  0.96770  0.16170  1.0000 0.2625131276
C   C30       1.0  0.49590  0.95180  0.08030  1.0000 -0.4983898618
C   C31       1.0  0.70820  0.89570  0.35990  1.0000 -0.5073784964
C   C32       1.0  0.58580  0.76480  0.20630  1.0000 0.0928426482
C   C33       1.0  0.60430  0.71400  0.16610  1.0000 -0.141206051
C   C34       1.0  0.59640  0.60190  0.15890  1.0000 -0.0969901929
C   C35       1.0  0.57220  0.53950  0.19310  1.0000 -0.0107488042
C   C36       1.0  0.55390  0.59280  0.23340  1.0000 -0.1179586869
C   C37       1.0  0.55900  0.70490  0.23980  1.0000 -0.1488637213
C   C38       1.0  0.56850  0.41580  0.18850  1.0000 0.5276784565
C   C39       1.0  0.88430  0.18150  0.37390  1.0000 0.1562188681
C   C40       1.0  0.91970  0.23400  0.34510  1.0000 -0.1645939583
C   C41       1.0  0.82840  0.26190  0.27070  1.0000 0.239637826
C   C42       1.0  0.81970  0.31960  0.21350  1.0000 -0.4668672565
C   C43       1.0  0.94440  0.12670  0.44850  1.0000 -0.4983898618
C   C44       1.0  0.03280  0.25380  0.38520  1.0000 0.0928426482
C   C45       1.0  0.10460  0.28690  0.46060  1.0000 -0.1488637213
C   C46       1.0  0.21290  0.29830  0.49980  1.0000 -0.0969901929
C   C47       1.0  0.24880  0.28240  0.46560  1.0000 -0.0107488042
C   C48       1.0  0.17590  0.25690  0.38880  1.0000 -0.092497382
C   C49       1.0  0.06940  0.24030  0.35090  1.0000 -0.1488637213
C   C50       1.0  0.36690  0.29120  0.50870  1.0000 0.5445840623
C   C51       1.0  0.30230  0.86160  0.68220  1.0000 -0.0782470048
C   C52       1.0  0.34730  0.06110  0.71610  1.0000 0.1681180886
C   C53       1.0  0.40250  0.11540  0.78360  1.0000 -0.141206051
C   C54       1.0  0.44090  0.03230  0.83830  1.0000 0.2625131276
C   C55       1.0  0.50410  0.04820  0.91970  1.0000 -0.4983898618
C   C56       1.0  0.29180  0.10430  0.64010  1.0000 -0.5073784964
C   C57       1.0  0.41420  0.23520  0.79370  1.0000 0.0928426482
C   C58       1.0  0.39570  0.28600  0.83390  1.0000 -0.141206051
C   C59       1.0  0.40360  0.39810  0.84110  1.0000 -0.0969901929
C   C60       1.0  0.42780  0.46050  0.80690  1.0000 -0.0107488042
C   C61       1.0  0.44610  0.40720  0.76660  1.0000 -0.1179586869
C   C62       1.0  0.44100  0.29510  0.76020  1.0000 -0.1488637213
C   C63       1.0  0.43150  0.58420  0.81150  1.0000 0.5276784565
C   C64       1.0  0.11570  0.81850  0.62610  1.0000 0.1562188681
C   C65       1.0  0.08030  0.76600  0.65490  1.0000 -0.1645939583
C   C66       1.0  0.17160  0.73810  0.72930  1.0000 0.239637826
C   C67       1.0  0.18030  0.68040  0.78650  1.0000 -0.4668672565
C   C68       1.0  0.05560  0.87330  0.55150  1.0000 -0.4983898618
C   C69       1.0  0.96720  0.74620  0.61480  1.0000 0.0928426482
C   C70       1.0  0.89540  0.71310  0.53940  1.0000 -0.1488637213
C   C71       1.0  0.78710  0.70170  0.50020  1.0000 -0.0969901929
C   C72       1.0  0.75120  0.71760  0.53440  1.0000 -0.0107488042
C   C73       1.0  0.82410  0.74310  0.61120  1.0000 -0.092497382
C   C74       1.0  0.93060  0.75970  0.64910  1.0000 -0.141206051
C   C75       1.0  0.63310  0.70880  0.49130  1.0000 0.5445840623
C   C76       1.0  0.30230  0.63840  0.18220  1.0000 -0.0782470048
C   C77       1.0  0.34730  0.43890  0.21610  1.0000 0.1681180886
C   C78       1.0  0.40250  0.38460  0.28360  1.0000 -0.141206051
C   C79       1.0  0.44090  0.46770  0.33830  1.0000 0.2625131276
C   C80       1.0  0.50410  0.45180  0.41970  1.0000 -0.4983898618
C   C81       1.0  0.29180  0.39570  0.14010  1.0000 -0.5073784964
C   C82       1.0  0.41420  0.26480  0.29370  1.0000 0.0928426482
C   C83       1.0  0.39570  0.21400  0.33390  1.0000 -0.141206051
C   C84       1.0  0.40360  0.10190  0.34110  1.0000 -0.0969901929
C   C85       1.0  0.42780  0.03950  0.30690  1.0000 -0.0107488042
C   C86       1.0  0.44610  0.09280  0.26660  1.0000 -0.1179586869
C   C87       1.0  0.44100  0.20490  0.26020  1.0000 -0.1488637213
C   C88       1.0  0.43150  0.91580  0.31150  1.0000 0.5276784565
C   C89       1.0  0.11570  0.68150  0.12610  1.0000 0.1562188681
C   C90       1.0  0.08030  0.73400  0.15490  1.0000 -0.1645939583
C   C91       1.0  0.17160  0.76190  0.22930  1.0000 0.239637826
C   C92       1.0  0.18030  0.81960  0.28650  1.0000 -0.4668672565
C   C93       1.0  0.05560  0.62670  0.05150  1.0000 -0.4983898618
C   C94       1.0  0.96720  0.75380  0.11480  1.0000 0.0928426482
C   C95       1.0  0.89540  0.78690  0.03940  1.0000 -0.1488637213
C   C96       1.0  0.78710  0.79830  0.00020  1.0000 -0.0969901929
C   C97       1.0  0.75120  0.78240  0.03440  1.0000 -0.0107488042
C   C98       1.0  0.82410  0.75690  0.11120  1.0000 -0.092497382
C   C99       1.0  0.93060  0.74030  0.14910  1.0000 -0.1488637213
C   C100      1.0  0.63310  0.79120  0.99130  1.0000 0.5445840623
N   N1        1.0  0.58965  0.43650  0.69394  1.0000 -0.3116538595
N   N2        1.0  0.64616  0.45320  0.76840  1.0000 0.0696127679
N   N3        1.0  0.74124  0.26970  0.75517  1.0000 -0.3116538595
N   N4        1.0  0.77709  0.31900  0.81965  1.0000 0.0834036901
N   N5        1.0  0.58965  0.06350  0.19394  1.0000 -0.3116538595
N   N6        1.0  0.64616  0.04680  0.26840  1.0000 0.0696127679
N   N7        1.0  0.74124  0.23030  0.25517  1.0000 -0.3116538595
N   N8        1.0  0.77709  0.18100  0.31965  1.0000 0.0834036901
N   N9        1.0  0.41035  0.93650  0.80606  1.0000 -0.3116538595
N   N10       1.0  0.35384  0.95320  0.73160  1.0000 0.0696127679
N   N11       1.0  0.25876  0.76970  0.74483  1.0000 -0.3116538595
N   N12       1.0  0.22291  0.81900  0.68035  1.0000 0.0834036901
N   N13       1.0  0.41035  0.56350  0.30606  1.0000 -0.3116538595
N   N14       1.0  0.35384  0.54680  0.23160  1.0000 0.0696127679
N   N15       1.0  0.25876  0.73030  0.24483  1.0000 -0.3116538595
N   N16       1.0  0.22291  0.68100  0.18035  1.0000 0.0834036901
O   O1        1.0  0.57517  0.12367  0.64481  1.0000 -0.4983898618
O   O2        1.0  0.55847  0.13490  0.72699  1.0000 -0.5642546449
O   O3        1.0  0.42719  0.20660  0.07990  1.0000 -0.5250174437
O   O4        1.0  0.39408  0.20360  0.97398  1.0000 -0.5073784964
O   O5        1.0  0.57517  0.37633  0.14481  1.0000 -0.4983898618
O   O6        1.0  0.55847  0.36510  0.22699  1.0000 -0.5642546449
O   O7        1.0  0.42719  0.29340  0.57990  1.0000 -0.5250174437
O   O8        1.0  0.39408  0.29640  0.47398  1.0000 -0.5073784964
O   O9        1.0  0.42483  0.62367  0.85519  1.0000 -0.4983898618
O   O10       1.0  0.44153  0.63490  0.77301  1.0000 -0.5642546449
O   O11       1.0  0.57281  0.70660  0.42010  1.0000 -0.5250174437
O   O12       1.0  0.60592  0.70360  0.52602  1.0000 -0.5073784964
O   O13       1.0  0.42483  0.87633  0.35519  1.0000 -0.4983898618
O   O14       1.0  0.44153  0.86510  0.27301  1.0000 -0.5642546449
O   O15       1.0  0.57281  0.79340  0.92010  1.0000 -0.5245516334
O   O16       1.0  0.60592  0.79640  0.02602  1.0000 -0.4983898618
