# DDEC6 charges by PACMAN v1.1 (https://github.com/mtap-research/PACMAN-charge/)
data_2017[Ho][bnn]3[ASR]1
_chemical_formula_sum              "Ho2 H30 C54 O12"
_cell_length_a       16.8195
_cell_length_b       16.8195
_cell_length_c       9.5889
_cell_angle_alpha    83.7854
_cell_angle_beta     96.2146
_cell_angle_gamma    63.0077

_symmetry_space_group_name_H-M    "P 1"
_symmetry_Int_Tables_number       1

loop_
  _symmetry_equiv_pos_as_xyz
  'x, y, z'

loop_
  _atom_site_type_symbol
  _atom_site_label
  _atom_site_symmetry_multiplicity
  _atom_site_fract_x
  _atom_site_fract_y
  _atom_site_fract_z
  _atom_site_occupancy
  _atom_site_charge
Ho  Ho1       1.0  0.46898  0.46898  0.75000  1.0000 2.0817672042
Ho  Ho2       1.0  0.53102  0.53102  0.25000  1.0000 2.0817672042
H   H1        1.0  0.72165  0.95315  0.17940  1.0000 0.113363695
H   H2        1.0  0.95315  0.72165  0.32060  1.0000 0.113363695
H   H3        1.0  0.95880  0.95880  0.25000  1.0000 0.113363695
H   H4        1.0  0.84955  0.10435  0.31890  1.0000 0.113363695
H   H5        1.0  0.75610  0.25840  0.27010  1.0000 0.1194604014
H   H6        1.0  0.61145  0.22945  0.93725  1.0000 0.1304940926
H   H7        1.0  0.69835  0.07555  0.99420  1.0000 0.1194604014
H   H8        1.0  0.07555  0.69835  0.50580  1.0000 0.113363695
H   H9        1.0  0.22945  0.61145  0.56275  1.0000 0.1304940926
H   H10       1.0  0.25840  0.75610  0.22990  1.0000 0.1194604014
H   H11       1.0  0.10435  0.84955  0.18110  1.0000 0.113363695
H   H12       1.0  0.66725  0.86835  0.31505  1.0000 0.113363695
H   H13       1.0  0.58655  0.78945  0.31245  1.0000 0.1304940926
H   H14       1.0  0.78945  0.58655  0.18755  1.0000 0.1304940926
H   H15       1.0  0.86835  0.66725  0.18495  1.0000 0.113363695
H   H16       1.0  0.27835  0.04685  0.82060  1.0000 0.113363695
H   H17       1.0  0.04685  0.27835  0.67940  1.0000 0.113363695
H   H18       1.0  0.04120  0.04120  0.75000  1.0000 0.113363695
H   H19       1.0  0.15045  0.89565  0.68110  1.0000 0.113363695
H   H20       1.0  0.24390  0.74160  0.72990  1.0000 0.1194604014
H   H21       1.0  0.38855  0.77055  0.06275  1.0000 0.1304940926
H   H22       1.0  0.30165  0.92445  0.00580  1.0000 0.1194604014
H   H23       1.0  0.92445  0.30165  0.49420  1.0000 0.1194604014
H   H24       1.0  0.77055  0.38855  0.43725  1.0000 0.1304940926
H   H25       1.0  0.74160  0.24390  0.77010  1.0000 0.1194604014
H   H26       1.0  0.89565  0.15045  0.81890  1.0000 0.113363695
H   H27       1.0  0.33275  0.13165  0.68495  1.0000 0.113363695
H   H28       1.0  0.41345  0.21055  0.68755  1.0000 0.1304940926
H   H29       1.0  0.21055  0.41345  0.81245  1.0000 0.1304940926
H   H30       1.0  0.13165  0.33275  0.81505  1.0000 0.113363695
C   C1        1.0  0.83237  0.97197  0.20940  1.0000 0.0767372577
C   C2        1.0  0.78424  0.92274  0.20830  1.0000 -0.1994422051
C   C3        1.0  0.82855  0.82855  0.25000  1.0000 0.0767372577
C   C4        1.0  0.92274  0.78424  0.29170  1.0000 -0.1994422051
C   C5        1.0  0.97197  0.83237  0.29060  1.0000 0.0767372577
C   C6        1.0  0.92639  0.92639  0.25000  1.0000 -0.2110683294
C   C7        1.0  0.78131  0.07171  0.16615  1.0000 0.0713584488
C   C8        1.0  0.79985  0.12904  0.24515  1.0000 -0.1553083779
C   C9        1.0  0.74474  0.22165  0.21400  1.0000 -0.0945468219
C   C10       1.0  0.67241  0.26092  0.09955  1.0000 -0.0441110535
C   C11       1.0  0.65763  0.20433  0.01655  1.0000 -0.0981327014
C   C12       1.0  0.71033  0.11203  0.05020  1.0000 -0.150591203
C   C13       1.0  0.61022  0.36082  0.07180  1.0000 0.6615621624
C   C14       1.0  0.07171  0.78131  0.33385  1.0000 0.0713584488
C   C15       1.0  0.11203  0.71033  0.44980  1.0000 -0.150591203
C   C16       1.0  0.20433  0.65763  0.48345  1.0000 -0.0981327014
C   C17       1.0  0.26092  0.67241  0.40045  1.0000 -0.0441110535
C   C18       1.0  0.22165  0.74474  0.28600  1.0000 -0.0945468219
C   C19       1.0  0.12905  0.79984  0.25485  1.0000 -0.1553083779
C   C20       1.0  0.36082  0.61022  0.42820  1.0000 0.6615621624
C   C21       1.0  0.77659  0.77659  0.25000  1.0000 0.0713584488
C   C22       1.0  0.69196  0.81166  0.28830  1.0000 -0.150591203
C   C23       1.0  0.64378  0.76408  0.28740  1.0000 -0.0945468219
C   C24       1.0  0.67894  0.67894  0.25000  1.0000 -0.0192844267
C   C25       1.0  0.76408  0.64378  0.21260  1.0000 -0.0981327014
C   C26       1.0  0.81166  0.69196  0.21170  1.0000 -0.150591203
C   C27       1.0  0.62670  0.62670  0.25000  1.0000 0.5539566902
C   C28       1.0  0.16763  0.02803  0.79060  1.0000 0.0767372577
C   C29       1.0  0.21576  0.07726  0.79170  1.0000 -0.1994422051
C   C30       1.0  0.17145  0.17145  0.75000  1.0000 0.0767372577
C   C31       1.0  0.07726  0.21576  0.70830  1.0000 -0.1994422051
C   C32       1.0  0.02803  0.16763  0.70940  1.0000 0.0767372577
C   C33       1.0  0.07361  0.07361  0.75000  1.0000 -0.2110683294
C   C34       1.0  0.21869  0.92829  0.83385  1.0000 0.0713584488
C   C35       1.0  0.20016  0.87095  0.75485  1.0000 -0.1553083779
C   C36       1.0  0.25526  0.77836  0.78600  1.0000 -0.0945468219
C   C37       1.0  0.32758  0.73908  0.90045  1.0000 -0.0441110535
C   C38       1.0  0.34237  0.79567  0.98345  1.0000 -0.0981327014
C   C39       1.0  0.28967  0.88797  0.94980  1.0000 -0.150591203
C   C40       1.0  0.38978  0.63918  0.92820  1.0000 0.6615621624
C   C41       1.0  0.92829  0.21869  0.66615  1.0000 0.0713584488
C   C42       1.0  0.88797  0.28967  0.55020  1.0000 -0.150591203
C   C43       1.0  0.79567  0.34237  0.51655  1.0000 -0.0981327014
C   C44       1.0  0.73908  0.32759  0.59955  1.0000 -0.0441110535
C   C45       1.0  0.77836  0.25525  0.71400  1.0000 -0.0945468219
C   C46       1.0  0.87095  0.20015  0.74515  1.0000 -0.1553083779
C   C47       1.0  0.63918  0.38978  0.57180  1.0000 0.6615621624
C   C48       1.0  0.22341  0.22341  0.75000  1.0000 0.0713584488
C   C49       1.0  0.30804  0.18834  0.71170  1.0000 -0.150591203
C   C50       1.0  0.35622  0.23592  0.71260  1.0000 -0.0945468219
C   C51       1.0  0.32106  0.32106  0.75000  1.0000 -0.0192844267
C   C52       1.0  0.23592  0.35622  0.78740  1.0000 -0.0945468219
C   C53       1.0  0.18834  0.30804  0.78830  1.0000 -0.150591203
C   C54       1.0  0.37330  0.37330  0.75000  1.0000 0.5551731614
O   O1        1.0  0.39254  0.54938  0.53595  1.0000 -0.7062194916
O   O2        1.0  0.40664  0.62165  0.34150  1.0000 -0.6623041453
O   O3        1.0  0.62165  0.40664  0.15850  1.0000 -0.6623041453
O   O4        1.0  0.54938  0.39254  0.96405  1.0000 -0.7062194916
O   O5        1.0  0.55259  0.65729  0.29465  1.0000 -0.624643323
O   O6        1.0  0.65729  0.55259  0.20535  1.0000 -0.6256819936
O   O7        1.0  0.60746  0.45062  0.46405  1.0000 -0.7062194916
O   O8        1.0  0.59335  0.37834  0.65850  1.0000 -0.6623041453
O   O9        1.0  0.37834  0.59335  0.84150  1.0000 -0.6623041453
O   O10       1.0  0.45062  0.60746  0.03595  1.0000 -0.7062194916
O   O11       1.0  0.44741  0.34271  0.70535  1.0000 -0.624643323
O   O12       1.0  0.34271  0.44741  0.79465  1.0000 -0.6256819936
