# DDEC6 charges by PACMAN v1.1 (https://github.com/mtap-research/PACMAN-charge/)
data_2017[Mn][sql]2[ASR]5
_chemical_formula_sum              "Mn2 H52 C76 N8 O8"
_cell_length_a       9.717
_cell_length_b       16.728
_cell_length_c       16.96
_cell_angle_alpha    61.57
_cell_angle_beta     79.641
_cell_angle_gamma    80.438

_symmetry_space_group_name_H-M    "P 1"
_symmetry_Int_Tables_number       1

loop_
  _symmetry_equiv_pos_as_xyz
  'x, y, z'

loop_
  _atom_site_type_symbol
  _atom_site_label
  _atom_site_symmetry_multiplicity
  _atom_site_fract_x
  _atom_site_fract_y
  _atom_site_fract_z
  _atom_site_occupancy
  _atom_site_charge
Mn  Mn1       1.0  0.93862  0.03043  0.37537  1.0000 0.8918036067
Mn  Mn2       1.0  0.06138  0.96957  0.62463  1.0000 0.8918036067
H   H1        1.0  0.97270  0.12990  0.89090  1.0000 0.1206253207
H   H2        1.0  0.45630  0.87470  0.39050  1.0000 0.1206253207
H   H3        1.0  0.79910  0.22150  0.37050  1.0000 0.1020010405
H   H4        1.0  0.57490  0.03190  0.41360  1.0000 0.1206253207
H   H5        1.0  0.97250  0.59530  0.52620  1.0000 0.1094352115
H   H6        1.0  0.29690  0.00280  0.39150  1.0000 0.1206253207
H   H7        1.0  0.65490  0.46950  0.40760  1.0000 0.1094352115
H   H8        1.0  0.21450  0.58010  0.36240  1.0000 0.1094352115
H   H9        1.0  0.41400  0.16190  0.41290  1.0000 0.1286013666
H   H10       1.0  0.08320  0.86150  0.33640  1.0000 0.1094352115
H   H11       1.0  0.14440  0.72120  0.35670  1.0000 0.1206253207
H   H12       1.0  0.71830  0.32600  0.41730  1.0000 0.1206253207
H   H13       1.0  0.97360  0.32990  0.95620  1.0000 0.1094352115
H   H14       1.0  0.10350  0.21220  0.76950  1.0000 0.1206253207
H   H15       1.0  0.92390  0.75040  0.47230  1.0000 0.1206253207
H   H16       1.0  0.29550  0.47500  0.32730  1.0000 0.1094352115
H   H17       1.0  0.54300  0.75430  0.35440  1.0000 0.1286013666
H   H18       1.0  0.60740  0.61410  0.35820  1.0000 0.1094352115
H   H19       1.0  0.35950  0.33080  0.33950  1.0000 0.1286013666
H   H20       1.0  0.00000  0.56770  0.76900  1.0000 0.1206253207
H   H21       1.0  0.93570  0.42240  0.81470  1.0000 0.1094352115
H   H22       1.0  0.12400  0.46770  0.56950  1.0000 0.1094352115
H   H23       1.0  0.95030  0.72210  0.71560  1.0000 0.1206253207
H   H24       1.0  0.17020  0.31070  0.62260  1.0000 0.1094352115
H   H25       1.0  0.92750  0.22290  0.10890  1.0000 0.1206253207
H   H26       1.0  0.92360  0.02840  0.03770  1.0000 0.1206253207
H   H27       1.0  0.02730  0.87010  0.10910  1.0000 0.1206253207
H   H28       1.0  0.54370  0.12530  0.60950  1.0000 0.1206253207
H   H29       1.0  0.20090  0.77850  0.62950  1.0000 0.1020010405
H   H30       1.0  0.42510  0.96810  0.58640  1.0000 0.1206253207
H   H31       1.0  0.02750  0.40470  0.47380  1.0000 0.1094352115
H   H32       1.0  0.70310  0.99720  0.60850  1.0000 0.1206253207
H   H33       1.0  0.34510  0.53050  0.59240  1.0000 0.1094352115
H   H34       1.0  0.78550  0.41990  0.63760  1.0000 0.1094352115
H   H35       1.0  0.58600  0.83810  0.58710  1.0000 0.1286013666
H   H36       1.0  0.91680  0.13850  0.66360  1.0000 0.1094352115
H   H37       1.0  0.85560  0.27880  0.64330  1.0000 0.1206253207
H   H38       1.0  0.28170  0.67400  0.58270  1.0000 0.1206253207
H   H39       1.0  0.02640  0.67010  0.04380  1.0000 0.1094352115
H   H40       1.0  0.89650  0.78780  0.23050  1.0000 0.1206253207
H   H41       1.0  0.07610  0.24960  0.52770  1.0000 0.1206253207
H   H42       1.0  0.70450  0.52500  0.67270  1.0000 0.1094352115
H   H43       1.0  0.45700  0.24570  0.64560  1.0000 0.1286013666
H   H44       1.0  0.39260  0.38590  0.64180  1.0000 0.1094352115
H   H45       1.0  0.64050  0.66920  0.66050  1.0000 0.1286013666
H   H46       1.0  0.00000  0.43230  0.23100  1.0000 0.1206253207
H   H47       1.0  0.06430  0.57760  0.18530  1.0000 0.1094352115
H   H48       1.0  0.87600  0.53230  0.43050  1.0000 0.1094352115
H   H49       1.0  0.04970  0.27790  0.28440  1.0000 0.1206253207
H   H50       1.0  0.82980  0.68930  0.37740  1.0000 0.1094352115
H   H51       1.0  0.07250  0.77710  0.89110  1.0000 0.1206253207
H   H52       1.0  0.07640  0.97160  0.96230  1.0000 0.1206253207
C   C1        1.0  0.96320  0.14990  0.93430  1.0000 -0.1403426218
C   C2        1.0  0.97750  0.24190  0.90510  1.0000 0.0666033917
C   C3        1.0  0.36280  0.88730  0.37960  1.0000 -0.1197711037
C   C4        1.0  0.46590  0.48830  0.36840  1.0000 0.0666033917
C   C5        1.0  0.72220  0.19040  0.37930  1.0000 0.1094352115
C   C6        1.0  0.33480  0.75110  0.35820  1.0000 0.1553004526
C   C7        1.0  0.54620  0.31460  0.38030  1.0000 0.1367995211
C   C8        1.0  0.91840  0.85670  0.55070  1.0000 0.5631439928
C   C9        1.0  0.60190  0.08710  0.40350  1.0000 -0.0200187689
C   C10       1.0  0.96910  0.62020  0.56520  1.0000 -0.1588423892
C   C11       1.0  0.27370  0.95760  0.38050  1.0000 -0.0330248342
C   C12       1.0  0.93550  0.75340  0.58840  1.0000 -0.0330248342
C   C13       1.0  0.59260  0.44260  0.39380  1.0000 -0.1316212869
C   C14       1.0  0.28130  0.61450  0.36150  1.0000 -0.1403426218
C   C15       1.0  0.51150  0.15950  0.40270  1.0000 -0.0987218116
C   C16       1.0  0.15580  0.88100  0.35010  1.0000 0.1206253207
C   C17       1.0  0.42060  0.58020  0.36330  1.0000 0.0666033917
C   C18       1.0  0.23880  0.69930  0.35850  1.0000 -0.1769066579
C   C19       1.0  0.63110  0.35560  0.39950  1.0000 -0.1769066579
C   C20       1.0  0.96480  0.26940  0.97200  1.0000 -0.1588423892
C   C21       1.0  0.08360  0.27480  0.74930  1.0000 -0.1403426218
C   C22       1.0  0.94020  0.71400  0.53230  1.0000 -0.1197711037
C   C23       1.0  0.38170  0.44520  0.34700  1.0000 -0.1403426218
C   C24       1.0  0.47520  0.71960  0.35690  1.0000 -0.1769066579
C   C25       1.0  0.51250  0.63490  0.35930  1.0000 -0.1316212869
C   C26       1.0  0.99320  0.56240  0.65390  1.0000 0.0666033917
C   C27       1.0  0.01410  0.30690  0.80820  1.0000 0.0845941112
C   C28       1.0  0.42030  0.35850  0.35350  1.0000 -0.1769066579
C   C29       1.0  0.98530  0.60370  0.70880  1.0000 -0.1499352015
C   C30       1.0  0.98480  0.40040  0.77550  1.0000 -0.1980174787
C   C31       1.0  0.02520  0.46300  0.68710  1.0000 0.0666033917
C   C32       1.0  0.92940  0.11540  0.08460  1.0000 -0.0200187689
C   C33       1.0  0.09560  0.42830  0.62940  1.0000 -0.1769066579
C   C34       1.0  0.95610  0.69710  0.67640  1.0000 -0.1197711037
C   C35       1.0  0.90850  0.04120  0.19670  1.0000 0.5631439928
C   C36       1.0  0.12360  0.33360  0.66160  1.0000 -0.0987218116
C   C37       1.0  0.93850  0.20520  0.06370  1.0000 -0.0987218116
C   C38       1.0  0.93660  0.08820  0.02180  1.0000 -0.0818337916
C   C39       1.0  0.03680  0.85010  0.06570  1.0000 -0.1403426218
C   C40       1.0  0.02250  0.75810  0.09490  1.0000 0.0666033917
C   C41       1.0  0.63720  0.11270  0.62040  1.0000 -0.1197711037
C   C42       1.0  0.53410  0.51170  0.63160  1.0000 0.0666033917
C   C43       1.0  0.27780  0.80960  0.62070  1.0000 0.1094352115
C   C44       1.0  0.66520  0.24890  0.64180  1.0000 0.1553004526
C   C45       1.0  0.45380  0.68540  0.61970  1.0000 0.1367995211
C   C46       1.0  0.08160  0.14330  0.44930  1.0000 0.5631439928
C   C47       1.0  0.39810  0.91290  0.59650  1.0000 -0.0200187689
C   C48       1.0  0.03090  0.37980  0.43480  1.0000 -0.1588423892
C   C49       1.0  0.72630  0.04240  0.61950  1.0000 -0.0330248342
C   C50       1.0  0.06450  0.24660  0.41160  1.0000 -0.0330248342
C   C51       1.0  0.40740  0.55740  0.60620  1.0000 -0.1316212869
C   C52       1.0  0.71870  0.38550  0.63850  1.0000 -0.1403426218
C   C53       1.0  0.48850  0.84050  0.59730  1.0000 -0.0987218116
C   C54       1.0  0.84420  0.11900  0.64990  1.0000 0.1206253207
C   C55       1.0  0.57940  0.41980  0.63670  1.0000 0.0666033917
C   C56       1.0  0.76120  0.30070  0.64150  1.0000 -0.1769066579
C   C57       1.0  0.36890  0.64440  0.60050  1.0000 -0.1769066579
C   C58       1.0  0.03520  0.73060  0.02800  1.0000 -0.1588423892
C   C59       1.0  0.91640  0.72520  0.25070  1.0000 -0.1403426218
C   C60       1.0  0.05980  0.28600  0.46770  1.0000 -0.1197711037
C   C61       1.0  0.61830  0.55480  0.65300  1.0000 -0.1403426218
C   C62       1.0  0.52480  0.28040  0.64310  1.0000 -0.1769066579
C   C63       1.0  0.48750  0.36510  0.64070  1.0000 -0.1316212869
C   C64       1.0  0.00680  0.43760  0.34610  1.0000 0.0666033917
C   C65       1.0  0.98590  0.69310  0.19180  1.0000 0.0845941112
C   C66       1.0  0.57970  0.64150  0.64650  1.0000 -0.1769066579
C   C67       1.0  0.01470  0.39630  0.29120  1.0000 -0.1499352015
C   C68       1.0  0.01520  0.59960  0.22450  1.0000 -0.1980174787
C   C69       1.0  0.97480  0.53700  0.31290  1.0000 0.0666033917
C   C70       1.0  0.07060  0.88460  0.91540  1.0000 -0.0200187689
C   C71       1.0  0.90440  0.57170  0.37060  1.0000 -0.1769066579
C   C72       1.0  0.04390  0.30290  0.32360  1.0000 -0.1197711037
C   C73       1.0  0.09150  0.95880  0.80330  1.0000 0.5661825382
C   C74       1.0  0.87640  0.66640  0.33840  1.0000 -0.0987218116
C   C75       1.0  0.06150  0.79480  0.93630  1.0000 -0.0987218116
C   C76       1.0  0.06340  0.91180  0.97820  1.0000 -0.0818337916
N   N1        1.0  0.28740  0.83760  0.35930  1.0000 -0.0007082547
N   N2        1.0  0.14290  0.95310  0.36260  1.0000 -0.2924673564
N   N3        1.0  0.59010  0.22600  0.38450  1.0000 0.008636283
N   N4        1.0  0.73410  0.10750  0.38770  1.0000 -0.2712826289
N   N5        1.0  0.71260  0.16240  0.64070  1.0000 -0.0007082547
N   N6        1.0  0.85710  0.04690  0.63740  1.0000 -0.2924673564
N   N7        1.0  0.40990  0.77400  0.61550  1.0000 0.008636283
N   N8        1.0  0.26590  0.89250  0.61230  1.0000 -0.2712826289
O   O1        1.0  0.95930  0.88860  0.59390  1.0000 -0.5527489937
O   O2        1.0  0.86540  0.90280  0.47590  1.0000 -0.5689844645
O   O3        1.0  0.89740  0.96310  0.20940  1.0000 -0.5806329406
O   O4        1.0  0.91280  0.07830  0.24020  1.0000 -0.5126716352
O   O5        1.0  0.04070  0.11140  0.40610  1.0000 -0.5527489937
O   O6        1.0  0.13460  0.09720  0.52410  1.0000 -0.5689844645
O   O7        1.0  0.10260  0.03690  0.79060  1.0000 -0.5806329406
O   O8        1.0  0.08720  0.92170  0.75980  1.0000 -0.5126716352
