# DDEC6 charges by PACMAN v1.1 (https://github.com/mtap-research/PACMAN-charge/)
data_2017[Ho][hcb]2[ASR]1
_chemical_formula_sum              "Ho2 P2 H24 C42 O12"
_cell_length_a       13.677
_cell_length_b       13.677
_cell_length_c       11.545
_cell_angle_alpha    90
_cell_angle_beta     90
_cell_angle_gamma    120

_symmetry_space_group_name_H-M    "P 1"
_symmetry_Int_Tables_number       1

loop_
  _symmetry_equiv_pos_as_xyz
  'x, y, z'

loop_
  _atom_site_type_symbol
  _atom_site_label
  _atom_site_symmetry_multiplicity
  _atom_site_fract_x
  _atom_site_fract_y
  _atom_site_fract_z
  _atom_site_occupancy
  _atom_site_charge
Ho  Ho1       1.0  0.66667  0.33333  0.63992  1.0000 1.9611019529
Ho  Ho2       1.0  0.66667  0.33333  0.13992  1.0000 1.9611019529
P   P1        1.0  0.00000  0.00000  0.28210  1.0000 0.1630096844
P   P2        1.0  0.00000  0.00000  0.78210  1.0000 0.1630096844
H   H1        1.0  0.98430  0.79080  0.24390  1.0000 0.111207613
H   H2        1.0  0.90010  0.61480  0.33390  1.0000 0.1348238922
H   H3        1.0  0.75590  0.71270  0.56600  1.0000 0.1159660629
H   H4        1.0  0.83590  0.89230  0.47860  1.0000 0.111207613
H   H5        1.0  0.20920  0.19350  0.24390  1.0000 0.111207613
H   H6        1.0  0.38520  0.28530  0.33390  1.0000 0.1348238922
H   H7        1.0  0.28730  0.04320  0.56600  1.0000 0.1159660629
H   H8        1.0  0.10770  0.94360  0.47860  1.0000 0.111207613
H   H9        1.0  0.80650  0.01570  0.24390  1.0000 0.111207613
H   H10       1.0  0.71470  0.09990  0.33390  1.0000 0.1348238922
H   H11       1.0  0.95680  0.24410  0.56600  1.0000 0.1159660629
H   H12       1.0  0.05640  0.16410  0.47860  1.0000 0.111207613
H   H13       1.0  0.80650  0.79080  0.74390  1.0000 0.111207613
H   H14       1.0  0.71470  0.61480  0.83390  1.0000 0.1348238922
H   H15       1.0  0.95680  0.71270  0.06600  1.0000 0.1159660629
H   H16       1.0  0.05640  0.89230  0.97860  1.0000 0.111207613
H   H17       1.0  0.98430  0.19350  0.74390  1.0000 0.111207613
H   H18       1.0  0.90010  0.28530  0.83390  1.0000 0.1348238922
H   H19       1.0  0.75590  0.04320  0.06600  1.0000 0.1159660629
H   H20       1.0  0.83590  0.94360  0.97860  1.0000 0.111207613
H   H21       1.0  0.20920  0.01570  0.74390  1.0000 0.111207613
H   H22       1.0  0.38520  0.09990  0.83390  1.0000 0.1348238922
H   H23       1.0  0.28730  0.24410  0.06600  1.0000 0.1159660629
H   H24       1.0  0.10770  0.16410  0.97860  1.0000 0.111207613
C   C1        1.0  0.92160  0.86370  0.35410  1.0000 -0.0359646607
C   C2        1.0  0.93840  0.77740  0.31040  1.0000 -0.1287850639
C   C3        1.0  0.88820  0.67270  0.36410  1.0000 -0.0865254303
C   C4        1.0  0.82140  0.65140  0.46070  1.0000 0.0034475039
C   C5        1.0  0.80320  0.72860  0.50020  1.0000 -0.1003526114
C   C6        1.0  0.85200  0.83750  0.44790  1.0000 -0.1287850639
C   C7        1.0  0.76860  0.53920  0.52320  1.0000 0.5874898967
C   C8        1.0  0.13630  0.05790  0.35410  1.0000 -0.0359646607
C   C9        1.0  0.22260  0.16100  0.31040  1.0000 -0.1287850639
C   C10       1.0  0.32730  0.21550  0.36410  1.0000 -0.0865254303
C   C11       1.0  0.34860  0.17000  0.46070  1.0000 0.0034475039
C   C12       1.0  0.27140  0.07460  0.50020  1.0000 -0.1003526114
C   C13       1.0  0.16250  0.01450  0.44790  1.0000 -0.1287850639
C   C14       1.0  0.46080  0.22940  0.52320  1.0000 0.5874898967
C   C15       1.0  0.94210  0.07840  0.35410  1.0000 -0.0359646607
C   C16       1.0  0.83900  0.06160  0.31040  1.0000 -0.1287850639
C   C17       1.0  0.78450  0.11180  0.36410  1.0000 -0.0865254303
C   C18       1.0  0.83000  0.17860  0.46070  1.0000 0.0034475039
C   C19       1.0  0.92540  0.19680  0.50020  1.0000 -0.1003526114
C   C20       1.0  0.98550  0.14800  0.44790  1.0000 -0.1287850639
C   C21       1.0  0.77060  0.23140  0.52320  1.0000 0.5874898967
C   C22       1.0  0.94210  0.86370  0.85410  1.0000 -0.0359646607
C   C23       1.0  0.83900  0.77740  0.81040  1.0000 -0.1287850639
C   C24       1.0  0.78450  0.67270  0.86410  1.0000 -0.0865254303
C   C25       1.0  0.83000  0.65140  0.96070  1.0000 0.0034475039
C   C26       1.0  0.92540  0.72860  0.00020  1.0000 -0.1003526114
C   C27       1.0  0.98550  0.83750  0.94790  1.0000 -0.1287850639
C   C28       1.0  0.77060  0.53920  0.02320  1.0000 0.5874898967
C   C29       1.0  0.92160  0.05790  0.85410  1.0000 -0.0359646607
C   C30       1.0  0.93840  0.16100  0.81040  1.0000 -0.1287850639
C   C31       1.0  0.88820  0.21550  0.86410  1.0000 -0.0865254303
C   C32       1.0  0.82140  0.17000  0.96070  1.0000 0.0034475039
C   C33       1.0  0.80320  0.07460  0.00020  1.0000 -0.1003526114
C   C34       1.0  0.85200  0.01450  0.94790  1.0000 -0.1287850639
C   C35       1.0  0.76860  0.22940  0.02320  1.0000 0.5874898967
C   C36       1.0  0.13630  0.07840  0.85410  1.0000 -0.0359646607
C   C37       1.0  0.22260  0.06160  0.81040  1.0000 -0.1287850639
C   C38       1.0  0.32730  0.11180  0.86410  1.0000 -0.0865254303
C   C39       1.0  0.34860  0.17860  0.96070  1.0000 0.0034475039
C   C40       1.0  0.27140  0.19680  0.00020  1.0000 -0.1003526114
C   C41       1.0  0.16250  0.14800  0.94790  1.0000 -0.1287850639
C   C42       1.0  0.46080  0.23140  0.02320  1.0000 0.5874898967
O   O1        1.0  0.79450  0.46230  0.49410  1.0000 -0.6555137598
O   O2        1.0  0.71110  0.52580  0.61170  1.0000 -0.6364337368
O   O3        1.0  0.53770  0.33220  0.49410  1.0000 -0.6555137598
O   O4        1.0  0.47420  0.18530  0.61170  1.0000 -0.6364337368
O   O5        1.0  0.66780  0.20550  0.49410  1.0000 -0.6555137598
O   O6        1.0  0.81470  0.28890  0.61170  1.0000 -0.6364337368
O   O7        1.0  0.66780  0.46230  0.99410  1.0000 -0.6555137598
O   O8        1.0  0.81470  0.52580  0.11170  1.0000 -0.6364337368
O   O9        1.0  0.79450  0.33220  0.99410  1.0000 -0.6555137598
O   O10       1.0  0.71110  0.18530  0.11170  1.0000 -0.6364337368
O   O11       1.0  0.53770  0.20550  0.99410  1.0000 -0.6544305645
O   O12       1.0  0.47420  0.28890  0.11170  1.0000 -0.6364337368
