# DDEC6 charges by PACMAN v1.1 (https://github.com/mtap-research/PACMAN-charge/)
data_2017[Co][nan]3[ASR]22
_chemical_formula_sum              "Co6 H6 C24 O18"
_cell_length_a       6.86855
_cell_length_b       15.1048
_cell_length_c       15.1048
_cell_angle_alpha    117.745
_cell_angle_beta     98.7182
_cell_angle_gamma    98.7182

_symmetry_space_group_name_H-M    "P 1"
_symmetry_Int_Tables_number       1

loop_
  _symmetry_equiv_pos_as_xyz
  'x, y, z'

loop_
  _atom_site_type_symbol
  _atom_site_label
  _atom_site_symmetry_multiplicity
  _atom_site_fract_x
  _atom_site_fract_y
  _atom_site_fract_z
  _atom_site_occupancy
  _atom_site_charge
Co  Co1       1.0  0.52562  0.41195  0.73505  1.0000 1.0074505966
Co  Co2       1.0  0.79057  0.26495  0.67690  1.0000 1.0074505966
Co  Co3       1.0  0.11367  0.32310  0.58805  1.0000 1.0074505966
Co  Co4       1.0  0.47438  0.58805  0.26495  1.0000 1.0074505966
Co  Co5       1.0  0.20943  0.73505  0.32310  1.0000 1.0074505966
Co  Co6       1.0  0.88633  0.67690  0.41195  1.0000 1.0074505966
H   H1        1.0  0.34950  0.55130  0.02080  1.0000 0.1465753924
H   H2        1.0  0.32870  0.97920  0.53050  1.0000 0.1465753924
H   H3        1.0  0.79820  0.46950  0.44870  1.0000 0.1465753924
H   H4        1.0  0.65050  0.44870  0.97920  1.0000 0.1465753924
H   H5        1.0  0.67130  0.02080  0.46950  1.0000 0.1465753924
H   H6        1.0  0.20180  0.53050  0.55130  1.0000 0.1465753924
C   C1        1.0  0.86729  0.43373  0.89924  1.0000 0.2947839261
C   C2        1.0  0.96805  0.10076  0.53449  1.0000 0.2947839261
C   C3        1.0  0.43356  0.46551  0.56627  1.0000 0.2947839261
C   C4        1.0  0.13271  0.56627  0.10076  1.0000 0.2947839261
C   C5        1.0  0.03195  0.89924  0.46551  1.0000 0.2947839261
C   C6        1.0  0.56644  0.53449  0.43373  1.0000 0.2947839261
C   C7        1.0  0.07997  0.46534  0.91287  1.0000 -0.1336799154
C   C8        1.0  0.16710  0.08713  0.55247  1.0000 -0.1336799154
C   C9        1.0  0.61463  0.44753  0.53466  1.0000 -0.1336799154
C   C10       1.0  0.92003  0.53466  0.08713  1.0000 -0.1336799154
C   C11       1.0  0.83290  0.91287  0.44753  1.0000 -0.1336799154
C   C12       1.0  0.38537  0.55247  0.46534  1.0000 -0.1336799154
C   C13       1.0  0.20725  0.53063  0.01282  1.0000 -0.2082289943
C   C14       1.0  0.19443  0.98718  0.51781  1.0000 -0.2082289943
C   C15       1.0  0.67662  0.48219  0.46937  1.0000 -0.2082289943
C   C16       1.0  0.79275  0.46937  0.98718  1.0000 -0.2082289943
C   C17       1.0  0.80557  0.01282  0.48219  1.0000 -0.2082289943
C   C18       1.0  0.32338  0.51781  0.53063  1.0000 -0.2082289943
C   C19       1.0  0.17971  0.43510  0.82533  1.0000 0.644222494
C   C20       1.0  0.35438  0.17467  0.60977  1.0000 0.644222494
C   C21       1.0  0.74461  0.39023  0.56490  1.0000 0.644222494
C   C22       1.0  0.82029  0.56490  0.17467  1.0000 0.644222494
C   C23       1.0  0.64562  0.82533  0.39023  1.0000 0.644222494
C   C24       1.0  0.25539  0.60977  0.43510  1.0000 0.644222494
O   O1        1.0  0.73118  0.37018  0.80676  1.0000 -0.6266000707
O   O2        1.0  0.92442  0.19324  0.56342  1.0000 -0.6266000707
O   O3        1.0  0.36100  0.43658  0.62982  1.0000 -0.6266000707
O   O4        1.0  0.26882  0.62982  0.19324  1.0000 -0.6266000707
O   O5        1.0  0.07558  0.80676  0.43658  1.0000 -0.6266000707
O   O6        1.0  0.63900  0.56342  0.37018  1.0000 -0.6266000707
O   O7        1.0  0.06655  0.37696  0.73479  1.0000 -0.5937786538
O   O8        1.0  0.33176  0.26521  0.64217  1.0000 -0.5937786538
O   O9        1.0  0.68959  0.35783  0.62304  1.0000 -0.5937786538
O   O10       1.0  0.93345  0.62304  0.26521  1.0000 -0.5937786538
O   O11       1.0  0.66824  0.73479  0.35783  1.0000 -0.5937786538
O   O12       1.0  0.31041  0.64217  0.37696  1.0000 -0.5937786538
O   O13       1.0  0.36894  0.46893  0.84289  1.0000 -0.530744775
O   O14       1.0  0.52605  0.15711  0.62604  1.0000 -0.530744775
O   O15       1.0  0.90001  0.37396  0.53107  1.0000 -0.530744775
O   O16       1.0  0.63106  0.53107  0.15711  1.0000 -0.530744775
O   O17       1.0  0.47395  0.84289  0.37396  1.0000 -0.530744775
O   O18       1.0  0.09999  0.62604  0.46893  1.0000 -0.530744775
