# DDEC6 charges by PACMAN v1.1 (https://github.com/mtap-research/PACMAN-charge/)
data_2017[Cd][nan]3[ASR]2
_chemical_formula_sum              "Cd6 H6 C24 O18"
_cell_length_a       15.7102
_cell_length_b       15.7102
_cell_length_c       15.7102
_cell_angle_alpha    117.685
_cell_angle_beta     117.685
_cell_angle_gamma    117.685

_symmetry_space_group_name_H-M    "P 1"
_symmetry_Int_Tables_number       1

loop_
  _symmetry_equiv_pos_as_xyz
  'x, y, z'

loop_
  _atom_site_type_symbol
  _atom_site_label
  _atom_site_symmetry_multiplicity
  _atom_site_fract_x
  _atom_site_fract_y
  _atom_site_fract_z
  _atom_site_occupancy
  _atom_site_charge
Cd  Cd1       1.0  0.78260  0.52660  0.09776  1.0000 1.0557963398
Cd  Cd2       1.0  0.52660  0.09776  0.78260  1.0000 1.0557963398
Cd  Cd3       1.0  0.09776  0.78260  0.52660  1.0000 1.0557963398
Cd  Cd4       1.0  0.21740  0.47340  0.90224  1.0000 1.0538512019
Cd  Cd5       1.0  0.47340  0.90224  0.21740  1.0000 1.0557963398
Cd  Cd6       1.0  0.90224  0.21740  0.47340  1.0000 1.0538512019
H   H1        1.0  0.30858  0.32626  0.78501  1.0000 0.14896965
H   H2        1.0  0.32626  0.78501  0.30858  1.0000 0.14896965
H   H3        1.0  0.78501  0.30858  0.32626  1.0000 0.14896965
H   H4        1.0  0.69142  0.67374  0.21499  1.0000 0.14896965
H   H5        1.0  0.67374  0.21499  0.69142  1.0000 0.14896965
H   H6        1.0  0.21499  0.69142  0.67374  1.0000 0.14896965
C   C1        1.0  0.33970  0.16920  0.73250  1.0000 0.6321787186
C   C2        1.0  0.16920  0.73250  0.33970  1.0000 0.6321787186
C   C3        1.0  0.73250  0.33970  0.16920  1.0000 0.6321787186
C   C4        1.0  0.66030  0.83080  0.26750  1.0000 0.6321787186
C   C5        1.0  0.83080  0.26750  0.66030  1.0000 0.6321787186
C   C6        1.0  0.26750  0.66030  0.83080  1.0000 0.6321787186
C   C7        1.0  0.15790  0.07230  0.60740  1.0000 -0.1346975717
C   C8        1.0  0.07230  0.60740  0.15790  1.0000 -0.1355769637
C   C9        1.0  0.60740  0.15790  0.07230  1.0000 -0.1355769637
C   C10       1.0  0.84210  0.92770  0.39260  1.0000 -0.1346975717
C   C11       1.0  0.92770  0.39260  0.84210  1.0000 -0.1346975717
C   C12       1.0  0.39260  0.84210  0.92770  1.0000 -0.1346975717
C   C13       1.0  0.18280  0.19380  0.66890  1.0000 -0.2208019572
C   C14       1.0  0.19380  0.66890  0.18280  1.0000 -0.2208019572
C   C15       1.0  0.66890  0.18280  0.19380  1.0000 -0.2208019572
C   C16       1.0  0.81720  0.80620  0.33110  1.0000 -0.2208019572
C   C17       1.0  0.80620  0.33110  0.81720  1.0000 -0.2208019572
C   C18       1.0  0.33110  0.81720  0.80620  1.0000 -0.2208019572
C   C19       1.0  0.03370  0.13050  0.56930  1.0000 0.2809772141
C   C20       1.0  0.13050  0.56930  0.03370  1.0000 0.2809772141
C   C21       1.0  0.56930  0.03370  0.13050  1.0000 0.2809772141
C   C22       1.0  0.96630  0.86950  0.43070  1.0000 0.2809772141
C   C23       1.0  0.86950  0.43070  0.96630  1.0000 0.2809772141
C   C24       1.0  0.43070  0.96630  0.86950  1.0000 0.2809772141
O   O1        1.0  0.32648  0.06762  0.68350  1.0000 -0.6070394767
O   O2        1.0  0.06762  0.68350  0.32648  1.0000 -0.6070394767
O   O3        1.0  0.68350  0.32648  0.06762  1.0000 -0.6070394767
O   O4        1.0  0.67352  0.93238  0.31650  1.0000 -0.6070394767
O   O5        1.0  0.93238  0.31650  0.67352  1.0000 -0.6070394767
O   O6        1.0  0.31650  0.67352  0.93238  1.0000 -0.6070394767
O   O7        1.0  0.49510  0.34630  0.87430  1.0000 -0.5225598765
O   O8        1.0  0.34630  0.87430  0.49510  1.0000 -0.5225598765
O   O9        1.0  0.87430  0.49510  0.34630  1.0000 -0.5225598765
O   O10       1.0  0.50490  0.65370  0.12570  1.0000 -0.5225598765
O   O11       1.0  0.65370  0.12570  0.50490  1.0000 -0.5225598765
O   O12       1.0  0.12570  0.50490  0.65370  1.0000 -0.5225598765
O   O13       1.0  0.07932  0.26338  0.64310  1.0000 -0.6318815304
O   O14       1.0  0.26338  0.64310  0.07932  1.0000 -0.6318815304
O   O15       1.0  0.64310  0.07932  0.26338  1.0000 -0.6318815304
O   O16       1.0  0.92068  0.73662  0.35690  1.0000 -0.6318815304
O   O17       1.0  0.73662  0.35690  0.92068  1.0000 -0.6318815304
O   O18       1.0  0.35690  0.92068  0.73662  1.0000 -0.6318815304
