# DDEC6 charges by PACMAN v1.1 (https://github.com/mtap-research/PACMAN-charge/)
data_2017[Zr][nan]3[ASR]2
_chemical_formula_sum              "Zr12 H48 C128 O48 F48"
_cell_length_a       24.257
_cell_length_b       24.257
_cell_length_c       15.025
_cell_angle_alpha    90
_cell_angle_beta     90
_cell_angle_gamma    90

_symmetry_space_group_name_H-M    "P 1"
_symmetry_Int_Tables_number       1

loop_
  _symmetry_equiv_pos_as_xyz
  'x, y, z'

loop_
  _atom_site_type_symbol
  _atom_site_label
  _atom_site_symmetry_multiplicity
  _atom_site_fract_x
  _atom_site_fract_y
  _atom_site_fract_z
  _atom_site_occupancy
  _atom_site_charge
Zr  Zr1       1.0  0.00000  0.39963  0.00000  1.0000 2.3698790253
Zr  Zr2       1.0  0.39963  0.00000  0.50000  1.0000 2.3698790253
Zr  Zr3       1.0  0.00000  0.60037  0.00000  1.0000 2.3698790253
Zr  Zr4       1.0  0.60037  0.00000  0.50000  1.0000 2.3698790253
Zr  Zr5       1.0  0.07268  0.50000  0.11689  1.0000 2.4805996001
Zr  Zr6       1.0  0.50000  0.92732  0.61689  1.0000 2.4805996001
Zr  Zr7       1.0  0.92732  0.50000  0.11689  1.0000 2.4805996001
Zr  Zr8       1.0  0.50000  0.07268  0.61689  1.0000 2.4805996001
Zr  Zr9       1.0  0.92732  0.50000  0.88311  1.0000 2.4805996001
Zr  Zr10      1.0  0.07268  0.50000  0.88311  1.0000 2.4805996001
Zr  Zr11      1.0  0.50000  0.07268  0.38311  1.0000 2.4805996001
Zr  Zr12      1.0  0.50000  0.92732  0.38311  1.0000 2.4805996001
H   H1        1.0  0.10430  0.26310  0.08840  1.0000 0.1082405735
H   H2        1.0  0.26310  0.89570  0.58840  1.0000 0.1082405735
H   H3        1.0  0.89570  0.73690  0.08840  1.0000 0.1082405735
H   H4        1.0  0.73690  0.10430  0.58840  1.0000 0.1082405735
H   H5        1.0  0.89570  0.26310  0.91160  1.0000 0.1082405735
H   H6        1.0  0.10430  0.73690  0.91160  1.0000 0.1082405735
H   H7        1.0  0.26310  0.10430  0.41160  1.0000 0.1082405735
H   H8        1.0  0.73690  0.89570  0.41160  1.0000 0.1082405735
H   H9        1.0  0.89570  0.73690  0.91160  1.0000 0.1082405735
H   H10       1.0  0.73690  0.10430  0.41160  1.0000 0.1082405735
H   H11       1.0  0.10430  0.26310  0.91160  1.0000 0.1082405735
H   H12       1.0  0.26310  0.89570  0.41160  1.0000 0.1082405735
H   H13       1.0  0.10430  0.73690  0.08840  1.0000 0.1082405735
H   H14       1.0  0.89570  0.26310  0.08840  1.0000 0.1082405735
H   H15       1.0  0.73690  0.89570  0.58840  1.0000 0.1082405735
H   H16       1.0  0.26310  0.10430  0.58840  1.0000 0.1082405735
H   H17       1.0  0.16480  0.37000  0.27000  1.0000 0.1045762008
H   H18       1.0  0.37000  0.83520  0.77000  1.0000 0.1045762008
H   H19       1.0  0.83520  0.63000  0.27000  1.0000 0.1045762008
H   H20       1.0  0.63000  0.16480  0.77000  1.0000 0.1045762008
H   H21       1.0  0.83520  0.37000  0.73000  1.0000 0.1045762008
H   H22       1.0  0.16480  0.63000  0.73000  1.0000 0.1045762008
H   H23       1.0  0.37000  0.16480  0.23000  1.0000 0.1082405735
H   H24       1.0  0.63000  0.83520  0.23000  1.0000 0.1082405735
H   H25       1.0  0.83520  0.63000  0.73000  1.0000 0.1045762008
H   H26       1.0  0.63000  0.16480  0.23000  1.0000 0.1082405735
H   H27       1.0  0.16480  0.37000  0.73000  1.0000 0.1045762008
H   H28       1.0  0.37000  0.83520  0.23000  1.0000 0.1082405735
H   H29       1.0  0.16480  0.63000  0.27000  1.0000 0.1045762008
H   H30       1.0  0.83520  0.37000  0.27000  1.0000 0.1045762008
H   H31       1.0  0.63000  0.83520  0.77000  1.0000 0.1045762008
H   H32       1.0  0.37000  0.16480  0.77000  1.0000 0.1045762008
H   H33       1.0  0.22740  0.30250  0.31950  1.0000 0.1240079117
H   H34       1.0  0.30250  0.77260  0.81950  1.0000 0.1240079117
H   H35       1.0  0.77260  0.69750  0.31950  1.0000 0.1240079117
H   H36       1.0  0.69750  0.22740  0.81950  1.0000 0.1240079117
H   H37       1.0  0.77260  0.30250  0.68050  1.0000 0.1240079117
H   H38       1.0  0.22740  0.69750  0.68050  1.0000 0.1240079117
H   H39       1.0  0.30250  0.22740  0.18050  1.0000 0.1240079117
H   H40       1.0  0.69750  0.77260  0.18050  1.0000 0.1240079117
H   H41       1.0  0.77260  0.69750  0.68050  1.0000 0.1240079117
H   H42       1.0  0.69750  0.22740  0.18050  1.0000 0.1240079117
H   H43       1.0  0.22740  0.30250  0.68050  1.0000 0.1240079117
H   H44       1.0  0.30250  0.77260  0.18050  1.0000 0.1240079117
H   H45       1.0  0.22740  0.69750  0.31950  1.0000 0.1240079117
H   H46       1.0  0.77260  0.30250  0.31950  1.0000 0.1240079117
H   H47       1.0  0.69750  0.77260  0.81950  1.0000 0.1240079117
H   H48       1.0  0.30250  0.22740  0.81950  1.0000 0.1240079117
C   C1        1.0  0.09300  0.36660  0.13930  1.0000 0.6309546412
C   C2        1.0  0.36660  0.90700  0.63930  1.0000 0.6309546412
C   C3        1.0  0.90700  0.63340  0.13930  1.0000 0.6309546412
C   C4        1.0  0.63340  0.09300  0.63930  1.0000 0.6309546412
C   C5        1.0  0.90700  0.36660  0.86070  1.0000 0.6309546412
C   C6        1.0  0.09300  0.63340  0.86070  1.0000 0.6309546412
C   C7        1.0  0.36660  0.09300  0.36070  1.0000 0.6309546412
C   C8        1.0  0.63340  0.90700  0.36070  1.0000 0.6309546412
C   C9        1.0  0.90700  0.63340  0.86070  1.0000 0.6309546412
C   C10       1.0  0.63340  0.09300  0.36070  1.0000 0.6309546412
C   C11       1.0  0.09300  0.36660  0.86070  1.0000 0.6309546412
C   C12       1.0  0.36660  0.90700  0.36070  1.0000 0.6309546412
C   C13       1.0  0.09300  0.63340  0.13930  1.0000 0.6309546412
C   C14       1.0  0.90700  0.36660  0.13930  1.0000 0.6309546412
C   C15       1.0  0.63340  0.90700  0.63930  1.0000 0.6309546412
C   C16       1.0  0.36660  0.09300  0.63930  1.0000 0.6309546412
C   C17       1.0  0.12870  0.32300  0.17440  1.0000 -0.057292816
C   C18       1.0  0.32300  0.87130  0.67440  1.0000 -0.057292816
C   C19       1.0  0.87130  0.67700  0.17440  1.0000 -0.057292816
C   C20       1.0  0.67700  0.12870  0.67440  1.0000 -0.057292816
C   C21       1.0  0.87130  0.32300  0.82560  1.0000 -0.057292816
C   C22       1.0  0.12870  0.67700  0.82560  1.0000 -0.057292816
C   C23       1.0  0.32300  0.12870  0.32560  1.0000 -0.057292816
C   C24       1.0  0.67700  0.87130  0.32560  1.0000 -0.057292816
C   C25       1.0  0.87130  0.67700  0.82560  1.0000 -0.057292816
C   C26       1.0  0.67700  0.12870  0.32560  1.0000 -0.057292816
C   C27       1.0  0.12870  0.32300  0.82560  1.0000 -0.057292816
C   C28       1.0  0.32300  0.87130  0.32560  1.0000 -0.057292816
C   C29       1.0  0.12870  0.67700  0.17440  1.0000 -0.057292816
C   C30       1.0  0.87130  0.32300  0.17440  1.0000 -0.057292816
C   C31       1.0  0.67700  0.87130  0.67440  1.0000 -0.057292816
C   C32       1.0  0.32300  0.12870  0.67440  1.0000 -0.057292816
C   C33       1.0  0.12930  0.27110  0.13530  1.0000 -0.1054944505
C   C34       1.0  0.27110  0.87070  0.63530  1.0000 -0.1054944505
C   C35       1.0  0.87070  0.72890  0.13530  1.0000 -0.1054944505
C   C36       1.0  0.72890  0.12930  0.63530  1.0000 -0.1054944505
C   C37       1.0  0.87070  0.27110  0.86470  1.0000 -0.1054944505
C   C38       1.0  0.12930  0.72890  0.86470  1.0000 -0.1054944505
C   C39       1.0  0.27110  0.12930  0.36470  1.0000 -0.1054944505
C   C40       1.0  0.72890  0.87070  0.36470  1.0000 -0.1054944505
C   C41       1.0  0.87070  0.72890  0.86470  1.0000 -0.1054944505
C   C42       1.0  0.72890  0.12930  0.36470  1.0000 -0.1054944505
C   C43       1.0  0.12930  0.27110  0.86470  1.0000 -0.1054944505
C   C44       1.0  0.27110  0.87070  0.36470  1.0000 -0.1054944505
C   C45       1.0  0.12930  0.72890  0.13530  1.0000 -0.1054944505
C   C46       1.0  0.87070  0.27110  0.13530  1.0000 -0.1054944505
C   C47       1.0  0.72890  0.87070  0.63530  1.0000 -0.1054944505
C   C48       1.0  0.27110  0.12930  0.63530  1.0000 -0.1054944505
C   C49       1.0  0.16640  0.23030  0.16400  1.0000 -0.1486355707
C   C50       1.0  0.23030  0.83360  0.66400  1.0000 -0.1486355707
C   C51       1.0  0.83360  0.76970  0.16400  1.0000 -0.1486355707
C   C52       1.0  0.76970  0.16640  0.66400  1.0000 -0.1486355707
C   C53       1.0  0.83360  0.23030  0.83600  1.0000 -0.1486355707
C   C54       1.0  0.16640  0.76970  0.83600  1.0000 -0.1486355707
C   C55       1.0  0.23030  0.16640  0.33600  1.0000 -0.1486355707
C   C56       1.0  0.76970  0.83360  0.33600  1.0000 -0.1486355707
C   C57       1.0  0.83360  0.76970  0.83600  1.0000 -0.1486355707
C   C58       1.0  0.76970  0.16640  0.33600  1.0000 -0.1486355707
C   C59       1.0  0.16640  0.23030  0.83600  1.0000 -0.1486355707
C   C60       1.0  0.23030  0.83360  0.33600  1.0000 -0.1486355707
C   C61       1.0  0.16640  0.76970  0.16400  1.0000 -0.1486355707
C   C62       1.0  0.83360  0.23030  0.16400  1.0000 -0.1486355707
C   C63       1.0  0.76970  0.83360  0.66400  1.0000 -0.1486355707
C   C64       1.0  0.23030  0.16640  0.66400  1.0000 -0.1486355707
C   C65       1.0  0.16510  0.33460  0.24290  1.0000 -0.080668828
C   C66       1.0  0.33460  0.83490  0.74290  1.0000 -0.080668828
C   C67       1.0  0.83490  0.66540  0.24290  1.0000 -0.080668828
C   C68       1.0  0.66540  0.16510  0.74290  1.0000 -0.080668828
C   C69       1.0  0.83490  0.33460  0.75710  1.0000 -0.080668828
C   C70       1.0  0.16510  0.66540  0.75710  1.0000 -0.080668828
C   C71       1.0  0.33460  0.16510  0.25710  1.0000 -0.080668828
C   C72       1.0  0.66540  0.83490  0.25710  1.0000 -0.080668828
C   C73       1.0  0.83490  0.66540  0.75710  1.0000 -0.080668828
C   C74       1.0  0.66540  0.16510  0.25710  1.0000 -0.080668828
C   C75       1.0  0.16510  0.33460  0.75710  1.0000 -0.080668828
C   C76       1.0  0.33460  0.83490  0.25710  1.0000 -0.080668828
C   C77       1.0  0.16510  0.66540  0.24290  1.0000 -0.080668828
C   C78       1.0  0.83490  0.33460  0.24290  1.0000 -0.080668828
C   C79       1.0  0.66540  0.83490  0.74290  1.0000 -0.080668828
C   C80       1.0  0.33460  0.16510  0.74290  1.0000 -0.080668828
C   C81       1.0  0.20300  0.24320  0.23310  1.0000 0.0616471425
C   C82       1.0  0.24320  0.79700  0.73310  1.0000 0.0616471425
C   C83       1.0  0.79700  0.75680  0.23310  1.0000 0.0616471425
C   C84       1.0  0.75680  0.20300  0.73310  1.0000 0.0616471425
C   C85       1.0  0.79700  0.24320  0.76690  1.0000 0.0616471425
C   C86       1.0  0.20300  0.75680  0.76690  1.0000 0.0616471425
C   C87       1.0  0.24320  0.20300  0.26690  1.0000 0.0616471425
C   C88       1.0  0.75680  0.79700  0.26690  1.0000 0.0616471425
C   C89       1.0  0.79700  0.75680  0.76690  1.0000 0.0616471425
C   C90       1.0  0.75680  0.20300  0.26690  1.0000 0.0616471425
C   C91       1.0  0.20300  0.24320  0.76690  1.0000 0.0616471425
C   C92       1.0  0.24320  0.79700  0.26690  1.0000 0.0616471425
C   C93       1.0  0.20300  0.75680  0.23310  1.0000 0.0616471425
C   C94       1.0  0.79700  0.24320  0.23310  1.0000 0.0616471425
C   C95       1.0  0.75680  0.79700  0.73310  1.0000 0.0616471425
C   C96       1.0  0.24320  0.20300  0.73310  1.0000 0.0616471425
C   C97       1.0  0.20250  0.29440  0.27250  1.0000 -0.1486355707
C   C98       1.0  0.29440  0.79750  0.77250  1.0000 -0.1486355707
C   C99       1.0  0.79750  0.70560  0.27250  1.0000 -0.1486355707
C   C100      1.0  0.70560  0.20250  0.77250  1.0000 -0.1486355707
C   C101      1.0  0.79750  0.29440  0.72750  1.0000 -0.1486355707
C   C102      1.0  0.20250  0.70560  0.72750  1.0000 -0.1486355707
C   C103      1.0  0.29440  0.20250  0.22750  1.0000 -0.1486355707
C   C104      1.0  0.70560  0.79750  0.22750  1.0000 -0.1486355707
C   C105      1.0  0.79750  0.70560  0.72750  1.0000 -0.1486355707
C   C106      1.0  0.70560  0.20250  0.22750  1.0000 -0.1486355707
C   C107      1.0  0.20250  0.29440  0.72750  1.0000 -0.1486355707
C   C108      1.0  0.29440  0.79750  0.22750  1.0000 -0.1486355707
C   C109      1.0  0.20250  0.70560  0.27250  1.0000 -0.1486355707
C   C110      1.0  0.79750  0.29440  0.27250  1.0000 -0.1486355707
C   C111      1.0  0.70560  0.79750  0.77250  1.0000 -0.1486355707
C   C112      1.0  0.29440  0.20250  0.77250  1.0000 -0.1486355707
C   C113      1.0  0.16320  0.17540  0.11470  1.0000 0.6022001089
C   C114      1.0  0.17540  0.83680  0.61470  1.0000 0.6022001089
C   C115      1.0  0.83680  0.82460  0.11470  1.0000 0.6022001089
C   C116      1.0  0.82460  0.16320  0.61470  1.0000 0.6022001089
C   C117      1.0  0.83680  0.17540  0.88530  1.0000 0.6022001089
C   C118      1.0  0.16320  0.82460  0.88530  1.0000 0.6022001089
C   C119      1.0  0.17540  0.16320  0.38530  1.0000 0.6022001089
C   C120      1.0  0.82460  0.83680  0.38530  1.0000 0.6022001089
C   C121      1.0  0.83680  0.82460  0.88530  1.0000 0.6022001089
C   C122      1.0  0.82460  0.16320  0.38530  1.0000 0.6022001089
C   C123      1.0  0.16320  0.17540  0.88530  1.0000 0.6022001089
C   C124      1.0  0.17540  0.83680  0.38530  1.0000 0.6022001089
C   C125      1.0  0.16320  0.82460  0.11470  1.0000 0.6022001089
C   C126      1.0  0.83680  0.17540  0.11470  1.0000 0.6022001089
C   C127      1.0  0.82460  0.83680  0.61470  1.0000 0.6022001089
C   C128      1.0  0.17540  0.16320  0.61470  1.0000 0.6022001089
O   O1        1.0  0.05427  0.35189  0.08650  1.0000 -0.5790468834
O   O2        1.0  0.35189  0.94573  0.58650  1.0000 -0.5790468834
O   O3        1.0  0.94573  0.64811  0.08650  1.0000 -0.5790468834
O   O4        1.0  0.64811  0.05427  0.58650  1.0000 -0.5790468834
O   O5        1.0  0.94573  0.35189  0.91350  1.0000 -0.5790468834
O   O6        1.0  0.05427  0.64811  0.91350  1.0000 -0.5790468834
O   O7        1.0  0.35189  0.05427  0.41350  1.0000 -0.5790468834
O   O8        1.0  0.64811  0.94573  0.41350  1.0000 -0.5790468834
O   O9        1.0  0.94573  0.64811  0.91350  1.0000 -0.5790468834
O   O10       1.0  0.64811  0.05427  0.41350  1.0000 -0.5790468834
O   O11       1.0  0.05427  0.35189  0.91350  1.0000 -0.5790468834
O   O12       1.0  0.35189  0.94573  0.41350  1.0000 -0.5790468834
O   O13       1.0  0.05427  0.64811  0.08650  1.0000 -0.5790468834
O   O14       1.0  0.94573  0.35189  0.08650  1.0000 -0.5790468834
O   O15       1.0  0.64811  0.94573  0.58650  1.0000 -0.5790468834
O   O16       1.0  0.35189  0.05427  0.58650  1.0000 -0.5790468834
O   O17       1.0  0.00000  0.45070  0.11600  1.0000 -1.1722375646
O   O18       1.0  0.45070  0.00000  0.61600  1.0000 -1.1722375646
O   O19       1.0  0.00000  0.54930  0.11600  1.0000 -1.1722375646
O   O20       1.0  0.54930  0.00000  0.61600  1.0000 -1.1722375646
O   O21       1.0  0.00000  0.45070  0.88400  1.0000 -1.1722375646
O   O22       1.0  0.00000  0.54930  0.88400  1.0000 -1.1722375646
O   O23       1.0  0.45070  0.00000  0.38400  1.0000 -1.1722375646
O   O24       1.0  0.54930  0.00000  0.38400  1.0000 -1.1722375646
O   O25       1.0  0.10280  0.41703  0.16450  1.0000 -0.635482949
O   O26       1.0  0.41703  0.89720  0.66450  1.0000 -0.635482949
O   O27       1.0  0.89720  0.58297  0.16450  1.0000 -0.635482949
O   O28       1.0  0.58297  0.10280  0.66450  1.0000 -0.635482949
O   O29       1.0  0.89720  0.41703  0.83550  1.0000 -0.635482949
O   O30       1.0  0.10280  0.58297  0.83550  1.0000 -0.635482949
O   O31       1.0  0.41703  0.10280  0.33550  1.0000 -0.635482949
O   O32       1.0  0.58297  0.89720  0.33550  1.0000 -0.635482949
O   O33       1.0  0.89720  0.58297  0.83550  1.0000 -0.635482949
O   O34       1.0  0.58297  0.10280  0.33550  1.0000 -0.635482949
O   O35       1.0  0.10280  0.41703  0.83550  1.0000 -0.635482949
O   O36       1.0  0.41703  0.89720  0.33550  1.0000 -0.635482949
O   O37       1.0  0.10280  0.58297  0.16450  1.0000 -0.635482949
O   O38       1.0  0.89720  0.41703  0.16450  1.0000 -0.635482949
O   O39       1.0  0.58297  0.89720  0.66450  1.0000 -0.635482949
O   O40       1.0  0.41703  0.10280  0.66450  1.0000 -0.635482949
O   O41       1.0  0.92720  0.45110  0.00000  1.0000 -1.1722375646
O   O42       1.0  0.45110  0.07280  0.50000  1.0000 -1.1722375646
O   O43       1.0  0.07280  0.54890  0.00000  1.0000 -1.1722375646
O   O44       1.0  0.54890  0.92720  0.50000  1.0000 -1.1722375646
O   O45       1.0  0.07280  0.45110  0.00000  1.0000 -1.1722375646
O   O46       1.0  0.92720  0.54890  0.00000  1.0000 -1.1722375646
O   O47       1.0  0.45110  0.92720  0.50000  1.0000 -1.1722375646
O   O48       1.0  0.54890  0.07280  0.50000  1.0000 -1.1722375646
F   F1        1.0  0.15120  0.13220  0.16670  1.0000 -0.223607118
F   F2        1.0  0.13220  0.84880  0.66667  1.0000 -0.223607118
F   F3        1.0  0.84880  0.86780  0.16670  1.0000 -0.223607118
F   F4        1.0  0.86780  0.15120  0.66667  1.0000 -0.223607118
F   F5        1.0  0.84880  0.13220  0.83330  1.0000 -0.223607118
F   F6        1.0  0.15120  0.86780  0.83330  1.0000 -0.223607118
F   F7        1.0  0.13220  0.15120  0.33333  1.0000 -0.223607118
F   F8        1.0  0.86780  0.84880  0.33333  1.0000 -0.223607118
F   F9        1.0  0.84880  0.86780  0.83330  1.0000 -0.223607118
F   F10       1.0  0.86780  0.15120  0.33333  1.0000 -0.223607118
F   F11       1.0  0.15120  0.13220  0.83330  1.0000 -0.223607118
F   F12       1.0  0.13220  0.84880  0.33333  1.0000 -0.223607118
F   F13       1.0  0.15120  0.86780  0.16670  1.0000 -0.223607118
F   F14       1.0  0.84880  0.13220  0.16670  1.0000 -0.223607118
F   F15       1.0  0.86780  0.84880  0.66667  1.0000 -0.223607118
F   F16       1.0  0.13220  0.15120  0.66667  1.0000 -0.223607118
F   F17       1.0  0.21050  0.16270  0.07340  1.0000 -0.2335416495
F   F18       1.0  0.16270  0.78950  0.57340  1.0000 -0.2335416495
F   F19       1.0  0.78950  0.83730  0.07340  1.0000 -0.2335416495
F   F20       1.0  0.83730  0.21050  0.57340  1.0000 -0.2335416495
F   F21       1.0  0.78950  0.16270  0.92660  1.0000 -0.2335416495
F   F22       1.0  0.21050  0.83730  0.92660  1.0000 -0.2335416495
F   F23       1.0  0.16270  0.21050  0.42660  1.0000 -0.2335416495
F   F24       1.0  0.83730  0.78950  0.42660  1.0000 -0.2335416495
F   F25       1.0  0.78950  0.83730  0.92660  1.0000 -0.2335416495
F   F26       1.0  0.83730  0.21050  0.42660  1.0000 -0.2335416495
F   F27       1.0  0.21050  0.16270  0.92660  1.0000 -0.2335416495
F   F28       1.0  0.16270  0.78950  0.42660  1.0000 -0.2335416495
F   F29       1.0  0.21050  0.83730  0.07340  1.0000 -0.2335416495
F   F30       1.0  0.78950  0.16270  0.07340  1.0000 -0.2335416495
F   F31       1.0  0.83730  0.78950  0.57340  1.0000 -0.2335416495
F   F32       1.0  0.16270  0.21050  0.57340  1.0000 -0.2335416495
F   F33       1.0  0.12440  0.17630  0.05130  1.0000 -0.080668828
F   F34       1.0  0.17630  0.87560  0.55130  1.0000 -0.080668828
F   F35       1.0  0.87560  0.82370  0.05130  1.0000 -0.080668828
F   F36       1.0  0.82370  0.12440  0.55130  1.0000 -0.080668828
F   F37       1.0  0.87560  0.17630  0.94870  1.0000 -0.080668828
F   F38       1.0  0.12440  0.82370  0.94870  1.0000 -0.080668828
F   F39       1.0  0.17630  0.12440  0.44870  1.0000 -0.080668828
F   F40       1.0  0.82370  0.87560  0.44870  1.0000 -0.080668828
F   F41       1.0  0.87560  0.82370  0.94870  1.0000 -0.080668828
F   F42       1.0  0.82370  0.12440  0.44870  1.0000 -0.080668828
F   F43       1.0  0.12440  0.17630  0.94870  1.0000 -0.080668828
F   F44       1.0  0.17630  0.87560  0.44870  1.0000 -0.080668828
F   F45       1.0  0.12440  0.82370  0.05130  1.0000 -0.080668828
F   F46       1.0  0.87560  0.17630  0.05130  1.0000 -0.080668828
F   F47       1.0  0.82370  0.87560  0.55130  1.0000 -0.080668828
F   F48       1.0  0.17630  0.12440  0.55130  1.0000 -0.080668828
