# DDEC6 charges by PACMAN v1.1 (https://github.com/mtap-research/PACMAN-charge/)
data_2017[Eu][dia]3[ASR]2
_chemical_formula_sum              "Eu8 C32 O64"
_cell_length_a       10.0532
_cell_length_b       17.7273
_cell_length_c       16.2386
_cell_angle_alpha    90
_cell_angle_beta     118.561
_cell_angle_gamma    90

_symmetry_space_group_name_H-M    "P 1"
_symmetry_Int_Tables_number       1

loop_
  _symmetry_equiv_pos_as_xyz
  'x, y, z'

loop_
  _atom_site_type_symbol
  _atom_site_label
  _atom_site_symmetry_multiplicity
  _atom_site_fract_x
  _atom_site_fract_y
  _atom_site_fract_z
  _atom_site_occupancy
  _atom_site_charge
Eu  Eu1       1.0  0.34036  0.12472  0.84365  1.0000 1.9770978248
Eu  Eu2       1.0  0.11061  0.84091  0.59200  1.0000 1.9625367081
Eu  Eu3       1.0  0.65964  0.62472  0.65635  1.0000 1.9770978248
Eu  Eu4       1.0  0.88939  0.34091  0.90800  1.0000 1.9625367081
Eu  Eu5       1.0  0.65964  0.87528  0.15635  1.0000 1.9770978248
Eu  Eu6       1.0  0.88939  0.15909  0.40800  1.0000 1.9625367081
Eu  Eu7       1.0  0.34036  0.37528  0.34365  1.0000 1.9770978248
Eu  Eu8       1.0  0.11061  0.65909  0.09200  1.0000 1.9625367081
C   C1        1.0  0.31020  0.95690  0.75700  1.0000 0.5397531769
C   C2        1.0  0.14460  0.98490  0.71950  1.0000 0.5473356402
C   C3        1.0  0.06390  0.23700  0.82080  1.0000 0.5473356402
C   C4        1.0  0.64950  0.20300  0.86430  1.0000 0.5729532993
C   C5        1.0  0.57560  0.02210  0.01820  1.0000 0.5473356402
C   C6        1.0  0.15880  0.22650  0.92730  1.0000 0.5581563568
C   C7        1.0  0.56850  0.26820  0.88390  1.0000 0.5581563568
C   C8        1.0  0.91680  0.98580  0.47800  1.0000 0.5397531769
C   C9        1.0  0.68980  0.45690  0.74300  1.0000 0.5397531769
C   C10       1.0  0.85540  0.48490  0.78050  1.0000 0.5473356402
C   C11       1.0  0.93610  0.73700  0.67920  1.0000 0.5473356402
C   C12       1.0  0.35050  0.70300  0.63570  1.0000 0.5729532993
C   C13       1.0  0.42440  0.52210  0.48180  1.0000 0.5473356402
C   C14       1.0  0.84120  0.72650  0.57270  1.0000 0.5581563568
C   C15       1.0  0.43150  0.76820  0.61610  1.0000 0.5581563568
C   C16       1.0  0.08320  0.48580  0.02200  1.0000 0.5397531769
C   C17       1.0  0.68980  0.04310  0.24300  1.0000 0.5397531769
C   C18       1.0  0.85540  0.01510  0.28050  1.0000 0.5473356402
C   C19       1.0  0.93610  0.76300  0.17920  1.0000 0.5473356402
C   C20       1.0  0.35050  0.79700  0.13570  1.0000 0.5729532993
C   C21       1.0  0.42440  0.97790  0.98180  1.0000 0.5473356402
C   C22       1.0  0.84120  0.77350  0.07270  1.0000 0.5581563568
C   C23       1.0  0.43150  0.73180  0.11610  1.0000 0.5581563568
C   C24       1.0  0.08320  0.01420  0.52200  1.0000 0.5397531769
C   C25       1.0  0.31020  0.54310  0.25700  1.0000 0.5397531769
C   C26       1.0  0.14460  0.51510  0.21950  1.0000 0.5473356402
C   C27       1.0  0.06390  0.26300  0.32080  1.0000 0.5473356402
C   C28       1.0  0.64950  0.29700  0.36430  1.0000 0.5755623138
C   C29       1.0  0.57560  0.47790  0.51820  1.0000 0.5473356402
C   C30       1.0  0.15880  0.27350  0.42730  1.0000 0.5581563568
C   C31       1.0  0.56850  0.23180  0.38390  1.0000 0.5581563568
C   C32       1.0  0.91680  0.51420  0.97800  1.0000 0.5397531769
O   O1        1.0  0.04280  0.93820  0.67290  1.0000 -0.5269665191
O   O2        1.0  0.32270  0.88860  0.74050  1.0000 -0.5183055972
O   O3        1.0  0.41260  0.00380  0.79790  1.0000 -0.5105705345
O   O4        1.0  0.12680  0.05100  0.73740  1.0000 -0.5269665191
O   O5        1.0  0.58000  0.14250  0.83960  1.0000 -0.4985499277
O   O6        1.0  0.44110  0.25470  0.87620  1.0000 -0.5381683205
O   O7        1.0  0.26850  0.18080  0.95510  1.0000 -0.5381683205
O   O8        1.0  0.10760  0.20210  0.77140  1.0000 -0.5183055972
O   O9        1.0  0.56370  0.08920  0.99070  1.0000 -0.5183055972
O   O10       1.0  0.89640  0.91650  0.47880  1.0000 -0.5183055972
O   O11       1.0  0.11970  0.26340  0.97740  1.0000 -0.5183055972
O   O12       1.0  0.77920  0.21680  0.87410  1.0000 -0.568507939
O   O13       1.0  0.69270  0.98730  0.07170  1.0000 -0.4985499277
O   O14       1.0  0.95230  0.28060  0.79360  1.0000 -0.5183055972
O   O15       1.0  0.63960  0.32940  0.90620  1.0000 -0.4985499277
O   O16       1.0  0.81650  0.03570  0.44240  1.0000 -0.5381683205
O   O17       1.0  0.95720  0.43820  0.82710  1.0000 -0.5269665191
O   O18       1.0  0.67730  0.38860  0.75950  1.0000 -0.5183055972
O   O19       1.0  0.58740  0.50380  0.70210  1.0000 -0.5105705345
O   O20       1.0  0.87320  0.55100  0.76260  1.0000 -0.5269665191
O   O21       1.0  0.42000  0.64250  0.66040  1.0000 -0.4985499277
O   O22       1.0  0.55890  0.75470  0.62380  1.0000 -0.5381683205
O   O23       1.0  0.73150  0.68080  0.54490  1.0000 -0.5381683205
O   O24       1.0  0.89240  0.70210  0.72860  1.0000 -0.5183055972
O   O25       1.0  0.43630  0.58920  0.50930  1.0000 -0.5183055972
O   O26       1.0  0.10360  0.41650  0.02120  1.0000 -0.5183055972
O   O27       1.0  0.88030  0.76340  0.52260  1.0000 -0.5183055972
O   O28       1.0  0.22080  0.71680  0.62590  1.0000 -0.568507939
O   O29       1.0  0.30730  0.48730  0.42830  1.0000 -0.4985499277
O   O30       1.0  0.04770  0.78060  0.70640  1.0000 -0.5183055972
O   O31       1.0  0.36040  0.82940  0.59380  1.0000 -0.4985499277
O   O32       1.0  0.18350  0.53570  0.05760  1.0000 -0.5381683205
O   O33       1.0  0.95720  0.06180  0.32710  1.0000 -0.5269665191
O   O34       1.0  0.67730  0.11140  0.25950  1.0000 -0.5183055972
O   O35       1.0  0.58740  0.99620  0.20210  1.0000 -0.5105705345
O   O36       1.0  0.87320  0.94900  0.26260  1.0000 -0.5269665191
O   O37       1.0  0.42000  0.85750  0.16040  1.0000 -0.4985499277
O   O38       1.0  0.55890  0.74530  0.12380  1.0000 -0.5381683205
O   O39       1.0  0.73150  0.81920  0.04490  1.0000 -0.5381683205
O   O40       1.0  0.89240  0.79790  0.22860  1.0000 -0.5183055972
O   O41       1.0  0.43630  0.91080  0.00930  1.0000 -0.5183055972
O   O42       1.0  0.10360  0.08350  0.52120  1.0000 -0.5183055972
O   O43       1.0  0.88030  0.73660  0.02260  1.0000 -0.5183055972
O   O44       1.0  0.22080  0.78320  0.12590  1.0000 -0.568507939
O   O45       1.0  0.30730  0.01270  0.92830  1.0000 -0.4985499277
O   O46       1.0  0.04770  0.71940  0.20640  1.0000 -0.5183055972
O   O47       1.0  0.36040  0.67060  0.09380  1.0000 -0.4985499277
O   O48       1.0  0.18350  0.96430  0.55760  1.0000 -0.5381683205
O   O49       1.0  0.04280  0.56180  0.17290  1.0000 -0.5269665191
O   O50       1.0  0.32270  0.61140  0.24050  1.0000 -0.5105705345
O   O51       1.0  0.41260  0.49620  0.29790  1.0000 -0.5105705345
O   O52       1.0  0.12680  0.44900  0.23740  1.0000 -0.5269665191
O   O53       1.0  0.58000  0.35750  0.33960  1.0000 -0.4985499277
O   O54       1.0  0.44110  0.24530  0.37620  1.0000 -0.5381683205
O   O55       1.0  0.26850  0.31920  0.45510  1.0000 -0.5381683205
O   O56       1.0  0.10760  0.29790  0.27140  1.0000 -0.5183055972
O   O57       1.0  0.56370  0.41080  0.49070  1.0000 -0.5183055972
O   O58       1.0  0.89640  0.58350  0.97880  1.0000 -0.5183055972
O   O59       1.0  0.11970  0.23660  0.47740  1.0000 -0.5183055972
O   O60       1.0  0.77920  0.28320  0.37410  1.0000 -0.568507939
O   O61       1.0  0.69270  0.51270  0.57170  1.0000 -0.4985499277
O   O62       1.0  0.95230  0.21940  0.29360  1.0000 -0.5183055972
O   O63       1.0  0.63960  0.17060  0.40620  1.0000 -0.4985499277
O   O64       1.0  0.81650  0.46430  0.94240  1.0000 -0.5381683205
