# DDEC6 charges by PACMAN v1.1 (https://github.com/mtap-research/PACMAN-charge/)
data_2017[Zr][scu]3[ASR]2
_chemical_formula_sum              "Zr6 H48 C80 N4 O24"
_cell_length_a       19.6041
_cell_length_b       19.6041
_cell_length_c       16.1805
_cell_angle_alpha    90
_cell_angle_beta     90
_cell_angle_gamma    136.88

_symmetry_space_group_name_H-M    "P 1"
_symmetry_Int_Tables_number       1

loop_
  _symmetry_equiv_pos_as_xyz
  'x, y, z'

loop_
  _atom_site_type_symbol
  _atom_site_label
  _atom_site_symmetry_multiplicity
  _atom_site_fract_x
  _atom_site_fract_y
  _atom_site_fract_z
  _atom_site_occupancy
  _atom_site_charge
Zr  Zr1       1.0  0.12206  0.12206  0.38998  1.0000 2.4501113483
Zr  Zr2       1.0  0.87794  0.87794  0.38998  1.0000 2.4501113483
Zr  Zr3       1.0  0.87794  0.87794  0.61002  1.0000 2.4501113483
Zr  Zr4       1.0  0.12206  0.12206  0.61002  1.0000 2.4501113483
Zr  Zr5       1.0  0.06601  0.93399  0.50000  1.0000 2.2939439603
Zr  Zr6       1.0  0.93399  0.06601  0.50000  1.0000 2.2939439603
H   H1        1.0  0.97040  0.57640  0.93910  1.0000 0.1105688705
H   H2        1.0  0.83310  0.63650  0.75220  1.0000 0.1105688705
H   H3        1.0  0.85690  0.55670  0.83370  1.0000 0.1105688705
H   H4        1.0  0.01240  0.47120  0.66610  1.0000 0.2829560602
H   H5        1.0  0.07790  0.77050  0.63650  1.0000 0.1201475656
H   H6        1.0  0.10920  0.69680  0.71200  1.0000 0.1105688705
H   H7        1.0  0.02960  0.42360  0.93910  1.0000 0.1105688705
H   H8        1.0  0.16690  0.36350  0.75220  1.0000 0.1105688705
H   H9        1.0  0.14310  0.44330  0.83370  1.0000 0.1105688705
H   H10       1.0  0.98760  0.52880  0.66610  1.0000 0.2829560602
H   H11       1.0  0.92210  0.22950  0.63650  1.0000 0.1201475656
H   H12       1.0  0.89080  0.30320  0.71200  1.0000 0.1105688705
H   H13       1.0  0.42360  0.02960  0.06090  1.0000 0.1105688705
H   H14       1.0  0.36350  0.16690  0.24780  1.0000 0.1105688705
H   H15       1.0  0.44330  0.14310  0.16630  1.0000 0.1105688705
H   H16       1.0  0.52880  0.98760  0.33390  1.0000 0.2829560602
H   H17       1.0  0.22950  0.92210  0.36350  1.0000 0.1201475656
H   H18       1.0  0.30320  0.89080  0.28800  1.0000 0.1105688705
H   H19       1.0  0.57640  0.97040  0.06090  1.0000 0.1105688705
H   H20       1.0  0.63650  0.83310  0.24780  1.0000 0.1105688705
H   H21       1.0  0.55670  0.85690  0.16630  1.0000 0.1105688705
H   H22       1.0  0.47120  0.01240  0.33390  1.0000 0.2829560602
H   H23       1.0  0.77050  0.07790  0.36350  1.0000 0.1201475656
H   H24       1.0  0.69680  0.10920  0.28800  1.0000 0.1105688705
H   H25       1.0  0.02960  0.42360  0.06090  1.0000 0.1105688705
H   H26       1.0  0.16690  0.36350  0.24780  1.0000 0.1105688705
H   H27       1.0  0.14310  0.44330  0.16630  1.0000 0.1105688705
H   H28       1.0  0.98760  0.52880  0.33390  1.0000 0.2829560602
H   H29       1.0  0.92210  0.22950  0.36350  1.0000 0.1201475656
H   H30       1.0  0.89080  0.30320  0.28800  1.0000 0.1105688705
H   H31       1.0  0.97040  0.57640  0.06090  1.0000 0.1105688705
H   H32       1.0  0.83310  0.63650  0.24780  1.0000 0.1105688705
H   H33       1.0  0.85690  0.55670  0.16630  1.0000 0.1105688705
H   H34       1.0  0.01240  0.47120  0.33390  1.0000 0.2829560602
H   H35       1.0  0.07790  0.77050  0.36350  1.0000 0.1201475656
H   H36       1.0  0.10920  0.69680  0.28800  1.0000 0.1105688705
H   H37       1.0  0.57640  0.97040  0.93910  1.0000 0.1105688705
H   H38       1.0  0.63650  0.83310  0.75220  1.0000 0.1105688705
H   H39       1.0  0.55670  0.85690  0.83370  1.0000 0.1105688705
H   H40       1.0  0.47120  0.01240  0.66610  1.0000 0.2829560602
H   H41       1.0  0.77050  0.07790  0.63650  1.0000 0.1201475656
H   H42       1.0  0.69680  0.10920  0.71200  1.0000 0.1105688705
H   H43       1.0  0.42360  0.02960  0.93910  1.0000 0.1105688705
H   H44       1.0  0.36350  0.16690  0.75220  1.0000 0.1105688705
H   H45       1.0  0.44330  0.14310  0.83370  1.0000 0.1105688705
H   H46       1.0  0.52880  0.98760  0.66610  1.0000 0.2829560602
H   H47       1.0  0.22950  0.92210  0.63650  1.0000 0.1201475656
H   H48       1.0  0.30320  0.89080  0.71200  1.0000 0.1105688705
C   C1        1.0  0.98230  0.54410  0.90940  1.0000 -0.2001099548
C   C2        1.0  0.95500  0.71500  0.69140  1.0000 -0.0375986496
C   C3        1.0  0.97200  0.60800  0.77740  1.0000 0.0619602601
C   C4        1.0  0.89040  0.65060  0.74390  1.0000 -0.099139517
C   C5        1.0  0.90280  0.59940  0.79040  1.0000 -0.136031635
C   C6        1.0  0.98060  0.54480  0.82460  1.0000 -0.0187083793
C   C7        1.0  0.03230  0.72590  0.67930  1.0000 -0.108698176
C   C8        1.0  0.05130  0.68170  0.71980  1.0000 -0.1828963364
C   C9        1.0  0.94820  0.77460  0.64150  1.0000 0.6359519326
C   C10       1.0  0.01770  0.45590  0.90940  1.0000 -0.2001099548
C   C11       1.0  0.04500  0.28500  0.69140  1.0000 -0.0375986496
C   C12       1.0  0.02800  0.39200  0.77740  1.0000 0.0619602601
C   C13       1.0  0.10960  0.34940  0.74390  1.0000 -0.099139517
C   C14       1.0  0.09720  0.40060  0.79040  1.0000 -0.136031635
C   C15       1.0  0.01940  0.45520  0.82460  1.0000 -0.0187083793
C   C16       1.0  0.96770  0.27410  0.67930  1.0000 -0.108698176
C   C17       1.0  0.94870  0.31830  0.71980  1.0000 -0.1828963364
C   C18       1.0  0.05180  0.22540  0.64150  1.0000 0.6359519326
C   C19       1.0  0.45590  0.01770  0.09060  1.0000 -0.2001099548
C   C20       1.0  0.28500  0.04500  0.30860  1.0000 -0.0375986496
C   C21       1.0  0.39200  0.02800  0.22260  1.0000 0.0619602601
C   C22       1.0  0.34940  0.10960  0.25610  1.0000 -0.099139517
C   C23       1.0  0.40060  0.09720  0.20960  1.0000 -0.136031635
C   C24       1.0  0.45520  0.01940  0.17540  1.0000 -0.0187083793
C   C25       1.0  0.27410  0.96770  0.32070  1.0000 -0.108698176
C   C26       1.0  0.31830  0.94870  0.28020  1.0000 -0.1828963364
C   C27       1.0  0.22540  0.05180  0.35850  1.0000 0.6359519326
C   C28       1.0  0.54410  0.98230  0.09060  1.0000 -0.2001099548
C   C29       1.0  0.71500  0.95500  0.30860  1.0000 -0.0375986496
C   C30       1.0  0.60800  0.97200  0.22260  1.0000 0.0619602601
C   C31       1.0  0.65060  0.89040  0.25610  1.0000 -0.099139517
C   C32       1.0  0.59940  0.90280  0.20960  1.0000 -0.136031635
C   C33       1.0  0.54480  0.98060  0.17540  1.0000 -0.0187083793
C   C34       1.0  0.72590  0.03230  0.32070  1.0000 -0.108698176
C   C35       1.0  0.68170  0.05130  0.28020  1.0000 -0.1828963364
C   C36       1.0  0.77460  0.94820  0.35850  1.0000 0.6359519326
C   C37       1.0  0.01770  0.45590  0.09060  1.0000 -0.2001099548
C   C38       1.0  0.04500  0.28500  0.30860  1.0000 -0.0375986496
C   C39       1.0  0.02800  0.39200  0.22260  1.0000 0.0619602601
C   C40       1.0  0.10960  0.34940  0.25610  1.0000 -0.099139517
C   C41       1.0  0.09720  0.40060  0.20960  1.0000 -0.136031635
C   C42       1.0  0.01940  0.45520  0.17540  1.0000 -0.0187083793
C   C43       1.0  0.96770  0.27410  0.32070  1.0000 -0.108698176
C   C44       1.0  0.94870  0.31830  0.28020  1.0000 -0.1828963364
C   C45       1.0  0.05180  0.22540  0.35850  1.0000 0.6359519326
C   C46       1.0  0.98230  0.54410  0.09060  1.0000 -0.2001099548
C   C47       1.0  0.95500  0.71500  0.30860  1.0000 -0.0375986496
C   C48       1.0  0.97200  0.60800  0.22260  1.0000 0.0619602601
C   C49       1.0  0.89040  0.65060  0.25610  1.0000 -0.099139517
C   C50       1.0  0.90280  0.59940  0.20960  1.0000 -0.136031635
C   C51       1.0  0.98060  0.54480  0.17540  1.0000 -0.0187083793
C   C52       1.0  0.03230  0.72590  0.32070  1.0000 -0.108698176
C   C53       1.0  0.05130  0.68170  0.28020  1.0000 -0.1828963364
C   C54       1.0  0.94820  0.77460  0.35850  1.0000 0.6359519326
C   C55       1.0  0.54410  0.98230  0.90940  1.0000 -0.2001099548
C   C56       1.0  0.71500  0.95500  0.69140  1.0000 -0.0375986496
C   C57       1.0  0.60800  0.97200  0.77740  1.0000 0.0619602601
C   C58       1.0  0.65060  0.89040  0.74390  1.0000 -0.099139517
C   C59       1.0  0.59940  0.90280  0.79040  1.0000 -0.136031635
C   C60       1.0  0.54480  0.98060  0.82460  1.0000 -0.0187083793
C   C61       1.0  0.72590  0.03230  0.67930  1.0000 -0.108698176
C   C62       1.0  0.68170  0.05130  0.71980  1.0000 -0.1828963364
C   C63       1.0  0.77460  0.94820  0.64150  1.0000 0.6359519326
C   C64       1.0  0.45590  0.01770  0.90940  1.0000 -0.2001099548
C   C65       1.0  0.28500  0.04500  0.69140  1.0000 -0.0375986496
C   C66       1.0  0.39200  0.02800  0.77740  1.0000 0.0619602601
C   C67       1.0  0.34940  0.10960  0.74390  1.0000 -0.099139517
C   C68       1.0  0.40060  0.09720  0.79040  1.0000 -0.136031635
C   C69       1.0  0.45520  0.01940  0.82460  1.0000 -0.0187083793
C   C70       1.0  0.27410  0.96770  0.67930  1.0000 -0.108698176
C   C71       1.0  0.31830  0.94870  0.71980  1.0000 -0.1828963364
C   C72       1.0  0.22540  0.05180  0.64150  1.0000 0.6359519326
C   C73       1.0  0.00000  0.50000  0.95180  1.0000 0.0619602601
C   C74       1.0  0.00000  0.50000  0.78070  1.0000 0.1548692772
C   C75       1.0  0.50000  0.00000  0.04820  1.0000 0.0546137208
C   C76       1.0  0.50000  0.00000  0.21930  1.0000 0.1553418079
C   C77       1.0  0.00000  0.50000  0.04820  1.0000 0.0619602601
C   C78       1.0  0.00000  0.50000  0.21930  1.0000 0.1548692772
C   C79       1.0  0.50000  0.00000  0.95180  1.0000 0.0619602601
C   C80       1.0  0.50000  0.00000  0.78070  1.0000 0.1553418079
N   N1        1.0  0.00000  0.50000  0.69330  1.0000 -0.5976378531
N   N2        1.0  0.50000  0.00000  0.30670  1.0000 -0.5976378531
N   N3        1.0  0.00000  0.50000  0.30670  1.0000 -0.5976378531
N   N4        1.0  0.50000  0.00000  0.69330  1.0000 -0.5976378531
O   O1        1.0  0.88420  0.77420  0.66230  1.0000 -0.6370963118
O   O2        1.0  0.01112  0.81808  0.58010  1.0000 -0.5976378531
O   O3        1.0  0.11580  0.22580  0.66230  1.0000 -0.6370963118
O   O4        1.0  0.98888  0.18192  0.58010  1.0000 -0.5976378531
O   O5        1.0  0.22580  0.11580  0.33770  1.0000 -0.6370963118
O   O6        1.0  0.18192  0.98888  0.41990  1.0000 -0.5976378531
O   O7        1.0  0.77420  0.88420  0.33770  1.0000 -0.6370963118
O   O8        1.0  0.81808  0.01112  0.41990  1.0000 -0.5976378531
O   O9        1.0  0.11580  0.22580  0.33770  1.0000 -0.6370963118
O   O10       1.0  0.98888  0.18192  0.41990  1.0000 -0.5976378531
O   O11       1.0  0.88420  0.77420  0.33770  1.0000 -0.6370963118
O   O12       1.0  0.01112  0.81808  0.41990  1.0000 -0.5976378531
O   O13       1.0  0.77420  0.88420  0.66230  1.0000 -0.6370963118
O   O14       1.0  0.81808  0.01112  0.58010  1.0000 -0.5976378531
O   O15       1.0  0.22580  0.11580  0.66230  1.0000 -0.6370963118
O   O16       1.0  0.18192  0.98888  0.58010  1.0000 -0.5976378531
O   O17       1.0  0.02950  0.97050  0.39040  1.0000 -1.1121285966
O   O18       1.0  0.97050  0.02950  0.39040  1.0000 -1.1121285966
O   O19       1.0  0.02950  0.97050  0.60960  1.0000 -1.1121285966
O   O20       1.0  0.97050  0.02950  0.60960  1.0000 -1.1121285966
O   O21       1.0  0.16040  0.09640  0.50000  1.0000 -1.1532950214
O   O22       1.0  0.83960  0.90360  0.50000  1.0000 -1.1532950214
O   O23       1.0  0.90360  0.83960  0.50000  1.0000 -1.1532950214
O   O24       1.0  0.09640  0.16040  0.50000  1.0000 -1.1532950214
