# DDEC6 charges by PACMAN v1.1 (https://github.com/mtap-research/PACMAN-charge/)
data_2018[Tb][nan]3[ASR]5
_chemical_formula_sum              "Tb8 H44 C132 O48 F16"
_cell_length_a       16.5031
_cell_length_b       16.5031
_cell_length_c       18.985
_cell_angle_alpha    88.7177
_cell_angle_beta     91.2823
_cell_angle_gamma    69.5025

_symmetry_space_group_name_H-M    "P 1"
_symmetry_Int_Tables_number       1

loop_
  _symmetry_equiv_pos_as_xyz
  'x, y, z'

loop_
  _atom_site_type_symbol
  _atom_site_label
  _atom_site_symmetry_multiplicity
  _atom_site_fract_x
  _atom_site_fract_y
  _atom_site_fract_z
  _atom_site_occupancy
  _atom_site_charge
Tb  Tb1       1.0  0.78577  0.59069  0.21230  1.0000 2.0905123746
Tb  Tb2       1.0  0.81360  0.83040  0.29553  1.0000 2.0775046145
Tb  Tb3       1.0  0.59069  0.78577  0.78770  1.0000 2.0905123746
Tb  Tb4       1.0  0.83040  0.81360  0.70447  1.0000 2.0775046145
Tb  Tb5       1.0  0.21423  0.40931  0.78770  1.0000 2.0905123746
Tb  Tb6       1.0  0.18640  0.16960  0.70447  1.0000 2.0775046145
Tb  Tb7       1.0  0.40931  0.21423  0.21230  1.0000 2.0905123746
Tb  Tb8       1.0  0.16960  0.18640  0.29553  1.0000 2.0775046145
H   H1        1.0  0.19500  0.66440  0.92580  1.0000 0.1406723028
H   H2        1.0  0.30180  0.90940  0.23160  1.0000 0.1292808322
H   H3        1.0  0.44520  0.64120  0.26540  1.0000 0.1116339137
H   H4        1.0  0.65180  0.58220  0.40110  1.0000 0.1292808322
H   H5        1.0  0.91170  0.85350  0.10320  1.0000 0.1292808322
H   H6        1.0  0.53030  0.71610  0.20730  1.0000 0.1292808322
H   H7        1.0  0.51980  0.62720  0.07570  1.0000 0.1292808322
H   H8        1.0  0.52540  0.95520  0.25060  1.0000 0.1406723028
H   H9        1.0  0.10660  0.74520  0.85560  1.0000 0.1222877597
H   H10       1.0  0.66440  0.19500  0.07420  1.0000 0.1406723028
H   H11       1.0  0.90940  0.30180  0.76840  1.0000 0.1292808322
H   H12       1.0  0.64120  0.44520  0.73460  1.0000 0.1116339137
H   H13       1.0  0.58220  0.65180  0.59890  1.0000 0.1292808322
H   H14       1.0  0.85350  0.91170  0.89680  1.0000 0.1292808322
H   H15       1.0  0.71610  0.53030  0.79270  1.0000 0.1292808322
H   H16       1.0  0.62720  0.51980  0.92430  1.0000 0.1292808322
H   H17       1.0  0.95520  0.52540  0.74940  1.0000 0.1406723028
H   H18       1.0  0.74520  0.10660  0.14440  1.0000 0.1222877597
H   H19       1.0  0.80500  0.33560  0.07420  1.0000 0.1406723028
H   H20       1.0  0.69820  0.09060  0.76840  1.0000 0.1292808322
H   H21       1.0  0.55480  0.35880  0.73460  1.0000 0.1116339137
H   H22       1.0  0.34820  0.41780  0.59890  1.0000 0.1292808322
H   H23       1.0  0.08830  0.14650  0.89680  1.0000 0.1292808322
H   H24       1.0  0.46970  0.28390  0.79270  1.0000 0.1292808322
H   H25       1.0  0.48020  0.37280  0.92430  1.0000 0.1292808322
H   H26       1.0  0.47460  0.04480  0.74940  1.0000 0.1406723028
H   H27       1.0  0.89340  0.25480  0.14440  1.0000 0.1222877597
H   H28       1.0  0.33560  0.80500  0.92580  1.0000 0.1406723028
H   H29       1.0  0.09060  0.69820  0.23160  1.0000 0.1292808322
H   H30       1.0  0.35880  0.55480  0.26540  1.0000 0.1116339137
H   H31       1.0  0.41780  0.34820  0.40110  1.0000 0.1292808322
H   H32       1.0  0.14650  0.08830  0.10320  1.0000 0.1292808322
H   H33       1.0  0.28390  0.46970  0.20730  1.0000 0.1292808322
H   H34       1.0  0.37280  0.48020  0.07570  1.0000 0.1292808322
H   H35       1.0  0.04480  0.47460  0.25060  1.0000 0.1406723028
H   H36       1.0  0.25480  0.89340  0.85560  1.0000 0.1222877597
H   H37       1.0  0.74460  0.74460  0.50000  1.0000 0.1292808322
H   H38       1.0  0.25540  0.25540  0.50000  1.0000 0.1292808322
H   H39       1.0  0.58170  0.41830  0.20380  1.0000 0.1292808322
H   H40       1.0  0.03410  0.96590  0.74080  1.0000 0.1292808322
H   H41       1.0  0.41830  0.58170  0.79620  1.0000 0.1292808322
H   H42       1.0  0.96590  0.03410  0.25920  1.0000 0.1292808322
H   H43       1.0  0.75440  0.75440  0.00000  1.0000 0.1406723028
H   H44       1.0  0.24560  0.24560  0.00000  1.0000 0.1406723028
C   C1        1.0  0.35300  0.03820  0.26290  1.0000 0.6596757157
C   C2        1.0  0.54220  0.83040  0.23030  1.0000 -0.0267385255
C   C3        1.0  0.24320  0.67640  0.94180  1.0000 -0.2349706048
C   C4        1.0  0.63820  0.79880  0.23850  1.0000 0.6596757157
C   C5        1.0  0.36190  0.89010  0.23070  1.0000 -0.1496068554
C   C6        1.0  0.28370  0.76650  0.16860  1.0000 0.1222877597
C   C7        1.0  0.30110  0.61750  0.98810  1.0000 0.2009231543
C   C8        1.0  0.39130  0.66070  0.24210  1.0000 -0.1299582923
C   C9        1.0  0.36140  0.74180  0.20690  1.0000 -0.0267385255
C   C10       1.0  0.05630  0.85510  0.79520  1.0000 -0.0267385255
C   C11       1.0  0.75420  0.66760  0.37530  1.0000 0.6596757157
C   C12       1.0  0.65440  0.61320  0.44080  1.0000 -0.1299582923
C   C13       1.0  0.02650  0.92130  0.03510  1.0000 0.1654268188
C   C14       1.0  0.88320  0.84820  0.06170  1.0000 -0.1496068554
C   C15       1.0  0.64430  0.54190  0.16430  1.0000 0.5543383753
C   C16       1.0  0.49900  0.77360  0.21630  1.0000 -0.1397819722
C   C17       1.0  0.40910  0.80250  0.21580  1.0000 0.0894497169
C   C18       1.0  0.83150  0.79630  0.06120  1.0000 -0.0214095389
C   C19       1.0  0.82340  0.74900  0.12720  1.0000 0.6596757157
C   C20       1.0  0.54480  0.50580  0.56090  1.0000 0.15433299
C   C21       1.0  0.50870  0.57870  0.09200  1.0000 -0.1600240076
C   C22       1.0  0.49620  0.91700  0.24290  1.0000 -0.0998897393
C   C23       1.0  0.11640  0.79540  0.84180  1.0000 -0.1600240076
C   C24       1.0  0.98070  0.83650  0.76760  1.0000 0.5658212101
C   C25       1.0  0.70570  0.66530  0.44050  1.0000 -0.0350212807
C   C26       1.0  0.40490  0.94650  0.24400  1.0000 -0.0214095389
C   C27       1.0  0.56700  0.52200  0.14080  1.0000 -0.0214095389
C   C28       1.0  0.03820  0.35300  0.73710  1.0000 0.6596757157
C   C29       1.0  0.83040  0.54220  0.76970  1.0000 -0.0267385255
C   C30       1.0  0.67640  0.24320  0.05820  1.0000 -0.2349706048
C   C31       1.0  0.79880  0.63820  0.76150  1.0000 0.6596757157
C   C32       1.0  0.89010  0.36190  0.76930  1.0000 -0.1496068554
C   C33       1.0  0.76650  0.28370  0.83140  1.0000 0.1222877597
C   C34       1.0  0.61750  0.30110  0.01190  1.0000 0.2009231543
C   C35       1.0  0.66070  0.39130  0.75790  1.0000 -0.1299582923
C   C36       1.0  0.74180  0.36140  0.79310  1.0000 -0.0267385255
C   C37       1.0  0.85510  0.05630  0.20480  1.0000 -0.0267385255
C   C38       1.0  0.66760  0.75420  0.62470  1.0000 0.6596757157
C   C39       1.0  0.61320  0.65440  0.55920  1.0000 -0.1299582923
C   C40       1.0  0.92130  0.02650  0.96490  1.0000 0.1654268188
C   C41       1.0  0.84820  0.88320  0.93830  1.0000 -0.1496068554
C   C42       1.0  0.54190  0.64430  0.83570  1.0000 0.5550787842
C   C43       1.0  0.77360  0.49900  0.78370  1.0000 -0.1397819722
C   C44       1.0  0.80250  0.40910  0.78420  1.0000 0.0894497169
C   C45       1.0  0.79630  0.83150  0.93880  1.0000 -0.0214095389
C   C46       1.0  0.74900  0.82340  0.87280  1.0000 0.6596757157
C   C47       1.0  0.50580  0.54480  0.43910  1.0000 0.15433299
C   C48       1.0  0.57870  0.50870  0.90800  1.0000 -0.1600240076
C   C49       1.0  0.91700  0.49620  0.75710  1.0000 -0.0998897393
C   C50       1.0  0.79540  0.11640  0.15820  1.0000 -0.1600240076
C   C51       1.0  0.83650  0.98070  0.23240  1.0000 0.5658212101
C   C52       1.0  0.66530  0.70570  0.55950  1.0000 -0.0350212807
C   C53       1.0  0.94650  0.40490  0.75600  1.0000 -0.0214095389
C   C54       1.0  0.52200  0.56700  0.85920  1.0000 -0.0214095389
C   C55       1.0  0.64700  0.96180  0.73710  1.0000 0.6596757157
C   C56       1.0  0.45780  0.16960  0.76970  1.0000 -0.0267385255
C   C57       1.0  0.75680  0.32360  0.05820  1.0000 -0.2349706048
C   C58       1.0  0.36180  0.20120  0.76150  1.0000 0.6596757157
C   C59       1.0  0.63810  0.10990  0.76930  1.0000 -0.1496068554
C   C60       1.0  0.71630  0.23350  0.83140  1.0000 0.1222877597
C   C61       1.0  0.69890  0.38250  0.01190  1.0000 0.2009231543
C   C62       1.0  0.60870  0.33930  0.75790  1.0000 -0.1299582923
C   C63       1.0  0.63860  0.25820  0.79310  1.0000 -0.0267385255
C   C64       1.0  0.94370  0.14490  0.20480  1.0000 -0.0267385255
C   C65       1.0  0.24580  0.33240  0.62470  1.0000 0.6596757157
C   C66       1.0  0.34560  0.38680  0.55920  1.0000 -0.1299582923
C   C67       1.0  0.97350  0.07870  0.96490  1.0000 0.1654268188
C   C68       1.0  0.11680  0.15180  0.93830  1.0000 -0.1496068554
C   C69       1.0  0.35570  0.45810  0.83570  1.0000 0.5550787842
C   C70       1.0  0.50100  0.22640  0.78370  1.0000 -0.1397819722
C   C71       1.0  0.59090  0.19750  0.78420  1.0000 0.0894497169
C   C72       1.0  0.16850  0.20370  0.93880  1.0000 -0.0214095389
C   C73       1.0  0.17660  0.25100  0.87280  1.0000 0.6596757157
C   C74       1.0  0.45520  0.49420  0.43910  1.0000 0.1555239802
C   C75       1.0  0.49130  0.42130  0.90800  1.0000 -0.1600240076
C   C76       1.0  0.50380  0.08300  0.75710  1.0000 -0.0998897393
C   C77       1.0  0.88360  0.20460  0.15820  1.0000 -0.1600240076
C   C78       1.0  0.01930  0.16350  0.23240  1.0000 0.5658212101
C   C79       1.0  0.29430  0.33470  0.55950  1.0000 -0.0350212807
C   C80       1.0  0.59510  0.05350  0.75600  1.0000 -0.0214095389
C   C81       1.0  0.43300  0.47800  0.85920  1.0000 -0.0214095389
C   C82       1.0  0.96180  0.64700  0.26290  1.0000 0.6596757157
C   C83       1.0  0.16960  0.45780  0.23030  1.0000 -0.0267385255
C   C84       1.0  0.32360  0.75680  0.94180  1.0000 -0.2349706048
C   C85       1.0  0.20120  0.36180  0.23850  1.0000 0.6596757157
C   C86       1.0  0.10990  0.63810  0.23070  1.0000 -0.1496068554
C   C87       1.0  0.23350  0.71630  0.16860  1.0000 0.1222877597
C   C88       1.0  0.38250  0.69890  0.98810  1.0000 0.2009231543
C   C89       1.0  0.33930  0.60870  0.24210  1.0000 -0.1299582923
C   C90       1.0  0.25820  0.63860  0.20690  1.0000 -0.0267385255
C   C91       1.0  0.14490  0.94370  0.79520  1.0000 -0.0267385255
C   C92       1.0  0.33240  0.24580  0.37530  1.0000 0.6596757157
C   C93       1.0  0.38680  0.34560  0.44080  1.0000 -0.1299582923
C   C94       1.0  0.07870  0.97350  0.03510  1.0000 0.1654268188
C   C95       1.0  0.15180  0.11680  0.06170  1.0000 -0.1496068554
C   C96       1.0  0.45810  0.35570  0.16430  1.0000 0.5550787842
C   C97       1.0  0.22640  0.50100  0.21630  1.0000 -0.1397819722
C   C98       1.0  0.19750  0.59090  0.21580  1.0000 0.0894497169
C   C99       1.0  0.20370  0.16850  0.06120  1.0000 -0.0214095389
C   C100      1.0  0.25100  0.17660  0.12720  1.0000 0.6596757157
C   C101      1.0  0.49420  0.45520  0.56090  1.0000 0.15433299
C   C102      1.0  0.42130  0.49130  0.09200  1.0000 -0.1600240076
C   C103      1.0  0.08300  0.50380  0.24290  1.0000 -0.0998897393
C   C104      1.0  0.20460  0.88360  0.84180  1.0000 -0.1600240076
C   C105      1.0  0.16350  0.01930  0.76760  1.0000 0.5658212101
C   C106      1.0  0.33470  0.29430  0.44050  1.0000 -0.0350212807
C   C107      1.0  0.05350  0.59510  0.24400  1.0000 -0.0214095389
C   C108      1.0  0.47800  0.43300  0.14080  1.0000 -0.0214095389
C   C109      1.0  0.71030  0.71030  0.50000  1.0000 -0.08995199
C   C110      1.0  0.60680  0.60680  0.50000  1.0000 0.0894497169
C   C111      1.0  0.55250  0.55250  0.50000  1.0000 -0.1702274362
C   C112      1.0  0.28970  0.28970  0.50000  1.0000 -0.08995199
C   C113      1.0  0.39320  0.39320  0.50000  1.0000 0.0894497169
C   C114      1.0  0.44750  0.44750  0.50000  1.0000 -0.1702274362
C   C115      1.0  0.54730  0.45270  0.16720  1.0000 -0.118349796
C   C116      1.0  0.37070  0.62930  0.01540  1.0000 -0.0998897393
C   C117      1.0  0.07300  0.92700  0.77260  1.0000 -0.0998897393
C   C118      1.0  0.43440  0.56560  0.06660  1.0000 0.0894497169
C   C119      1.0  0.19130  0.80870  0.86840  1.0000 0.0729571527
C   C120      1.0  0.25240  0.74760  0.91930  1.0000 0.0894497169
C   C121      1.0  0.45270  0.54730  0.83280  1.0000 -0.118349796
C   C122      1.0  0.62930  0.37070  0.98460  1.0000 -0.0998897393
C   C123      1.0  0.92700  0.07300  0.22740  1.0000 -0.0998897393
C   C124      1.0  0.56560  0.43440  0.93340  1.0000 0.0894497169
C   C125      1.0  0.80870  0.19130  0.13160  1.0000 0.0729571527
C   C126      1.0  0.74760  0.25240  0.08070  1.0000 0.0894497169
C   C127      1.0  0.89190  0.89190  0.00000  1.0000 0.1026116555
C   C128      1.0  0.78870  0.78870  0.00000  1.0000 -0.08995199
C   C129      1.0  0.94650  0.94650  0.00000  1.0000 -0.1754929031
C   C130      1.0  0.10810  0.10810  0.00000  1.0000 0.1026116555
C   C131      1.0  0.21130  0.21130  0.00000  1.0000 -0.08995199
C   C132      1.0  0.05350  0.05350  0.00000  1.0000 -0.1754929031
O   O1        1.0  0.76450  0.60730  0.33270  1.0000 -0.6714410985
O   O2        1.0  0.67900  0.51540  0.22370  1.0000 -0.6335778663
O   O3        1.0  0.80940  0.67860  0.12100  1.0000 -0.6587869505
O   O4        1.0  0.67780  0.72100  0.22220  1.0000 -0.7028302158
O   O5        1.0  0.28310  0.05150  0.29020  1.0000 -0.6069339941
O   O6        1.0  0.82970  0.78430  0.18360  1.0000 -0.6895119304
O   O7        1.0  0.78210  0.72790  0.36840  1.0000 -0.6587869505
O   O8        1.0  0.67180  0.85040  0.26110  1.0000 -0.643681107
O   O9        1.0  0.67720  0.58360  0.12390  1.0000 -0.6335778663
O   O10       1.0  0.92050  0.89570  0.73490  1.0000 -0.643681107
O   O11       1.0  0.38970  0.09230  0.25290  1.0000 -0.723789146
O   O12       1.0  0.97570  0.76250  0.77350  1.0000 -0.6069339941
O   O13       1.0  0.60730  0.76450  0.66730  1.0000 -0.6714410985
O   O14       1.0  0.51540  0.67900  0.77630  1.0000 -0.6335778663
O   O15       1.0  0.67860  0.80940  0.87900  1.0000 -0.6587869505
O   O16       1.0  0.72100  0.67780  0.77780  1.0000 -0.7028302158
O   O17       1.0  0.05150  0.28310  0.70980  1.0000 -0.6069339941
O   O18       1.0  0.78430  0.82970  0.81640  1.0000 -0.6895119304
O   O19       1.0  0.72790  0.78210  0.63160  1.0000 -0.6587869505
O   O20       1.0  0.85040  0.67180  0.73890  1.0000 -0.643681107
O   O21       1.0  0.58360  0.67720  0.87610  1.0000 -0.6335778663
O   O22       1.0  0.89570  0.92050  0.26510  1.0000 -0.643681107
O   O23       1.0  0.09230  0.38970  0.74710  1.0000 -0.723789146
O   O24       1.0  0.76250  0.97570  0.22650  1.0000 -0.6069339941
O   O25       1.0  0.23550  0.39270  0.66730  1.0000 -0.6714410985
O   O26       1.0  0.32100  0.48460  0.77630  1.0000 -0.6335778663
O   O27       1.0  0.19060  0.32140  0.87900  1.0000 -0.6587869505
O   O28       1.0  0.32220  0.27900  0.77780  1.0000 -0.7028302158
O   O29       1.0  0.71690  0.94850  0.70980  1.0000 -0.6069339941
O   O30       1.0  0.17030  0.21570  0.81640  1.0000 -0.6895119304
O   O31       1.0  0.21790  0.27210  0.63160  1.0000 -0.6587869505
O   O32       1.0  0.32820  0.14960  0.73890  1.0000 -0.643681107
O   O33       1.0  0.32280  0.41640  0.87610  1.0000 -0.6335778663
O   O34       1.0  0.07950  0.10430  0.26510  1.0000 -0.643681107
O   O35       1.0  0.61030  0.90770  0.74710  1.0000 -0.723789146
O   O36       1.0  0.02430  0.23750  0.22650  1.0000 -0.6069339941
O   O37       1.0  0.39270  0.23550  0.33270  1.0000 -0.6714410985
O   O38       1.0  0.48460  0.32100  0.22370  1.0000 -0.6335778663
O   O39       1.0  0.32140  0.19060  0.12100  1.0000 -0.6587869505
O   O40       1.0  0.27900  0.32220  0.22220  1.0000 -0.7028302158
O   O41       1.0  0.94850  0.71690  0.29020  1.0000 -0.6069339941
O   O42       1.0  0.21570  0.17030  0.18360  1.0000 -0.6895119304
O   O43       1.0  0.27210  0.21790  0.36840  1.0000 -0.6587869505
O   O44       1.0  0.14960  0.32820  0.26110  1.0000 -0.643681107
O   O45       1.0  0.41640  0.32280  0.12390  1.0000 -0.6335778663
O   O46       1.0  0.10430  0.07950  0.73490  1.0000 -0.643681107
O   O47       1.0  0.90770  0.61030  0.25290  1.0000 -0.723789146
O   O48       1.0  0.23750  0.02430  0.77350  1.0000 -0.6069339941
F   F1        1.0  0.58750  0.50670  0.61510  1.0000 -0.0998897393
F   F2        1.0  0.25380  0.58240  0.03920  1.0000 -0.1496068554
F   F3        1.0  0.05750  0.84810  0.06510  1.0000 -0.0998897393
F   F4        1.0  0.25530  0.83950  0.13060  1.0000 -0.1299582923
F   F5        1.0  0.50670  0.58750  0.38490  1.0000 -0.0998897393
F   F6        1.0  0.58240  0.25380  0.96080  1.0000 -0.1496068554
F   F7        1.0  0.84810  0.05750  0.93490  1.0000 -0.0998897393
F   F8        1.0  0.83950  0.25530  0.86940  1.0000 -0.1299582923
F   F9        1.0  0.41250  0.49330  0.38490  1.0000 -0.0998897393
F   F10       1.0  0.74620  0.41760  0.96080  1.0000 -0.1496068554
F   F11       1.0  0.94250  0.15190  0.93490  1.0000 -0.0998897393
F   F12       1.0  0.74470  0.16050  0.86940  1.0000 -0.1299582923
F   F13       1.0  0.49330  0.41250  0.61510  1.0000 -0.0998897393
F   F14       1.0  0.41760  0.74620  0.03920  1.0000 -0.1496068554
F   F15       1.0  0.15190  0.94250  0.06510  1.0000 -0.0998897393
F   F16       1.0  0.16050  0.74470  0.13060  1.0000 -0.1299582923
