# DDEC6 charges by PACMAN v1.1 (https://github.com/mtap-research/PACMAN-charge/)
data_2018[Zn][sql]2[ASR]9
_chemical_formula_sum              "Zn4 H72 C116 N24 O16 F24"
_cell_length_a       13.888
_cell_length_b       19.035
_cell_length_c       14.062
_cell_angle_alpha    90
_cell_angle_beta     98.382
_cell_angle_gamma    90

_symmetry_space_group_name_H-M    "P 1"
_symmetry_Int_Tables_number       1

loop_
  _symmetry_equiv_pos_as_xyz
  'x, y, z'

loop_
  _atom_site_type_symbol
  _atom_site_label
  _atom_site_symmetry_multiplicity
  _atom_site_fract_x
  _atom_site_fract_y
  _atom_site_fract_z
  _atom_site_occupancy
  _atom_site_charge
Zn  Zn1       1.0  0.55283  0.26192  0.64344  1.0000 0.746399832
Zn  Zn2       1.0  0.44717  0.76192  0.85656  1.0000 0.746399832
Zn  Zn3       1.0  0.44717  0.73808  0.35656  1.0000 0.746399832
Zn  Zn4       1.0  0.55283  0.23808  0.14344  1.0000 0.746399832
H   H1        1.0  0.44356  0.57271  0.26594  1.0000 0.2807357731
H   H2        1.0  0.38440  0.51582  0.22294  1.0000 0.2690757635
H   H3        1.0  0.44635  0.39351  0.54566  1.0000 0.1201706725
H   H4        1.0  0.61285  0.65846  0.91087  1.0000 0.1115414454
H   H5        1.0  0.25249  0.38246  0.76667  1.0000 0.1201706725
H   H6        1.0  0.66098  0.57403  0.02655  1.0000 0.1304203095
H   H7        1.0  0.13136  0.36490  0.86247  1.0000 0.1201706725
H   H8        1.0  0.25482  0.17953  0.95523  1.0000 0.1201706725
H   H9        1.0  0.45314  0.46253  0.41061  1.0000 0.1304203095
H   H10       1.0  0.38676  0.57524  0.09405  1.0000 0.1304203095
H   H11       1.0  0.34581  0.65619  0.97161  1.0000 0.1115414454
H   H12       1.0  0.37047  0.19459  0.85203  1.0000 0.1115414454
H   H13       1.0  0.03592  0.22193  0.80469  1.0000 0.1201706725
H   H14       1.0  0.88161  0.22560  0.71065  1.0000 0.1201706725
H   H15       1.0  0.77786  0.33669  0.91933  1.0000 0.1201706725
H   H16       1.0  0.92773  0.32650  0.01739  1.0000 0.1201706725
H   H17       1.0  0.67338  0.33960  0.34792  1.0000 0.1430900815
H   H18       1.0  0.66055  0.27464  0.48392  1.0000 0.1115414454
H   H19       1.0  0.55644  0.07271  0.23406  1.0000 0.2807357731
H   H20       1.0  0.61560  0.01582  0.27706  1.0000 0.2690757635
H   H21       1.0  0.55365  0.89351  0.95434  1.0000 0.1201706725
H   H22       1.0  0.38715  0.15846  0.58913  1.0000 0.1115414454
H   H23       1.0  0.74751  0.88246  0.73333  1.0000 0.1201706725
H   H24       1.0  0.33902  0.07403  0.47345  1.0000 0.1304203095
H   H25       1.0  0.86864  0.86490  0.63753  1.0000 0.1201706725
H   H26       1.0  0.74518  0.67953  0.54477  1.0000 0.1201706725
H   H27       1.0  0.54686  0.96253  0.08939  1.0000 0.1304203095
H   H28       1.0  0.61324  0.07524  0.40595  1.0000 0.1304203095
H   H29       1.0  0.65419  0.15619  0.52839  1.0000 0.1115414454
H   H30       1.0  0.62953  0.69459  0.64797  1.0000 0.1115414454
H   H31       1.0  0.96408  0.72193  0.69531  1.0000 0.1201706725
H   H32       1.0  0.11839  0.72560  0.78935  1.0000 0.1201706725
H   H33       1.0  0.22214  0.83669  0.58067  1.0000 0.1201706725
H   H34       1.0  0.07227  0.82650  0.48261  1.0000 0.1201706725
H   H35       1.0  0.32662  0.83960  0.15208  1.0000 0.1430900815
H   H36       1.0  0.33945  0.77464  0.01608  1.0000 0.1115414454
H   H37       1.0  0.55644  0.42729  0.73406  1.0000 0.2807357731
H   H38       1.0  0.61560  0.48418  0.77706  1.0000 0.2690757635
H   H39       1.0  0.55365  0.60649  0.45434  1.0000 0.1201706725
H   H40       1.0  0.38715  0.34154  0.08913  1.0000 0.1115414454
H   H41       1.0  0.74751  0.61754  0.23333  1.0000 0.1201706725
H   H42       1.0  0.33902  0.42597  0.97345  1.0000 0.1304203095
H   H43       1.0  0.86864  0.63510  0.13753  1.0000 0.1201706725
H   H44       1.0  0.74518  0.82047  0.04477  1.0000 0.1201706725
H   H45       1.0  0.54686  0.53747  0.58939  1.0000 0.1304203095
H   H46       1.0  0.61324  0.42476  0.90595  1.0000 0.1304203095
H   H47       1.0  0.65419  0.34381  0.02839  1.0000 0.1115414454
H   H48       1.0  0.62953  0.80541  0.14797  1.0000 0.1115414454
H   H49       1.0  0.96408  0.77807  0.19531  1.0000 0.1201706725
H   H50       1.0  0.11839  0.77440  0.28935  1.0000 0.1201706725
H   H51       1.0  0.22214  0.66331  0.08067  1.0000 0.1201706725
H   H52       1.0  0.07227  0.67350  0.98261  1.0000 0.1201706725
H   H53       1.0  0.32662  0.66040  0.65208  1.0000 0.1430900815
H   H54       1.0  0.33945  0.72536  0.51608  1.0000 0.1115414454
H   H55       1.0  0.44356  0.92729  0.76594  1.0000 0.2807357731
H   H56       1.0  0.38440  0.98418  0.72294  1.0000 0.2690757635
H   H57       1.0  0.44635  0.10649  0.04566  1.0000 0.1201706725
H   H58       1.0  0.61285  0.84154  0.41087  1.0000 0.1115414454
H   H59       1.0  0.25249  0.11754  0.26667  1.0000 0.1201706725
H   H60       1.0  0.66098  0.92597  0.52655  1.0000 0.1304203095
H   H61       1.0  0.13136  0.13510  0.36247  1.0000 0.1201706725
H   H62       1.0  0.25482  0.32047  0.45523  1.0000 0.1201706725
H   H63       1.0  0.45314  0.03747  0.91061  1.0000 0.1304203095
H   H64       1.0  0.38676  0.92476  0.59405  1.0000 0.1304203095
H   H65       1.0  0.34581  0.84381  0.47161  1.0000 0.1115414454
H   H66       1.0  0.37047  0.30541  0.35203  1.0000 0.1115414454
H   H67       1.0  0.03592  0.27807  0.30469  1.0000 0.1201706725
H   H68       1.0  0.88161  0.27440  0.21065  1.0000 0.1201706725
H   H69       1.0  0.77786  0.16331  0.41933  1.0000 0.1201706725
H   H70       1.0  0.92773  0.17350  0.51739  1.0000 0.1201706725
H   H71       1.0  0.67338  0.16040  0.84792  1.0000 0.1430900815
H   H72       1.0  0.66055  0.22536  0.98392  1.0000 0.1115414454
C   C1        1.0  0.58040  0.44928  0.27845  1.0000 0.1802710305
C   C2        1.0  0.49380  0.38297  0.50548  1.0000 0.0902075116
C   C3        1.0  0.56530  0.51718  0.15350  1.0000 0.1679094816
C   C4        1.0  0.56710  0.64212  0.94983  1.0000 0.0804123759
C   C5        1.0  0.25220  0.34070  0.80361  1.0000 -0.0957753611
C   C6        1.0  0.53060  0.56825  0.07779  1.0000 0.0804123759
C   C7        1.0  0.32350  0.28987  0.79950  1.0000 -0.0124539918
C   C8        1.0  0.56570  0.40936  0.36513  1.0000 0.0950873318
C   C9        1.0  0.59650  0.59207  0.01902  1.0000 -0.1701646549
C   C10       1.0  0.40020  0.30115  0.73539  1.0000 0.5605660799
C   C11       1.0  0.18080  0.33050  0.86148  1.0000 -0.1494182599
C   C12       1.0  0.25290  0.22017  0.91580  1.0000 -0.1601113797
C   C13       1.0  0.18030  0.27044  0.91834  1.0000 0.0804123759
C   C14       1.0  0.09850  0.26453  0.98203  1.0000 -0.2772087929
C   C15       1.0  0.49710  0.42445  0.42480  1.0000 -0.1884960913
C   C16       1.0  0.43500  0.59221  0.05830  1.0000 -0.1815165178
C   C17       1.0  0.81540  0.28186  0.80610  1.0000 -0.0124539918
C   C18       1.0  0.09760  0.19295  0.03240  1.0000 0.6666940147
C   C19       1.0  0.41160  0.64124  0.98600  1.0000 0.0902075116
C   C20       1.0  0.32260  0.22981  0.85530  1.0000 -0.0934856561
C   C21       1.0  0.99730  0.27360  0.92070  1.0000 0.073639961
C   C22       1.0  0.98320  0.24414  0.82890  1.0000 -0.1426941202
C   C23       1.0  0.89160  0.24720  0.77220  1.0000 -0.0957753611
C   C24       1.0  0.82970  0.31220  0.89670  1.0000 -0.1097153601
C   C25       1.0  0.91930  0.30712  0.95450  1.0000 -0.1601113797
C   C26       1.0  0.62660  0.35213  0.38800  1.0000 -0.1426941202
C   C27       1.0  0.11860  0.32190  0.06070  1.0000 0.6646233919
C   C28       1.0  0.71540  0.28540  0.74700  1.0000 0.5437216583
C   C29       1.0  0.61860  0.31380  0.46930  1.0000 0.0804123759
C   C30       1.0  0.41960  0.94928  0.22155  1.0000 0.1802710305
C   C31       1.0  0.50620  0.88297  0.99452  1.0000 0.0902075116
C   C32       1.0  0.43470  0.01718  0.34650  1.0000 0.1679094816
C   C33       1.0  0.43290  0.14212  0.55017  1.0000 0.0804123759
C   C34       1.0  0.74780  0.84070  0.69639  1.0000 -0.0957753611
C   C35       1.0  0.46940  0.06825  0.42221  1.0000 0.0804123759
C   C36       1.0  0.67650  0.78987  0.70050  1.0000 -0.0124539918
C   C37       1.0  0.43430  0.90936  0.13487  1.0000 0.0950873318
C   C38       1.0  0.40350  0.09207  0.48098  1.0000 -0.1701646549
C   C39       1.0  0.59980  0.80115  0.76461  1.0000 0.5605660799
C   C40       1.0  0.81920  0.83050  0.63852  1.0000 -0.1494182599
C   C41       1.0  0.74710  0.72017  0.58420  1.0000 -0.1601113797
C   C42       1.0  0.81970  0.77044  0.58166  1.0000 0.0804123759
C   C43       1.0  0.90150  0.76453  0.51797  1.0000 -0.2772087929
C   C44       1.0  0.50290  0.92445  0.07520  1.0000 -0.1884960913
C   C45       1.0  0.56500  0.09221  0.44170  1.0000 -0.1815165178
C   C46       1.0  0.18460  0.78186  0.69390  1.0000 -0.0124539918
C   C47       1.0  0.90240  0.69295  0.46760  1.0000 0.6666940147
C   C48       1.0  0.58840  0.14124  0.51400  1.0000 0.0902075116
C   C49       1.0  0.67740  0.72981  0.64470  1.0000 -0.0934856561
C   C50       1.0  0.00270  0.77360  0.57930  1.0000 0.073639961
C   C51       1.0  0.01680  0.74414  0.67110  1.0000 -0.1426941202
C   C52       1.0  0.10840  0.74720  0.72780  1.0000 -0.0957753611
C   C53       1.0  0.17030  0.81220  0.60330  1.0000 -0.1097153601
C   C54       1.0  0.08070  0.80712  0.54550  1.0000 -0.1601113797
C   C55       1.0  0.37340  0.85213  0.11200  1.0000 -0.1426941202
C   C56       1.0  0.88140  0.82190  0.43930  1.0000 0.6666940147
C   C57       1.0  0.28460  0.78540  0.75300  1.0000 0.5437216583
C   C58       1.0  0.38140  0.81380  0.03070  1.0000 0.0804123759
C   C59       1.0  0.41960  0.55072  0.72155  1.0000 0.1802710305
C   C60       1.0  0.50620  0.61703  0.49452  1.0000 0.0902075116
C   C61       1.0  0.43470  0.48282  0.84650  1.0000 0.1679094816
C   C62       1.0  0.43290  0.35788  0.05017  1.0000 0.0804123759
C   C63       1.0  0.74780  0.65930  0.19639  1.0000 -0.0957753611
C   C64       1.0  0.46940  0.43175  0.92221  1.0000 0.0804123759
C   C65       1.0  0.67650  0.71013  0.20050  1.0000 -0.0124539918
C   C66       1.0  0.43430  0.59064  0.63487  1.0000 0.0950873318
C   C67       1.0  0.40350  0.40793  0.98098  1.0000 -0.1701646549
C   C68       1.0  0.59980  0.69885  0.26461  1.0000 0.5605660799
C   C69       1.0  0.81920  0.66950  0.13852  1.0000 -0.1494182599
C   C70       1.0  0.74710  0.77983  0.08420  1.0000 -0.1601113797
C   C71       1.0  0.81970  0.72956  0.08166  1.0000 0.0804123759
C   C72       1.0  0.90150  0.73547  0.01797  1.0000 -0.2772087929
C   C73       1.0  0.50290  0.57555  0.57520  1.0000 -0.1884960913
C   C74       1.0  0.56500  0.40779  0.94170  1.0000 -0.1815165178
C   C75       1.0  0.18460  0.71814  0.19390  1.0000 -0.0124539918
C   C76       1.0  0.90240  0.80705  0.96760  1.0000 0.6666940147
C   C77       1.0  0.58840  0.35876  0.01400  1.0000 0.0902075116
C   C78       1.0  0.67740  0.77019  0.14470  1.0000 -0.0934856561
C   C79       1.0  0.00270  0.72640  0.07930  1.0000 0.073639961
C   C80       1.0  0.01680  0.75586  0.17110  1.0000 -0.1426941202
C   C81       1.0  0.10840  0.75280  0.22780  1.0000 -0.0957753611
C   C82       1.0  0.17030  0.68780  0.10330  1.0000 -0.1097153601
C   C83       1.0  0.08070  0.69288  0.04550  1.0000 -0.1601113797
C   C84       1.0  0.37340  0.64787  0.61200  1.0000 -0.1426941202
C   C85       1.0  0.88140  0.67810  0.93930  1.0000 0.6666940147
C   C86       1.0  0.28460  0.71460  0.25300  1.0000 0.5437216583
C   C87       1.0  0.38140  0.68620  0.53070  1.0000 0.0804123759
C   C88       1.0  0.58040  0.05072  0.77845  1.0000 0.1802710305
C   C89       1.0  0.49380  0.11703  0.00548  1.0000 0.0902075116
C   C90       1.0  0.56530  0.98282  0.65350  1.0000 0.1679094816
C   C91       1.0  0.56710  0.85788  0.44983  1.0000 0.0804123759
C   C92       1.0  0.25220  0.15930  0.30361  1.0000 -0.0957753611
C   C93       1.0  0.53060  0.93175  0.57779  1.0000 0.0804123759
C   C94       1.0  0.32350  0.21013  0.29950  1.0000 -0.0124539918
C   C95       1.0  0.56570  0.09064  0.86513  1.0000 0.0950873318
C   C96       1.0  0.59650  0.90793  0.51902  1.0000 -0.1701646549
C   C97       1.0  0.40020  0.19885  0.23539  1.0000 0.5605660799
C   C98       1.0  0.18080  0.16950  0.36148  1.0000 -0.1494182599
C   C99       1.0  0.25290  0.27983  0.41580  1.0000 -0.1601113797
C   C100      1.0  0.18030  0.22956  0.41834  1.0000 0.0804123759
C   C101      1.0  0.09850  0.23547  0.48203  1.0000 -0.2772087929
C   C102      1.0  0.49710  0.07555  0.92480  1.0000 -0.1884960913
C   C103      1.0  0.43500  0.90779  0.55830  1.0000 -0.1815165178
C   C104      1.0  0.81540  0.21814  0.30610  1.0000 -0.0124539918
C   C105      1.0  0.09760  0.30705  0.53240  1.0000 0.6666940147
C   C106      1.0  0.41160  0.85876  0.48600  1.0000 0.0902075116
C   C107      1.0  0.32260  0.27019  0.35530  1.0000 -0.0934856561
C   C108      1.0  0.99730  0.22640  0.42070  1.0000 0.073639961
C   C109      1.0  0.98320  0.25586  0.32890  1.0000 -0.1426941202
C   C110      1.0  0.89160  0.25280  0.27220  1.0000 -0.0957753611
C   C111      1.0  0.82970  0.18780  0.39670  1.0000 -0.1097153601
C   C112      1.0  0.91930  0.19288  0.45450  1.0000 -0.1601113797
C   C113      1.0  0.62660  0.14787  0.88800  1.0000 -0.1426941202
C   C114      1.0  0.11860  0.17810  0.56070  1.0000 0.6666940147
C   C115      1.0  0.71540  0.21460  0.24700  1.0000 0.5437216583
C   C116      1.0  0.61860  0.18620  0.96930  1.0000 0.0804123759
N   N1        1.0  0.51995  0.49767  0.22946  1.0000 0.073639961
N   N2        1.0  0.47672  0.66871  0.93519  1.0000 -0.2304606483
N   N3        1.0  0.55382  0.32910  0.52946  1.0000 -0.2304606483
N   N4        1.0  0.65730  0.43968  0.23604  1.0000 -0.2403964614
N   N5        1.0  0.43741  0.52657  0.26289  1.0000 -0.476362395
N   N6        1.0  0.64780  0.48304  0.15693  1.0000 -0.2459351633
N   N7        1.0  0.48005  0.99767  0.27054  1.0000 0.073639961
N   N8        1.0  0.52328  0.16871  0.56481  1.0000 -0.2304606483
N   N9        1.0  0.44618  0.82910  0.97054  1.0000 -0.2304606483
N   N10       1.0  0.34270  0.93968  0.26396  1.0000 -0.2403964614
N   N11       1.0  0.56259  0.02657  0.23711  1.0000 -0.476362395
N   N12       1.0  0.35220  0.98304  0.34307  1.0000 -0.2459351633
N   N13       1.0  0.48005  0.50233  0.77054  1.0000 0.073639961
N   N14       1.0  0.52328  0.33129  0.06481  1.0000 -0.2304606483
N   N15       1.0  0.44618  0.67090  0.47054  1.0000 -0.2304606483
N   N16       1.0  0.34270  0.56032  0.76396  1.0000 -0.2403964614
N   N17       1.0  0.56259  0.47343  0.73711  1.0000 -0.476362395
N   N18       1.0  0.35220  0.51696  0.84307  1.0000 -0.2459351633
N   N19       1.0  0.51995  0.00233  0.72946  1.0000 0.073639961
N   N20       1.0  0.47672  0.83129  0.43519  1.0000 -0.2304606483
N   N21       1.0  0.55382  0.17090  0.02946  1.0000 -0.2304606483
N   N22       1.0  0.65730  0.06032  0.73604  1.0000 -0.2403964614
N   N23       1.0  0.43741  0.97343  0.76289  1.0000 -0.476362395
N   N24       1.0  0.64780  0.01696  0.65693  1.0000 -0.2459351633
O   O1        1.0  0.45070  0.24680  0.72135  1.0000 -0.5435232398
O   O2        1.0  0.41071  0.35977  0.70064  1.0000 -0.5516763207
O   O3        1.0  0.69879  0.24271  0.67760  1.0000 -0.5306870219
O   O4        1.0  0.65287  0.32711  0.76788  1.0000 -0.5516763207
O   O5        1.0  0.54930  0.74680  0.77865  1.0000 -0.5435232398
O   O6        1.0  0.58929  0.85977  0.79936  1.0000 -0.5555223701
O   O7        1.0  0.30121  0.74271  0.82240  1.0000 -0.5306870219
O   O8        1.0  0.34713  0.82711  0.73212  1.0000 -0.5516763207
O   O9        1.0  0.54930  0.75320  0.27865  1.0000 -0.5435232398
O   O10       1.0  0.58929  0.64023  0.29936  1.0000 -0.5516763207
O   O11       1.0  0.30121  0.75729  0.32240  1.0000 -0.5306870219
O   O12       1.0  0.34713  0.67289  0.23212  1.0000 -0.5516763207
O   O13       1.0  0.45070  0.25320  0.22135  1.0000 -0.5435232398
O   O14       1.0  0.41071  0.14023  0.20064  1.0000 -0.5555223701
O   O15       1.0  0.69879  0.25729  0.17760  1.0000 -0.5306870219
O   O16       1.0  0.65287  0.17289  0.26788  1.0000 -0.5516763207
F   F1        1.0  0.09056  0.14014  0.96864  1.0000 -0.1815165178
F   F2        1.0  0.06597  0.31347  0.13308  1.0000 -0.2057773461
F   F3        1.0  0.17784  0.18115  0.09555  1.0000 -0.1989659023
F   F4        1.0  0.09916  0.38573  0.02500  1.0000 -0.1884960913
F   F5        1.0  0.21198  0.32134  0.10151  1.0000 -0.1989659023
F   F6        1.0  0.02174  0.18605  0.08055  1.0000 -0.1989659023
F   F7        1.0  0.90944  0.64014  0.53136  1.0000 -0.1815165178
F   F8        1.0  0.93403  0.81347  0.36692  1.0000 -0.2057773461
F   F9        1.0  0.82216  0.68115  0.40445  1.0000 -0.1989659023
F   F10       1.0  0.90084  0.88573  0.47500  1.0000 -0.1884960913
F   F11       1.0  0.78802  0.82134  0.39849  1.0000 -0.1989659023
F   F12       1.0  0.97826  0.68605  0.41945  1.0000 -0.1989659023
F   F13       1.0  0.90944  0.85986  0.03136  1.0000 -0.1815165178
F   F14       1.0  0.93403  0.68653  0.86692  1.0000 -0.2057773461
F   F15       1.0  0.82216  0.81885  0.90445  1.0000 -0.1989659023
F   F16       1.0  0.90084  0.61427  0.97500  1.0000 -0.1884960913
F   F17       1.0  0.78802  0.67866  0.89849  1.0000 -0.1989659023
F   F18       1.0  0.97826  0.81395  0.91945  1.0000 -0.1989659023
F   F19       1.0  0.09056  0.35986  0.46864  1.0000 -0.1815165178
F   F20       1.0  0.06597  0.18653  0.63308  1.0000 -0.2057773461
F   F21       1.0  0.17784  0.31885  0.59555  1.0000 -0.1989659023
F   F22       1.0  0.09916  0.11427  0.52500  1.0000 -0.1884960913
F   F23       1.0  0.21198  0.17866  0.60151  1.0000 -0.1989659023
F   F24       1.0  0.02174  0.31395  0.58055  1.0000 -0.1989659023
