# DDEC6 charges by PACMAN v1.1 (https://github.com/mtap-research/PACMAN-charge/)
data_2018[Zn][nbo]3[ASR]1
_chemical_formula_sum              "Zn6 H36 C48 N18"
_cell_length_a       16.3321
_cell_length_b       16.3321
_cell_length_c       16.3321
_cell_angle_alpha    115.292
_cell_angle_beta     115.292
_cell_angle_gamma    115.292

_symmetry_space_group_name_H-M    "P 1"
_symmetry_Int_Tables_number       1

loop_
  _symmetry_equiv_pos_as_xyz
  'x, y, z'

loop_
  _atom_site_type_symbol
  _atom_site_label
  _atom_site_symmetry_multiplicity
  _atom_site_fract_x
  _atom_site_fract_y
  _atom_site_fract_z
  _atom_site_occupancy
  _atom_site_charge
Zn  Zn1       1.0  0.61921  0.59113  0.17720  1.0000 0.4792662905
Zn  Zn2       1.0  0.59113  0.17720  0.61921  1.0000 0.4792662905
Zn  Zn3       1.0  0.17720  0.61921  0.59113  1.0000 0.4792662905
Zn  Zn4       1.0  0.38079  0.40887  0.82280  1.0000 0.4792662905
Zn  Zn5       1.0  0.40887  0.82280  0.38079  1.0000 0.4883905159
Zn  Zn6       1.0  0.82280  0.38079  0.40887  1.0000 0.4792662905
H   H1        1.0  0.49140  0.68670  0.92360  1.0000 0.1012340828
H   H2        1.0  0.68530  0.84760  0.29240  1.0000 0.0903346501
H   H3        1.0  0.65140  0.11120  0.12840  1.0000 0.0903346501
H   H4        1.0  0.58210  0.91150  0.02780  1.0000 0.1206079033
H   H5        1.0  0.74300  0.03220  0.37380  1.0000 0.1057905214
H   H6        1.0  0.82270  0.23510  0.47070  1.0000 0.0838435771
H   H7        1.0  0.68670  0.92360  0.49140  1.0000 0.1012340828
H   H8        1.0  0.84760  0.29240  0.68530  1.0000 0.0903346501
H   H9        1.0  0.11120  0.12840  0.65140  1.0000 0.0903346501
H   H10       1.0  0.91150  0.02780  0.58210  1.0000 0.1206079033
H   H11       1.0  0.03220  0.37380  0.74300  1.0000 0.1057905214
H   H12       1.0  0.23510  0.47070  0.82270  1.0000 0.0838435771
H   H13       1.0  0.92360  0.49140  0.68670  1.0000 0.1012340828
H   H14       1.0  0.29240  0.68530  0.84760  1.0000 0.0903346501
H   H15       1.0  0.12840  0.65140  0.11120  1.0000 0.0903346501
H   H16       1.0  0.02780  0.58210  0.91150  1.0000 0.1206079033
H   H17       1.0  0.37380  0.74300  0.03220  1.0000 0.1057905214
H   H18       1.0  0.47070  0.82270  0.23510  1.0000 0.0838435771
H   H19       1.0  0.50860  0.31330  0.07640  1.0000 0.1012340828
H   H20       1.0  0.31470  0.15240  0.70760  1.0000 0.0903346501
H   H21       1.0  0.34860  0.88880  0.87160  1.0000 0.0903346501
H   H22       1.0  0.41790  0.08850  0.97220  1.0000 0.1206079033
H   H23       1.0  0.25700  0.96780  0.62620  1.0000 0.1057905214
H   H24       1.0  0.17730  0.76490  0.52930  1.0000 0.0838435771
H   H25       1.0  0.31330  0.07640  0.50860  1.0000 0.1012340828
H   H26       1.0  0.15240  0.70760  0.31470  1.0000 0.0903346501
H   H27       1.0  0.88880  0.87160  0.34860  1.0000 0.0903346501
H   H28       1.0  0.08850  0.97220  0.41790  1.0000 0.1206079033
H   H29       1.0  0.96780  0.62620  0.25700  1.0000 0.1057905214
H   H30       1.0  0.76490  0.52930  0.17730  1.0000 0.0838435771
H   H31       1.0  0.07640  0.50860  0.31330  1.0000 0.1012340828
H   H32       1.0  0.70760  0.31470  0.15240  1.0000 0.0903346501
H   H33       1.0  0.87160  0.34860  0.88880  1.0000 0.0903346501
H   H34       1.0  0.97220  0.41790  0.08850  1.0000 0.1206079033
H   H35       1.0  0.62620  0.25700  0.96780  1.0000 0.1057905214
H   H36       1.0  0.52930  0.17730  0.76490  1.0000 0.0838435771
C   C1        1.0  0.52600  0.69940  0.99690  1.0000 -0.0943713529
C   C2        1.0  0.60550  0.81860  0.13030  1.0000 -0.0722532347
C   C3        1.0  0.63270  0.78790  0.19920  1.0000 -0.1015747829
C   C4        1.0  0.67330  0.09610  0.18040  1.0000 0.034048358
C   C5        1.0  0.62910  0.97550  0.11870  1.0000 -0.2181576248
C   C6        1.0  0.65330  0.94700  0.18960  1.0000 0.1206079033
C   C7        1.0  0.72480  0.04670  0.32110  1.0000 -0.2181576248
C   C8        1.0  0.77070  0.16730  0.37810  1.0000 0.0459872863
C   C9        1.0  0.69940  0.99690  0.52600  1.0000 -0.0943713529
C   C10       1.0  0.81860  0.13030  0.60550  1.0000 -0.0722532347
C   C11       1.0  0.78790  0.19920  0.63270  1.0000 -0.1015747829
C   C12       1.0  0.09610  0.18040  0.67330  1.0000 0.034048358
C   C13       1.0  0.97550  0.11870  0.62910  1.0000 -0.2181576248
C   C14       1.0  0.94700  0.18960  0.65330  1.0000 0.1206079033
C   C15       1.0  0.04670  0.32110  0.72480  1.0000 -0.2181576248
C   C16       1.0  0.16730  0.37810  0.77070  1.0000 0.0459872863
C   C17       1.0  0.99690  0.52600  0.69940  1.0000 -0.0943713529
C   C18       1.0  0.13030  0.60550  0.81860  1.0000 -0.0722532347
C   C19       1.0  0.19920  0.63270  0.78790  1.0000 -0.1015747829
C   C20       1.0  0.18040  0.67330  0.09610  1.0000 0.034048358
C   C21       1.0  0.11870  0.62910  0.97550  1.0000 -0.2181576248
C   C22       1.0  0.18960  0.65330  0.94700  1.0000 0.1206079033
C   C23       1.0  0.32110  0.72480  0.04670  1.0000 -0.2181576248
C   C24       1.0  0.37810  0.77070  0.16730  1.0000 0.0459872863
C   C25       1.0  0.47400  0.30060  0.00310  1.0000 -0.0943713529
C   C26       1.0  0.39450  0.18140  0.86970  1.0000 -0.0722532347
C   C27       1.0  0.36730  0.21210  0.80080  1.0000 -0.1015747829
C   C28       1.0  0.32670  0.90390  0.81960  1.0000 0.034048358
C   C29       1.0  0.37090  0.02450  0.88130  1.0000 -0.2181576248
C   C30       1.0  0.34670  0.05300  0.81040  1.0000 0.1206079033
C   C31       1.0  0.27520  0.95330  0.67890  1.0000 -0.2181576248
C   C32       1.0  0.22930  0.83270  0.62190  1.0000 0.0459872863
C   C33       1.0  0.30060  0.00310  0.47400  1.0000 -0.0943713529
C   C34       1.0  0.18140  0.86970  0.39450  1.0000 -0.0722532347
C   C35       1.0  0.21210  0.80080  0.36730  1.0000 -0.1015747829
C   C36       1.0  0.90390  0.81960  0.32670  1.0000 0.034048358
C   C37       1.0  0.02450  0.88130  0.37090  1.0000 -0.2181576248
C   C38       1.0  0.05300  0.81040  0.34670  1.0000 0.1206079033
C   C39       1.0  0.95330  0.67890  0.27520  1.0000 -0.2181576248
C   C40       1.0  0.83270  0.62190  0.22930  1.0000 0.0459872863
C   C41       1.0  0.00310  0.47400  0.30060  1.0000 -0.0943713529
C   C42       1.0  0.86970  0.39450  0.18140  1.0000 -0.0722532347
C   C43       1.0  0.80080  0.36730  0.21210  1.0000 -0.1015747829
C   C44       1.0  0.81960  0.32670  0.90390  1.0000 0.034048358
C   C45       1.0  0.88130  0.37090  0.02450  1.0000 -0.2181576248
C   C46       1.0  0.81040  0.34670  0.05300  1.0000 0.1206079033
C   C47       1.0  0.67890  0.27520  0.95330  1.0000 -0.2181576248
C   C48       1.0  0.62190  0.22930  0.83270  1.0000 0.0459872863
N   N1        1.0  0.57390  0.66230  0.11510  1.0000 -0.1811963239
N   N2        1.0  0.50730  0.60730  0.99010  1.0000 -0.1811963239
N   N3        1.0  0.74530  0.19290  0.30920  1.0000 -0.2066686594
N   N4        1.0  0.66230  0.11510  0.57390  1.0000 -0.1811963239
N   N5        1.0  0.60730  0.99010  0.50730  1.0000 -0.1811963239
N   N6        1.0  0.19290  0.30920  0.74530  1.0000 -0.2066686594
N   N7        1.0  0.11510  0.57390  0.66230  1.0000 -0.1811963239
N   N8        1.0  0.99010  0.50730  0.60730  1.0000 -0.1811963239
N   N9        1.0  0.30920  0.74530  0.19290  1.0000 -0.2066686594
N   N10       1.0  0.42610  0.33770  0.88490  1.0000 -0.1811963239
N   N11       1.0  0.49270  0.39270  0.00990  1.0000 -0.1811963239
N   N12       1.0  0.25470  0.80710  0.69080  1.0000 -0.2066686594
N   N13       1.0  0.33770  0.88490  0.42610  1.0000 -0.1811963239
N   N14       1.0  0.39270  0.00990  0.49270  1.0000 -0.1811963239
N   N15       1.0  0.80710  0.69080  0.25470  1.0000 -0.2066686594
N   N16       1.0  0.88490  0.42610  0.33770  1.0000 -0.1811963239
N   N17       1.0  0.00990  0.49270  0.39270  1.0000 -0.1811963239
N   N18       1.0  0.69080  0.25470  0.80710  1.0000 -0.2066686594
