# DDEC6 charges by PACMAN v1.1 (https://github.com/mtap-research/PACMAN-charge/)
data_2018[Cd][nan]3[ASR]13
_chemical_formula_sum              "Cd6 H42 C66 N18 O18"
_cell_length_a       13.892
_cell_length_b       14.001
_cell_length_c       18.454
_cell_angle_alpha    76.28
_cell_angle_beta     70.15
_cell_angle_gamma    68.73

_symmetry_space_group_name_H-M    "P 1"
_symmetry_Int_Tables_number       1

loop_
  _symmetry_equiv_pos_as_xyz
  'x, y, z'

loop_
  _atom_site_type_symbol
  _atom_site_label
  _atom_site_symmetry_multiplicity
  _atom_site_fract_x
  _atom_site_fract_y
  _atom_site_fract_z
  _atom_site_occupancy
  _atom_site_charge
Cd  Cd1       1.0  0.11684  0.98986  0.82131  1.0000 0.8301685657
Cd  Cd2       1.0  0.28058  0.96782  0.59895  1.0000 0.8617136682
Cd  Cd3       1.0  0.15267  0.86887  0.02806  1.0000 0.765464982
Cd  Cd4       1.0  0.88316  0.01014  0.17869  1.0000 0.8301685657
Cd  Cd5       1.0  0.71942  0.03218  0.40105  1.0000 0.8617136682
Cd  Cd6       1.0  0.84733  0.13113  0.97194  1.0000 0.765464982
H   H1        1.0  0.63439  0.96965  0.65762  1.0000 0.2788649704
H   H2        1.0  0.14437  0.50153  0.97977  1.0000 0.2646712865
H   H3        1.0  0.77317  0.45143  0.73034  1.0000 0.268332621
H   H4        1.0  0.14879  0.64610  0.00210  1.0000 0.0990945529
H   H5        1.0  0.11756  0.75948  0.79265  1.0000 0.1296767747
H   H6        1.0  0.15325  0.35059  0.05278  1.0000 0.1228713262
H   H7        1.0  0.14158  0.18488  0.07671  1.0000 0.1228713262
H   H8        1.0  0.11020  0.22171  0.86385  1.0000 0.1135310214
H   H9        1.0  0.11681  0.38639  0.84376  1.0000 0.1296767747
H   H10       1.0  0.34627  0.99381  0.85265  1.0000 0.1135310214
H   H11       1.0  0.49032  0.97531  0.63357  1.0000 0.1135310214
H   H12       1.0  0.73371  0.98413  0.80208  1.0000 0.1296767747
H   H13       1.0  0.91050  0.97194  0.78363  1.0000 0.1135310214
H   H14       1.0  0.97127  0.94857  0.55925  1.0000 0.1228713262
H   H15       1.0  0.79856  0.95484  0.58088  1.0000 0.1296767747
H   H16       1.0  0.07442  0.19341  0.68803  1.0000 0.1296767747
H   H17       1.0  0.80780  0.33531  0.84192  1.0000 0.0990945529
H   H18       1.0  0.92400  0.53076  0.54646  1.0000 0.1296767747
H   H19       1.0  0.87228  0.68382  0.47419  1.0000 0.1434639747
H   H20       1.0  0.61605  0.77763  0.64918  1.0000 0.1135310214
H   H21       1.0  0.66307  0.62049  0.72230  1.0000 0.1228713262
H   H22       1.0  0.36561  0.03035  0.34238  1.0000 0.2788649704
H   H23       1.0  0.85563  0.49847  0.02023  1.0000 0.2646712865
H   H24       1.0  0.22683  0.54857  0.26966  1.0000 0.268332621
H   H25       1.0  0.85121  0.35390  0.99790  1.0000 0.0990945529
H   H26       1.0  0.88244  0.24052  0.20735  1.0000 0.1296767747
H   H27       1.0  0.84675  0.64941  0.94722  1.0000 0.1228713262
H   H28       1.0  0.85842  0.81512  0.92329  1.0000 0.1228713262
H   H29       1.0  0.88980  0.77829  0.13615  1.0000 0.1135310214
H   H30       1.0  0.88319  0.61361  0.15624  1.0000 0.1296767747
H   H31       1.0  0.65373  0.00619  0.14735  1.0000 0.1135310214
H   H32       1.0  0.50968  0.02469  0.36643  1.0000 0.1135310214
H   H33       1.0  0.26629  0.01587  0.19792  1.0000 0.1296767747
H   H34       1.0  0.08950  0.02806  0.21637  1.0000 0.1135310214
H   H35       1.0  0.02873  0.05143  0.44075  1.0000 0.1228713262
H   H36       1.0  0.20144  0.04516  0.41912  1.0000 0.1296767747
H   H37       1.0  0.92558  0.80659  0.31197  1.0000 0.1296767747
H   H38       1.0  0.19220  0.66469  0.15808  1.0000 0.0990945529
H   H39       1.0  0.07600  0.46924  0.45354  1.0000 0.1296767747
H   H40       1.0  0.12772  0.31618  0.52581  1.0000 0.1434639747
H   H41       1.0  0.38395  0.22237  0.35082  1.0000 0.1135310214
H   H42       1.0  0.33693  0.37951  0.27770  1.0000 0.1228713262
C   C1        1.0  0.13940  0.69080  0.95710  1.0000 -0.0453782641
C   C2        1.0  0.12200  0.75320  0.84280  1.0000 -0.0041068895
C   C3        1.0  0.12880  0.66280  0.89480  1.0000 -0.16327562
C   C4        1.0  0.13040  0.56630  0.87880  1.0000 0.4753033425
C   C5        1.0  0.13460  0.38410  0.94720  1.0000 0.2035195585
C   C6        1.0  0.14340  0.32440  0.01490  1.0000 -0.1903187242
C   C7        1.0  0.13820  0.22440  0.02890  1.0000 -0.0806279438
C   C8        1.0  0.12780  0.18360  0.97190  1.0000 -0.0367504439
C   C9        1.0  0.11890  0.24700  0.90270  1.0000 -0.1005330291
C   C10       1.0  0.12250  0.34530  0.89070  1.0000 -0.16327562
C   C11       1.0  0.12260  0.07580  0.98860  1.0000 0.5403777267
C   C12       1.0  0.36070  0.98960  0.80030  1.0000 -0.0111980128
C   C13       1.0  0.46020  0.98340  0.74730  1.0000 -0.1503376794
C   C14       1.0  0.43900  0.97880  0.68170  1.0000 -0.0330684312
C   C15       1.0  0.55800  0.98170  0.76480  1.0000 0.4881741907
C   C16       1.0  0.74990  0.97040  0.69320  1.0000 0.2199628148
C   C17       1.0  0.78270  0.97570  0.75330  1.0000 -0.16327562
C   C18       1.0  0.88860  0.96850  0.74220  1.0000 -0.1005330291
C   C19       1.0  0.96150  0.95630  0.67040  1.0000 -0.0367504439
C   C20       1.0  0.92430  0.95380  0.60900  1.0000 -0.0806279438
C   C21       1.0  0.82120  0.95910  0.62170  1.0000 -0.1756253932
C   C22       1.0  0.07470  0.95630  0.65030  1.0000 0.5613833572
C   C23       1.0  0.01740  0.20710  0.73270  1.0000 -0.0111980128
C   C24       1.0  0.93190  0.29960  0.74350  1.0000 -0.1503376794
C   C25       1.0  0.87010  0.28640  0.81820  1.0000 -0.059891604
C   C26       1.0  0.92450  0.38950  0.68000  1.0000 0.4973238613
C   C27       1.0  0.79990  0.55850  0.64250  1.0000 0.2199628148
C   C28       1.0  0.86100  0.58090  0.56780  1.0000 -0.16327562
C   C29       1.0  0.83170  0.67320  0.52540  1.0000 -0.0806279438
C   C30       1.0  0.74540  0.75040  0.55490  1.0000 -0.0330684312
C   C31       1.0  0.67980  0.72750  0.62910  1.0000 -0.111541817
C   C32       1.0  0.70700  0.63350  0.67270  1.0000 -0.1903187242
C   C33       1.0  0.72420  0.85360  0.50300  1.0000 0.5403777267
C   C34       1.0  0.86060  0.30920  0.04290  1.0000 -0.0453782641
C   C35       1.0  0.87800  0.24680  0.15720  1.0000 -0.0041068895
C   C36       1.0  0.87120  0.33720  0.10520  1.0000 -0.16327562
C   C37       1.0  0.86960  0.43370  0.12120  1.0000 0.4739743079
C   C38       1.0  0.86540  0.61590  0.05280  1.0000 0.2035195585
C   C39       1.0  0.85660  0.67560  0.98510  1.0000 -0.1903187242
C   C40       1.0  0.86180  0.77560  0.97110  1.0000 -0.0806279438
C   C41       1.0  0.87220  0.81640  0.02810  1.0000 -0.0330684312
C   C42       1.0  0.88110  0.75300  0.09730  1.0000 -0.1005330291
C   C43       1.0  0.87750  0.65470  0.10930  1.0000 -0.16327562
C   C44       1.0  0.87740  0.92420  0.01140  1.0000 0.5403777267
C   C45       1.0  0.63930  0.01040  0.19970  1.0000 -0.0111980128
C   C46       1.0  0.53980  0.01660  0.25270  1.0000 -0.1503376794
C   C47       1.0  0.56100  0.02120  0.31830  1.0000 -0.0330684312
C   C48       1.0  0.44200  0.01830  0.23520  1.0000 0.4881741907
C   C49       1.0  0.25010  0.02960  0.30680  1.0000 0.2199628148
C   C50       1.0  0.21730  0.02430  0.24670  1.0000 -0.16327562
C   C51       1.0  0.11140  0.03150  0.25780  1.0000 -0.1005330291
C   C52       1.0  0.03850  0.04370  0.32960  1.0000 -0.0367504439
C   C53       1.0  0.07570  0.04620  0.39100  1.0000 -0.0806279438
C   C54       1.0  0.17880  0.04090  0.37830  1.0000 -0.1756253932
C   C55       1.0  0.92530  0.04370  0.34970  1.0000 0.5613833572
C   C56       1.0  0.98260  0.79290  0.26730  1.0000 -0.0111980128
C   C57       1.0  0.06810  0.70040  0.25650  1.0000 -0.1503376794
C   C58       1.0  0.12990  0.71360  0.18180  1.0000 -0.059891604
C   C59       1.0  0.07550  0.61050  0.32000  1.0000 0.4973238613
C   C60       1.0  0.20010  0.44150  0.35750  1.0000 0.2199628148
C   C61       1.0  0.13900  0.41910  0.43220  1.0000 -0.16327562
C   C62       1.0  0.16830  0.32680  0.47460  1.0000 -0.0806279438
C   C63       1.0  0.25460  0.24960  0.44510  1.0000 -0.0330684312
C   C64       1.0  0.32020  0.27250  0.37090  1.0000 -0.111541817
C   C65       1.0  0.29300  0.36650  0.32730  1.0000 -0.1903187242
C   C66       1.0  0.27580  0.14640  0.49700  1.0000 0.5403777267
N   N1        1.0  0.28740  0.98910  0.76900  1.0000 -0.2102943529
N   N2        1.0  0.34120  0.97970  0.69150  1.0000 -0.2102943529
N   N3        1.0  0.13450  0.78970  0.94570  1.0000 -0.1983909813
N   N4        1.0  0.12260  0.82980  0.87370  1.0000 -0.1903187242
N   N5        1.0  0.00170  0.14330  0.79790  1.0000 -0.1903187242
N   N6        1.0  0.91250  0.19420  0.85090  1.0000 -0.1983909813
N   N7        1.0  0.64550  0.97350  0.69980  1.0000 -0.3612676655
N   N8        1.0  0.13730  0.48650  0.93970  1.0000 -0.3897830342
N   N9        1.0  0.82410  0.46410  0.69100  1.0000 -0.3800496553
N   N10       1.0  0.71260  0.01090  0.23100  1.0000 -0.2102943529
N   N11       1.0  0.65880  0.02030  0.30850  1.0000 -0.2102943529
N   N12       1.0  0.86550  0.21030  0.05430  1.0000 -0.1983909813
N   N13       1.0  0.87740  0.17020  0.12630  1.0000 -0.1903187242
N   N14       1.0  0.99830  0.85670  0.20210  1.0000 -0.1903187242
N   N15       1.0  0.08750  0.80580  0.14910  1.0000 -0.1983909813
N   N16       1.0  0.35450  0.02650  0.30020  1.0000 -0.3612676655
N   N17       1.0  0.86270  0.51350  0.06030  1.0000 -0.3897830342
N   N18       1.0  0.17590  0.53590  0.30900  1.0000 -0.3800496553
O   O1        1.0  0.12970  0.02590  0.05120  1.0000 -0.4808576797
O   O2        1.0  0.10780  0.03650  0.93960  1.0000 -0.5700920616
O   O3        1.0  0.77740  0.86090  0.43530  1.0000 -0.4917830025
O   O4        1.0  0.65880  0.92910  0.53490  1.0000 -0.5700920616
O   O5        1.0  0.11460  0.95020  0.70420  1.0000 -0.5756404494
O   O6        1.0  0.13220  0.95580  0.58160  1.0000 -0.51740391
O   O7        1.0  0.55880  0.98660  0.82880  1.0000 -0.4526786302
O   O8        1.0  0.12150  0.55550  0.81970  1.0000 -0.429402927
O   O9        1.0  0.00230  0.39700  0.62400  1.0000 -0.4426300023
O   O10       1.0  0.87030  0.97410  0.94880  1.0000 -0.4808576797
O   O11       1.0  0.89220  0.96350  0.06040  1.0000 -0.5700920616
O   O12       1.0  0.22260  0.13910  0.56470  1.0000 -0.4917830025
O   O13       1.0  0.34120  0.07090  0.46510  1.0000 -0.5700920616
O   O14       1.0  0.88540  0.04980  0.29580  1.0000 -0.5756404494
O   O15       1.0  0.86780  0.04420  0.41840  1.0000 -0.51740391
O   O16       1.0  0.44120  0.01340  0.17120  1.0000 -0.4526786302
O   O17       1.0  0.87850  0.44450  0.18030  1.0000 -0.429402927
O   O18       1.0  0.99770  0.60300  0.37600  1.0000 -0.4426300023
