# DDEC6 charges by PACMAN v1.1 (https://github.com/mtap-research/PACMAN-charge/)
data_2018[Zn][sql]2[ASR]18
_chemical_formula_sum              "Zn4 H64 C96 S4 N16 O28"
_cell_length_a       7.9667
_cell_length_b       21.9698
_cell_length_c       18.5309
_cell_angle_alpha    90
_cell_angle_beta     98.713
_cell_angle_gamma    90

_symmetry_space_group_name_H-M    "P 1"
_symmetry_Int_Tables_number       1

loop_
  _symmetry_equiv_pos_as_xyz
  'x, y, z'

loop_
  _atom_site_type_symbol
  _atom_site_label
  _atom_site_symmetry_multiplicity
  _atom_site_fract_x
  _atom_site_fract_y
  _atom_site_fract_z
  _atom_site_occupancy
  _atom_site_charge
Zn  Zn1       1.0  0.99151  0.79849  0.45110  1.0000 0.7480859486
Zn  Zn2       1.0  0.00849  0.29849  0.04890  1.0000 0.7480859486
Zn  Zn3       1.0  0.00849  0.20151  0.54890  1.0000 0.7480859486
Zn  Zn4       1.0  0.99151  0.70151  0.95110  1.0000 0.7480859486
H   H1        1.0  0.35330  0.60820  0.19900  1.0000 0.3510026065
H   H2        1.0  0.38220  0.68200  0.66540  1.0000 0.2918978063
H   H3        1.0  0.70470  0.55030  0.97680  1.0000 0.2918978063
H   H4        1.0  0.60140  0.69300  0.31470  1.0000 0.1293549262
H   H5        1.0  0.52320  0.62980  0.10920  1.0000 0.1293549262
H   H6        1.0  0.93740  0.72990  0.18070  1.0000 0.1293549262
H   H7        1.0  0.31570  0.78160  0.39300  1.0000 0.1111943312
H   H8        1.0  0.58180  0.74320  0.42590  1.0000 0.1390227852
H   H9        1.0  0.65000  0.69110  0.53510  1.0000 0.146576914
H   H10       1.0  0.17790  0.72330  0.57390  1.0000 0.1293549262
H   H11       1.0  0.48180  0.67510  0.78820  1.0000 0.1293549262
H   H12       1.0  0.55520  0.61730  0.90040  1.0000 0.1293549262
H   H13       1.0  0.76040  0.53630  0.10260  1.0000 0.1390227852
H   H14       1.0  0.88010  0.47710  0.20040  1.0000 0.1390227852
H   H15       1.0  0.98310  0.38210  0.17970  1.0000 0.1111943312
H   H16       1.0  0.86310  0.40340  0.96930  1.0000 0.1293549262
H   H17       1.0  0.64670  0.10820  0.30100  1.0000 0.3510026065
H   H18       1.0  0.61780  0.18200  0.83460  1.0000 0.2918978063
H   H19       1.0  0.29530  0.05030  0.52320  1.0000 0.2918978063
H   H20       1.0  0.39860  0.19300  0.18530  1.0000 0.1293549262
H   H21       1.0  0.47680  0.12980  0.39080  1.0000 0.1293549262
H   H22       1.0  0.06260  0.22990  0.31930  1.0000 0.1293549262
H   H23       1.0  0.68430  0.28160  0.10700  1.0000 0.1111943312
H   H24       1.0  0.41820  0.24320  0.07410  1.0000 0.1390227852
H   H25       1.0  0.35000  0.19110  0.96490  1.0000 0.146576914
H   H26       1.0  0.82210  0.22330  0.92610  1.0000 0.1293549262
H   H27       1.0  0.51820  0.17510  0.71180  1.0000 0.1293549262
H   H28       1.0  0.44480  0.11730  0.59960  1.0000 0.1293549262
H   H29       1.0  0.23960  0.03630  0.39740  1.0000 0.1390227852
H   H30       1.0  0.11990  0.97710  0.29960  1.0000 0.1390227852
H   H31       1.0  0.01690  0.88210  0.32030  1.0000 0.1111943312
H   H32       1.0  0.13690  0.90340  0.53070  1.0000 0.1293549262
H   H33       1.0  0.64670  0.39180  0.80100  1.0000 0.3510026065
H   H34       1.0  0.61780  0.31800  0.33460  1.0000 0.2918978063
H   H35       1.0  0.29530  0.44970  0.02320  1.0000 0.2918978063
H   H36       1.0  0.39860  0.30700  0.68530  1.0000 0.1293549262
H   H37       1.0  0.47680  0.37020  0.89080  1.0000 0.1293549262
H   H38       1.0  0.06260  0.27010  0.81930  1.0000 0.1293549262
H   H39       1.0  0.68430  0.21840  0.60700  1.0000 0.1111943312
H   H40       1.0  0.41820  0.25680  0.57410  1.0000 0.1390227852
H   H41       1.0  0.35000  0.30890  0.46490  1.0000 0.146576914
H   H42       1.0  0.82210  0.27670  0.42610  1.0000 0.1293549262
H   H43       1.0  0.51820  0.32490  0.21180  1.0000 0.1293549262
H   H44       1.0  0.44480  0.38270  0.09960  1.0000 0.1293549262
H   H45       1.0  0.23960  0.46370  0.89740  1.0000 0.1390227852
H   H46       1.0  0.11990  0.52290  0.79960  1.0000 0.1390227852
H   H47       1.0  0.01690  0.61790  0.82030  1.0000 0.1111943312
H   H48       1.0  0.13690  0.59660  0.03070  1.0000 0.1293549262
H   H49       1.0  0.35330  0.89180  0.69900  1.0000 0.3510026065
H   H50       1.0  0.38220  0.81800  0.16540  1.0000 0.2918978063
H   H51       1.0  0.70470  0.94970  0.47680  1.0000 0.2918978063
H   H52       1.0  0.60140  0.80700  0.81470  1.0000 0.1293549262
H   H53       1.0  0.52320  0.87020  0.60920  1.0000 0.1293549262
H   H54       1.0  0.93740  0.77010  0.68070  1.0000 0.1293549262
H   H55       1.0  0.31570  0.71840  0.89300  1.0000 0.1111943312
H   H56       1.0  0.58180  0.75680  0.92590  1.0000 0.1390227852
H   H57       1.0  0.65000  0.80890  0.03510  1.0000 0.146576914
H   H58       1.0  0.17790  0.77670  0.07390  1.0000 0.1293549262
H   H59       1.0  0.48180  0.82490  0.28820  1.0000 0.1293549262
H   H60       1.0  0.55520  0.88270  0.40040  1.0000 0.1293549262
H   H61       1.0  0.76040  0.96370  0.60260  1.0000 0.1390227852
H   H62       1.0  0.88010  0.02290  0.70040  1.0000 0.1390227852
H   H63       1.0  0.98310  0.11790  0.67970  1.0000 0.1111943312
H   H64       1.0  0.86310  0.09660  0.46930  1.0000 0.1293549262
C   C1        1.0  0.89120  0.75090  0.31800  1.0000 0.5517843691
C   C2        1.0  0.78440  0.71663  0.25700  1.0000 -0.0096732579
C   C3        1.0  0.63580  0.68960  0.26910  1.0000 -0.2224411862
C   C4        1.0  0.53760  0.65770  0.21480  1.0000 0.2918978063
C   C5        1.0  0.58900  0.65160  0.14620  1.0000 -0.2638797435
C   C6        1.0  0.74080  0.67880  0.13420  1.0000 -0.0096732579
C   C7        1.0  0.83710  0.71137  0.18910  1.0000 -0.1486103805
C   C8        1.0  0.79560  0.67110  0.06050  1.0000 0.5560959307
C   C9        1.0  0.34140  0.76140  0.43740  1.0000 0.0495004812
C   C10       1.0  0.50080  0.73810  0.45670  1.0000 -0.1017889055
C   C11       1.0  0.54190  0.70720  0.52140  1.0000 -0.1017889055
C   C12       1.0  0.41670  0.70070  0.56560  1.0000 0.1907308129
C   C13       1.0  0.26010  0.72660  0.54340  1.0000 -0.0292046662
C   C14       1.0  0.56140  0.62800  0.65440  1.0000 0.4804438678
C   C15       1.0  0.57100  0.60700  0.73070  1.0000 -0.1303730381
C   C16       1.0  0.53120  0.63670  0.79010  1.0000 -0.1303730381
C   C17       1.0  0.57250  0.60320  0.85470  1.0000 -0.1102086893
C   C18       1.0  0.64080  0.54790  0.84330  1.0000 -0.1486103805
C   C19       1.0  0.70640  0.49940  0.89460  1.0000 0.4681664435
C   C20       1.0  0.79960  0.47630  0.02440  1.0000 0.1907308129
C   C21       1.0  0.80440  0.49810  0.09470  1.0000 -0.1303730381
C   C22       1.0  0.87470  0.46270  0.15290  1.0000 -0.1102086893
C   C23       1.0  0.93680  0.40590  0.14020  1.0000 0.0495004812
C   C24       1.0  0.86550  0.41870  0.01620  1.0000 -0.0292046662
C   C25       1.0  0.10880  0.25090  0.18200  1.0000 0.5517843691
C   C26       1.0  0.21560  0.21663  0.24300  1.0000 -0.0096732579
C   C27       1.0  0.36420  0.18960  0.23090  1.0000 -0.2224411862
C   C28       1.0  0.46240  0.15770  0.28520  1.0000 0.2918978063
C   C29       1.0  0.41100  0.15160  0.35380  1.0000 -0.2638797435
C   C30       1.0  0.25920  0.17880  0.36580  1.0000 -0.0096732579
C   C31       1.0  0.16290  0.21137  0.31090  1.0000 -0.1486103805
C   C32       1.0  0.20440  0.17110  0.43950  1.0000 0.5560959307
C   C33       1.0  0.65860  0.26140  0.06260  1.0000 0.0495004812
C   C34       1.0  0.49920  0.23810  0.04330  1.0000 -0.1017889055
C   C35       1.0  0.45810  0.20720  0.97860  1.0000 -0.1017889055
C   C36       1.0  0.58330  0.20070  0.93440  1.0000 0.1907308129
C   C37       1.0  0.73990  0.22660  0.95660  1.0000 -0.0292046662
C   C38       1.0  0.43860  0.12800  0.84560  1.0000 0.4804438678
C   C39       1.0  0.42900  0.10700  0.76930  1.0000 -0.1303730381
C   C40       1.0  0.46880  0.13670  0.70990  1.0000 -0.1303730381
C   C41       1.0  0.42750  0.10320  0.64530  1.0000 -0.1102086893
C   C42       1.0  0.35920  0.04790  0.65670  1.0000 -0.1486103805
C   C43       1.0  0.29360  0.99940  0.60540  1.0000 0.4681664435
C   C44       1.0  0.20040  0.97630  0.47560  1.0000 0.1907308129
C   C45       1.0  0.19560  0.99810  0.40530  1.0000 -0.1303730381
C   C46       1.0  0.12530  0.96270  0.34710  1.0000 -0.1102086893
C   C47       1.0  0.06320  0.90590  0.35980  1.0000 0.0495004812
C   C48       1.0  0.13450  0.91870  0.48380  1.0000 -0.0292046662
C   C49       1.0  0.10880  0.24910  0.68200  1.0000 0.5517843691
C   C50       1.0  0.21560  0.28337  0.74300  1.0000 -0.0096732579
C   C51       1.0  0.36420  0.31040  0.73090  1.0000 -0.2224411862
C   C52       1.0  0.46240  0.34230  0.78520  1.0000 0.2918978063
C   C53       1.0  0.41100  0.34840  0.85380  1.0000 -0.2638797435
C   C54       1.0  0.25920  0.32120  0.86580  1.0000 -0.0096732579
C   C55       1.0  0.16290  0.28863  0.81090  1.0000 -0.1486103805
C   C56       1.0  0.20440  0.32890  0.93950  1.0000 0.5560959307
C   C57       1.0  0.65860  0.23860  0.56260  1.0000 0.0495004812
C   C58       1.0  0.49920  0.26190  0.54330  1.0000 -0.1017889055
C   C59       1.0  0.45810  0.29280  0.47860  1.0000 -0.1017889055
C   C60       1.0  0.58330  0.29930  0.43440  1.0000 0.1907308129
C   C61       1.0  0.73990  0.27340  0.45660  1.0000 -0.0292046662
C   C62       1.0  0.43860  0.37200  0.34560  1.0000 0.4804438678
C   C63       1.0  0.42900  0.39300  0.26930  1.0000 -0.1303730381
C   C64       1.0  0.46880  0.36330  0.20990  1.0000 -0.1303730381
C   C65       1.0  0.42750  0.39680  0.14530  1.0000 -0.1102086893
C   C66       1.0  0.35920  0.45210  0.15670  1.0000 -0.1486103805
C   C67       1.0  0.29360  0.50060  0.10540  1.0000 0.4681664435
C   C68       1.0  0.20040  0.52370  0.97560  1.0000 0.1907308129
C   C69       1.0  0.19560  0.50190  0.90530  1.0000 -0.1303730381
C   C70       1.0  0.12530  0.53730  0.84710  1.0000 -0.1102086893
C   C71       1.0  0.06320  0.59410  0.85980  1.0000 0.0495004812
C   C72       1.0  0.13450  0.58130  0.98380  1.0000 -0.0292046662
C   C73       1.0  0.89120  0.74910  0.81800  1.0000 0.5517843691
C   C74       1.0  0.78440  0.78337  0.75700  1.0000 -0.0096732579
C   C75       1.0  0.63580  0.81040  0.76910  1.0000 -0.2224411862
C   C76       1.0  0.53760  0.84230  0.71480  1.0000 0.2918978063
C   C77       1.0  0.58900  0.84840  0.64620  1.0000 -0.2638797435
C   C78       1.0  0.74080  0.82120  0.63420  1.0000 -0.0096732579
C   C79       1.0  0.83710  0.78863  0.68910  1.0000 -0.1486103805
C   C80       1.0  0.79560  0.82890  0.56050  1.0000 0.5560959307
C   C81       1.0  0.34140  0.73860  0.93740  1.0000 0.0495004812
C   C82       1.0  0.50080  0.76190  0.95670  1.0000 -0.1017889055
C   C83       1.0  0.54190  0.79280  0.02140  1.0000 -0.1017889055
C   C84       1.0  0.41670  0.79930  0.06560  1.0000 0.1907308129
C   C85       1.0  0.26010  0.77340  0.04340  1.0000 -0.0292046662
C   C86       1.0  0.56140  0.87200  0.15440  1.0000 0.4804438678
C   C87       1.0  0.57100  0.89300  0.23070  1.0000 -0.1303730381
C   C88       1.0  0.53120  0.86330  0.29010  1.0000 -0.1303730381
C   C89       1.0  0.57250  0.89680  0.35470  1.0000 -0.1102086893
C   C90       1.0  0.64080  0.95210  0.34330  1.0000 -0.1486103805
C   C91       1.0  0.70640  0.00060  0.39460  1.0000 0.4681664435
C   C92       1.0  0.79960  0.02370  0.52440  1.0000 0.1907308129
C   C93       1.0  0.80440  0.00190  0.59470  1.0000 -0.1303730381
C   C94       1.0  0.87470  0.03730  0.65290  1.0000 -0.1102086893
C   C95       1.0  0.93680  0.09410  0.64020  1.0000 0.0495004812
C   C96       1.0  0.86550  0.08130  0.51620  1.0000 -0.0292046662
S   S1        1.0  0.65515  0.53690  0.75330  1.0000 0.165743242
S   S2        1.0  0.34485  0.03690  0.74670  1.0000 0.165743242
S   S3        1.0  0.34485  0.46310  0.24670  1.0000 0.165743242
S   S4        1.0  0.65515  0.96310  0.25330  1.0000 0.165743242
N   N1        1.0  0.22060  0.75609  0.48016  1.0000 -0.1974350895
N   N2        1.0  0.44530  0.67125  0.63383  1.0000 -0.3528429503
N   N3        1.0  0.73230  0.51401  0.96585  1.0000 -0.3528429503
N   N4        1.0  0.93270  0.38407  0.07307  1.0000 -0.2224411862
N   N5        1.0  0.77940  0.25609  0.01984  1.0000 -0.1974350895
N   N6        1.0  0.55470  0.17125  0.86617  1.0000 -0.3528429503
N   N7        1.0  0.26770  0.01401  0.53415  1.0000 -0.3528429503
N   N8        1.0  0.06730  0.88407  0.42693  1.0000 -0.2224411862
N   N9        1.0  0.77940  0.24391  0.51984  1.0000 -0.1974350895
N   N10       1.0  0.55470  0.32875  0.36617  1.0000 -0.3528429503
N   N11       1.0  0.26770  0.48599  0.03415  1.0000 -0.3528429503
N   N12       1.0  0.06730  0.61593  0.92693  1.0000 -0.2224411862
N   N13       1.0  0.22060  0.74391  0.98016  1.0000 -0.1974350895
N   N14       1.0  0.44530  0.82875  0.13383  1.0000 -0.3528429503
N   N15       1.0  0.73230  0.98599  0.46585  1.0000 -0.3528429503
N   N16       1.0  0.93270  0.11593  0.57307  1.0000 -0.2224411862
O   O1        1.0  0.83280  0.75664  0.37822  1.0000 -0.5397268804
O   O2        1.0  0.03170  0.77130  0.31011  1.0000 -0.5547032701
O   O3        1.0  0.91640  0.70542  0.04681  1.0000 -0.5397268804
O   O4        1.0  0.72390  0.63327  0.01719  1.0000 -0.5547032701
O   O5        1.0  0.39050  0.63267  0.23090  1.0000 -0.4478975358
O   O6        1.0  0.65590  0.60663  0.61479  1.0000 -0.4478975358
O   O7        1.0  0.73830  0.44862  0.87238  1.0000 -0.4823674383
O   O8        1.0  0.16720  0.25664  0.12178  1.0000 -0.5397268804
O   O9        1.0  0.96830  0.27130  0.18989  1.0000 -0.5547032701
O   O10       1.0  0.08360  0.20542  0.45319  1.0000 -0.5397268804
O   O11       1.0  0.27610  0.13327  0.48281  1.0000 -0.5547032701
O   O12       1.0  0.60950  0.13267  0.26910  1.0000 -0.4478975358
O   O13       1.0  0.34410  0.10663  0.88521  1.0000 -0.4478975358
O   O14       1.0  0.26170  0.94862  0.62762  1.0000 -0.4823674383
O   O15       1.0  0.16720  0.24336  0.62178  1.0000 -0.5397268804
O   O16       1.0  0.96830  0.22870  0.68989  1.0000 -0.5547032701
O   O17       1.0  0.08360  0.29458  0.95319  1.0000 -0.5397268804
O   O18       1.0  0.27610  0.36673  0.98281  1.0000 -0.5547032701
O   O19       1.0  0.60950  0.36733  0.76910  1.0000 -0.4478975358
O   O20       1.0  0.34410  0.39337  0.38521  1.0000 -0.4478975358
O   O21       1.0  0.26170  0.55138  0.12762  1.0000 -0.4823674383
O   O22       1.0  0.83280  0.74336  0.87822  1.0000 -0.5397268804
O   O23       1.0  0.03170  0.72870  0.81011  1.0000 -0.5547032701
O   O24       1.0  0.91640  0.79458  0.54681  1.0000 -0.5397268804
O   O25       1.0  0.72390  0.86673  0.51719  1.0000 -0.5547032701
O   O26       1.0  0.39050  0.86733  0.73090  1.0000 -0.4478975358
O   O27       1.0  0.65590  0.89337  0.11479  1.0000 -0.4478975358
O   O28       1.0  0.73830  0.05138  0.37238  1.0000 -0.4823674383
