# DDEC6 charges by PACMAN v1.1 (https://github.com/mtap-research/PACMAN-charge/)
data_2018[Zn][pcu]3[ASR]10
_chemical_formula_sum              "Zn8 H64 C72 S8 N8 O32"
_cell_length_a       17.5269
_cell_length_b       17.5269
_cell_length_c       17.5269
_cell_angle_alpha    107.187
_cell_angle_beta     107.187
_cell_angle_gamma    114.143

_symmetry_space_group_name_H-M    "P 1"
_symmetry_Int_Tables_number       1

loop_
  _symmetry_equiv_pos_as_xyz
  'x, y, z'

loop_
  _atom_site_type_symbol
  _atom_site_label
  _atom_site_symmetry_multiplicity
  _atom_site_fract_x
  _atom_site_fract_y
  _atom_site_fract_z
  _atom_site_occupancy
  _atom_site_charge
Zn  Zn1       1.0  0.94155  0.41087  0.00000  1.0000 0.8319080281
Zn  Zn2       1.0  0.41087  0.94155  0.00000  1.0000 0.8319080281
Zn  Zn3       1.0  0.41087  0.41087  0.46932  1.0000 0.8319080281
Zn  Zn4       1.0  0.94155  0.94155  0.53068  1.0000 0.8319080281
Zn  Zn5       1.0  0.05845  0.05845  0.46932  1.0000 0.8319080281
Zn  Zn6       1.0  0.58913  0.58913  0.53068  1.0000 0.8319080281
Zn  Zn7       1.0  0.58913  0.05845  0.00000  1.0000 0.8319080281
Zn  Zn8       1.0  0.05845  0.58913  0.00000  1.0000 0.8319080281
H   H1        1.0  0.76690  0.21320  0.86590  1.0000 0.1175703067
H   H2        1.0  0.83990  0.19440  0.92010  1.0000 0.1175703067
H   H3        1.0  0.78890  0.37940  0.05330  1.0000 0.1175703067
H   H4        1.0  0.33060  0.67110  0.22470  1.0000 0.1279654182
H   H5        1.0  0.34730  0.90100  0.13410  1.0000 0.1175703067
H   H6        1.0  0.27430  0.91980  0.07990  1.0000 0.1175703067
H   H7        1.0  0.32610  0.73560  0.94670  1.0000 0.1175703067
H   H8        1.0  0.44640  0.10590  0.77530  1.0000 0.1279654182
H   H9        1.0  0.21320  0.34730  0.44630  1.0000 0.1175703067
H   H10       1.0  0.19440  0.27430  0.35450  1.0000 0.1175703067
H   H11       1.0  0.37940  0.32610  0.59050  1.0000 0.1175703067
H   H12       1.0  0.67110  0.44640  0.34050  1.0000 0.1279654182
H   H13       1.0  0.90100  0.76690  0.55370  1.0000 0.1175703067
H   H14       1.0  0.91980  0.83990  0.64550  1.0000 0.1175703067
H   H15       1.0  0.73560  0.78890  0.40950  1.0000 0.1175703067
H   H16       1.0  0.10590  0.33060  0.65950  1.0000 0.1279654182
H   H17       1.0  0.23310  0.09900  0.44630  1.0000 0.1175703067
H   H18       1.0  0.16010  0.08020  0.35450  1.0000 0.1175703067
H   H19       1.0  0.21110  0.26440  0.59050  1.0000 0.1175703067
H   H20       1.0  0.66940  0.89410  0.34050  1.0000 0.1279654182
H   H21       1.0  0.65270  0.78680  0.55370  1.0000 0.1175703067
H   H22       1.0  0.72570  0.80560  0.64550  1.0000 0.1175703067
H   H23       1.0  0.67390  0.62060  0.40950  1.0000 0.1175703067
H   H24       1.0  0.55360  0.32890  0.65950  1.0000 0.1279654182
H   H25       1.0  0.78680  0.23310  0.13410  1.0000 0.1175703067
H   H26       1.0  0.80560  0.16010  0.07990  1.0000 0.1175703067
H   H27       1.0  0.62060  0.21110  0.94670  1.0000 0.1175703067
H   H28       1.0  0.32890  0.66940  0.77530  1.0000 0.1279654182
H   H29       1.0  0.09900  0.65270  0.86590  1.0000 0.1175703067
H   H30       1.0  0.08020  0.72570  0.92010  1.0000 0.1175703067
H   H31       1.0  0.26440  0.67390  0.05330  1.0000 0.1175703067
H   H32       1.0  0.89410  0.55360  0.22470  1.0000 0.1279654182
H   H33       1.0  0.23310  0.78680  0.13410  1.0000 0.1175703067
H   H34       1.0  0.16010  0.80560  0.07990  1.0000 0.1175703067
H   H35       1.0  0.21110  0.62060  0.94670  1.0000 0.1175703067
H   H36       1.0  0.66940  0.32890  0.77530  1.0000 0.1279654182
H   H37       1.0  0.65270  0.09900  0.86590  1.0000 0.1175703067
H   H38       1.0  0.72570  0.08020  0.92010  1.0000 0.1175703067
H   H39       1.0  0.67390  0.26440  0.05330  1.0000 0.1175703067
H   H40       1.0  0.55360  0.89410  0.22470  1.0000 0.1279654182
H   H41       1.0  0.78680  0.65270  0.55370  1.0000 0.1175703067
H   H42       1.0  0.80560  0.72570  0.64550  1.0000 0.1175703067
H   H43       1.0  0.62060  0.67390  0.40950  1.0000 0.1175703067
H   H44       1.0  0.32890  0.55360  0.65950  1.0000 0.1279654182
H   H45       1.0  0.09900  0.23310  0.44630  1.0000 0.1175703067
H   H46       1.0  0.08020  0.16010  0.35450  1.0000 0.1175703067
H   H47       1.0  0.26440  0.21110  0.59050  1.0000 0.1175703067
H   H48       1.0  0.89410  0.66940  0.34050  1.0000 0.1279654182
H   H49       1.0  0.76690  0.90100  0.55370  1.0000 0.1175703067
H   H50       1.0  0.83990  0.91980  0.64550  1.0000 0.1175703067
H   H51       1.0  0.78890  0.73560  0.40950  1.0000 0.1175703067
H   H52       1.0  0.33060  0.10590  0.65950  1.0000 0.1279654182
H   H53       1.0  0.34730  0.21320  0.44630  1.0000 0.1175703067
H   H54       1.0  0.27430  0.19440  0.35450  1.0000 0.1175703067
H   H55       1.0  0.32610  0.37940  0.59050  1.0000 0.1175703067
H   H56       1.0  0.44640  0.67110  0.34050  1.0000 0.1279654182
H   H57       1.0  0.21320  0.76690  0.86590  1.0000 0.1175703067
H   H58       1.0  0.19440  0.83990  0.92010  1.0000 0.1175703067
H   H59       1.0  0.37940  0.78890  0.05330  1.0000 0.1175703067
H   H60       1.0  0.67110  0.33060  0.22470  1.0000 0.1279654182
H   H61       1.0  0.90100  0.34730  0.13410  1.0000 0.1175703067
H   H62       1.0  0.91980  0.27430  0.07990  1.0000 0.1175703067
H   H63       1.0  0.73560  0.32610  0.94670  1.0000 0.1175703067
H   H64       1.0  0.10590  0.44640  0.77530  1.0000 0.1279654182
C   C1        1.0  0.13890  0.51990  0.12440  1.0000 0.5937068793
C   C2        1.0  0.22730  0.54300  0.19790  1.0000 -0.1179225021
C   C3        1.0  0.79210  0.20880  0.92050  1.0000 -0.1179225021
C   C4        1.0  0.31590  0.62190  0.23940  1.0000 -0.1292232242
C   C5        1.0  0.39550  0.01450  0.87560  1.0000 0.5937068793
C   C6        1.0  0.34510  0.02940  0.80210  1.0000 -0.1179225021
C   C7        1.0  0.28830  0.87160  0.07950  1.0000 -0.1179225021
C   C8        1.0  0.38250  0.07650  0.76060  1.0000 -0.1292232242
C   C9        1.0  0.51990  0.39550  0.38100  1.0000 0.5937068793
C   C10       1.0  0.54300  0.34510  0.31570  1.0000 -0.1179225021
C   C11       1.0  0.20880  0.28830  0.41670  1.0000 -0.1179225021
C   C12       1.0  0.62190  0.38250  0.30600  1.0000 -0.1292232242
C   C13       1.0  0.01450  0.13890  0.61900  1.0000 0.5937068793
C   C14       1.0  0.02940  0.22730  0.68430  1.0000 -0.1179225021
C   C15       1.0  0.87160  0.79210  0.58330  1.0000 -0.1179225021
C   C16       1.0  0.07650  0.31590  0.69400  1.0000 -0.1292232242
C   C17       1.0  0.86110  0.98550  0.38100  1.0000 0.5937068793
C   C18       1.0  0.77270  0.97060  0.31570  1.0000 -0.1179225021
C   C19       1.0  0.20790  0.12840  0.41670  1.0000 -0.1179225021
C   C20       1.0  0.68410  0.92350  0.30600  1.0000 -0.1292232242
C   C21       1.0  0.60450  0.48010  0.61900  1.0000 0.5937068793
C   C22       1.0  0.65490  0.45700  0.68430  1.0000 -0.1179225021
C   C23       1.0  0.71170  0.79120  0.58330  1.0000 -0.1179225021
C   C24       1.0  0.61750  0.37810  0.69400  1.0000 -0.1292232242
C   C25       1.0  0.48010  0.86110  0.87560  1.0000 0.5937068793
C   C26       1.0  0.45700  0.77270  0.80210  1.0000 -0.1179225021
C   C27       1.0  0.79120  0.20790  0.07950  1.0000 -0.1179225021
C   C28       1.0  0.37810  0.68410  0.76060  1.0000 -0.1292232242
C   C29       1.0  0.98550  0.60450  0.12440  1.0000 0.5937068793
C   C30       1.0  0.97060  0.65490  0.19790  1.0000 -0.1179225021
C   C31       1.0  0.12840  0.71170  0.92050  1.0000 -0.1179225021
C   C32       1.0  0.92350  0.61750  0.23940  1.0000 -0.1292232242
C   C33       1.0  0.86110  0.48010  0.87560  1.0000 0.5937068793
C   C34       1.0  0.77270  0.45700  0.80210  1.0000 -0.1179225021
C   C35       1.0  0.20790  0.79120  0.07950  1.0000 -0.1179225021
C   C36       1.0  0.68410  0.37810  0.76060  1.0000 -0.1292232242
C   C37       1.0  0.60450  0.98550  0.12440  1.0000 0.5937068793
C   C38       1.0  0.65490  0.97060  0.19790  1.0000 -0.1179225021
C   C39       1.0  0.71170  0.12840  0.92050  1.0000 -0.1179225021
C   C40       1.0  0.61750  0.92350  0.23940  1.0000 -0.1292232242
C   C41       1.0  0.48010  0.60450  0.61900  1.0000 0.5937068793
C   C42       1.0  0.45700  0.65490  0.68430  1.0000 -0.1179225021
C   C43       1.0  0.79120  0.71170  0.58330  1.0000 -0.1179225021
C   C44       1.0  0.37810  0.61750  0.69400  1.0000 -0.1292232242
C   C45       1.0  0.98550  0.86110  0.38100  1.0000 0.5937068793
C   C46       1.0  0.97060  0.77270  0.31570  1.0000 -0.1179225021
C   C47       1.0  0.12840  0.20790  0.41670  1.0000 -0.1179225021
C   C48       1.0  0.92350  0.68410  0.30600  1.0000 -0.1292232242
C   C49       1.0  0.13890  0.01450  0.61900  1.0000 0.5937068793
C   C50       1.0  0.22730  0.02940  0.68430  1.0000 -0.1179225021
C   C51       1.0  0.79210  0.87160  0.58330  1.0000 -0.1179225021
C   C52       1.0  0.31590  0.07650  0.69400  1.0000 -0.1292232242
C   C53       1.0  0.39550  0.51990  0.38100  1.0000 0.5937068793
C   C54       1.0  0.34510  0.54300  0.31570  1.0000 -0.1179225021
C   C55       1.0  0.28830  0.20880  0.41670  1.0000 -0.1179225021
C   C56       1.0  0.38250  0.62190  0.30600  1.0000 -0.1292232242
C   C57       1.0  0.51990  0.13890  0.12440  1.0000 0.5937068793
C   C58       1.0  0.54300  0.22730  0.19790  1.0000 -0.1179225021
C   C59       1.0  0.20880  0.79210  0.92050  1.0000 -0.1179225021
C   C60       1.0  0.62190  0.31590  0.23940  1.0000 -0.1292232242
C   C61       1.0  0.01450  0.39550  0.87560  1.0000 0.5937068793
C   C62       1.0  0.02940  0.34510  0.80210  1.0000 -0.1179225021
C   C63       1.0  0.87160  0.28830  0.07950  1.0000 -0.1179225021
C   C64       1.0  0.07650  0.38250  0.76060  1.0000 -0.1292232242
C   C65       1.0  0.76120  0.31980  0.00000  1.0000 -0.1128201675
C   C66       1.0  0.31980  0.76120  0.00000  1.0000 -0.1128201675
C   C67       1.0  0.31980  0.31980  0.55860  1.0000 -0.1128201675
C   C68       1.0  0.76120  0.76120  0.44140  1.0000 -0.1128201675
C   C69       1.0  0.23880  0.23880  0.55860  1.0000 -0.1128201675
C   C70       1.0  0.68020  0.68020  0.44140  1.0000 -0.1128201675
C   C71       1.0  0.68020  0.23880  0.00000  1.0000 -0.1128201675
C   C72       1.0  0.23880  0.68020  0.00000  1.0000 -0.1128201675
S   S1        1.0  0.22563  0.46864  0.24301  1.0000 0.1491606622
S   S2        1.0  0.22563  0.98262  0.75699  1.0000 0.1491606622
S   S3        1.0  0.46864  0.22563  0.24301  1.0000 0.1491606622
S   S4        1.0  0.98262  0.22563  0.75699  1.0000 0.1491606622
S   S5        1.0  0.77437  0.01738  0.24301  1.0000 0.1491606622
S   S6        1.0  0.77437  0.53136  0.75699  1.0000 0.1491606622
S   S7        1.0  0.53136  0.77437  0.75699  1.0000 0.1491606622
S   S8        1.0  0.01738  0.77437  0.24301  1.0000 0.1491606622
N   N1        1.0  0.83610  0.29970  0.00000  1.0000 -0.0978526431
N   N2        1.0  0.29970  0.83610  0.00000  1.0000 -0.0978526431
N   N3        1.0  0.29970  0.29970  0.46360  1.0000 -0.0978526431
N   N4        1.0  0.83610  0.83610  0.53640  1.0000 -0.0978526431
N   N5        1.0  0.16390  0.16390  0.46360  1.0000 -0.0978526431
N   N6        1.0  0.70030  0.70030  0.53640  1.0000 -0.0978526431
N   N7        1.0  0.70030  0.16390  0.00000  1.0000 -0.0978526431
N   N8        1.0  0.16390  0.70030  0.00000  1.0000 -0.0978526431
O   O1        1.0  0.06343  0.44272  0.09679  1.0000 -0.5445204642
O   O2        1.0  0.14864  0.57927  0.09691  1.0000 -0.5496705825
O   O3        1.0  0.34593  0.96664  0.90321  1.0000 -0.5496705825
O   O4        1.0  0.48236  0.05173  0.90309  1.0000 -0.5496705825
O   O5        1.0  0.44272  0.34593  0.37929  1.0000 -0.5445204642
O   O6        1.0  0.57927  0.48236  0.43063  1.0000 -0.5496705825
O   O7        1.0  0.96664  0.06343  0.62071  1.0000 -0.5445204642
O   O8        1.0  0.05173  0.14864  0.56937  1.0000 -0.5496705825
O   O9        1.0  0.93657  0.03336  0.37929  1.0000 -0.5445204642
O   O10       1.0  0.85136  0.94827  0.43063  1.0000 -0.5496705825
O   O11       1.0  0.65407  0.55728  0.62071  1.0000 -0.5445204642
O   O12       1.0  0.51764  0.42073  0.56937  1.0000 -0.5496705825
O   O13       1.0  0.55728  0.93657  0.90321  1.0000 -0.5445204642
O   O14       1.0  0.42073  0.85136  0.90309  1.0000 -0.5496705825
O   O15       1.0  0.03336  0.65407  0.09679  1.0000 -0.5445204642
O   O16       1.0  0.94827  0.51764  0.09691  1.0000 -0.5496705825
O   O17       1.0  0.93657  0.55728  0.90321  1.0000 -0.5445204642
O   O18       1.0  0.85136  0.42073  0.90309  1.0000 -0.5496705825
O   O19       1.0  0.65407  0.03336  0.09679  1.0000 -0.5445204642
O   O20       1.0  0.51764  0.94827  0.09691  1.0000 -0.5496705825
O   O21       1.0  0.55728  0.65407  0.62071  1.0000 -0.5445204642
O   O22       1.0  0.42073  0.51764  0.56937  1.0000 -0.5496705825
O   O23       1.0  0.03336  0.93657  0.37929  1.0000 -0.5445204642
O   O24       1.0  0.94827  0.85136  0.43063  1.0000 -0.5496705825
O   O25       1.0  0.06343  0.96664  0.62071  1.0000 -0.5445204642
O   O26       1.0  0.14864  0.05173  0.56937  1.0000 -0.5496705825
O   O27       1.0  0.34593  0.44272  0.37929  1.0000 -0.5445204642
O   O28       1.0  0.48236  0.57927  0.43063  1.0000 -0.5496705825
O   O29       1.0  0.44272  0.06343  0.09679  1.0000 -0.5445204642
O   O30       1.0  0.57927  0.14864  0.09691  1.0000 -0.5496705825
O   O31       1.0  0.96664  0.34593  0.90321  1.0000 -0.5445204642
O   O32       1.0  0.05173  0.48236  0.90309  1.0000 -0.5496705825
