# DDEC6 charges by PACMAN v1.1 (https://github.com/mtap-research/PACMAN-charge/)
data_2018[Mn][sql]2[ASR]1
_chemical_formula_sum              "Mn2 H44 C68 N4 O16"
_cell_length_a       14.0324
_cell_length_b       14.0324
_cell_length_c       14.0324
_cell_angle_alpha    143.41
_cell_angle_beta     113.179
_cell_angle_gamma    78.6667

_symmetry_space_group_name_H-M    "P 1"
_symmetry_Int_Tables_number       1

loop_
  _symmetry_equiv_pos_as_xyz
  'x, y, z'

loop_
  _atom_site_type_symbol
  _atom_site_label
  _atom_site_symmetry_multiplicity
  _atom_site_fract_x
  _atom_site_fract_y
  _atom_site_fract_z
  _atom_site_occupancy
  _atom_site_charge
Mn  Mn1       1.0  0.75000  0.50000  0.25000  1.0000 0.9838233067
Mn  Mn2       1.0  0.25000  0.50000  0.75000  1.0000 0.9838233067
H   H1        1.0  0.05450  0.07670  0.76380  1.0000 0.130982113
H   H2        1.0  0.29690  0.32550  0.13020  1.0000 0.130982113
H   H3        1.0  0.43970  0.22820  0.04170  1.0000 0.130982113
H   H4        1.0  0.52570  0.15200  0.88490  1.0000 0.1498528643
H   H5        1.0  0.59120  0.05350  0.72070  1.0000 0.1235977448
H   H6        1.0  0.68710  0.92330  0.97780  1.0000 0.130982113
H   H7        1.0  0.80470  0.67450  0.97140  1.0000 0.130982113
H   H8        1.0  0.81350  0.77180  0.21150  1.0000 0.130982113
H   H9        1.0  0.73290  0.84800  0.37370  1.0000 0.1498528643
H   H10       1.0  0.66720  0.94650  0.53770  1.0000 0.1235977448
H   H11       1.0  0.81290  0.29070  0.73620  1.0000 0.130982113
H   H12       1.0  0.69530  0.16670  0.36980  1.0000 0.130982113
H   H13       1.0  0.68650  0.39800  0.45830  1.0000 0.130982113
H   H14       1.0  0.76710  0.64080  0.61510  1.0000 0.1498528643
H   H15       1.0  0.83280  0.87050  0.77930  1.0000 0.1235977448
H   H16       1.0  0.44550  0.70930  0.52220  1.0000 0.130982113
H   H17       1.0  0.20310  0.83330  0.52860  1.0000 0.130982113
H   H18       1.0  0.06030  0.60200  0.28850  1.0000 0.130982113
H   H19       1.0  0.97430  0.35920  0.12630  1.0000 0.1498528643
H   H20       1.0  0.90880  0.12950  0.96230  1.0000 0.1235977448
H   H21       1.0  0.94550  0.92330  0.23620  1.0000 0.130982113
H   H22       1.0  0.70310  0.67450  0.86980  1.0000 0.130982113
H   H23       1.0  0.56030  0.77180  0.95830  1.0000 0.130982113
H   H24       1.0  0.47430  0.84800  0.11510  1.0000 0.1498528643
H   H25       1.0  0.40880  0.94650  0.27930  1.0000 0.1235977448
H   H26       1.0  0.31290  0.07670  0.02220  1.0000 0.130982113
H   H27       1.0  0.19530  0.32550  0.02860  1.0000 0.130982113
H   H28       1.0  0.18650  0.22820  0.78850  1.0000 0.130982113
H   H29       1.0  0.26710  0.15200  0.62630  1.0000 0.1498528643
H   H30       1.0  0.33280  0.05350  0.46230  1.0000 0.1235977448
H   H31       1.0  0.18710  0.70930  0.26380  1.0000 0.130982113
H   H32       1.0  0.30470  0.83330  0.63020  1.0000 0.130982113
H   H33       1.0  0.31350  0.60200  0.54170  1.0000 0.130982113
H   H34       1.0  0.23290  0.35920  0.38490  1.0000 0.1498528643
H   H35       1.0  0.16720  0.12950  0.22070  1.0000 0.1235977448
H   H36       1.0  0.55450  0.29070  0.47780  1.0000 0.130982113
H   H37       1.0  0.79690  0.16670  0.47140  1.0000 0.130982113
H   H38       1.0  0.93970  0.39800  0.71150  1.0000 0.130982113
H   H39       1.0  0.02570  0.64080  0.87370  1.0000 0.1498528643
H   H40       1.0  0.09120  0.87050  0.03770  1.0000 0.1235977448
H   H41       1.0  0.06270  0.69910  0.63640  1.0000 0.130982113
H   H42       1.0  0.93730  0.30090  0.36360  1.0000 0.130982113
H   H43       1.0  0.56270  0.42630  0.86360  1.0000 0.130982113
H   H44       1.0  0.43730  0.57370  0.13640  1.0000 0.130982113
C   C1        1.0  0.93200  0.79250  0.53330  1.0000 0.5308432727
C   C2        1.0  0.04160  0.87500  0.67760  1.0000 -0.0165614785
C   C3        1.0  0.09050  0.02600  0.78130  1.0000 -0.1895922665
C   C4        1.0  0.40440  0.20980  0.95500  1.0000 0.0315601638
C   C5        1.0  0.45580  0.16330  0.86050  1.0000 -0.1772330982
C   C6        1.0  0.55430  0.03260  0.63230  1.0000 -0.121481307
C   C7        1.0  0.74080  0.20750  0.13950  1.0000 0.5308432727
C   C8        1.0  0.80260  0.12500  0.16660  1.0000 -0.0165614785
C   C9        1.0  0.75530  0.97400  0.06450  1.0000 -0.1895922665
C   C10       1.0  0.74520  0.79020  0.19460  1.0000 0.0315601638
C   C11       1.0  0.69720  0.83670  0.29250  1.0000 -0.1772330982
C   C12       1.0  0.59970  0.96740  0.52170  1.0000 -0.121481307
C   C13       1.0  0.75920  0.39870  0.96670  1.0000 0.5308432727
C   C14       1.0  0.69740  0.36400  0.82240  1.0000 -0.0165614785
C   C15       1.0  0.74470  0.30920  0.71870  1.0000 -0.1895922665
C   C16       1.0  0.75480  0.44940  0.54500  1.0000 0.0315601638
C   C17       1.0  0.80280  0.59530  0.63950  1.0000 -0.1772330982
C   C18       1.0  0.90030  0.92200  0.86770  1.0000 -0.121481307
C   C19       1.0  0.56800  0.60130  0.36050  1.0000 0.5308432727
C   C20       1.0  0.45840  0.63600  0.33340  1.0000 -0.0165614785
C   C21       1.0  0.40950  0.69080  0.43550  1.0000 -0.1895922665
C   C22       1.0  0.09560  0.55060  0.30540  1.0000 0.0315601638
C   C23       1.0  0.04420  0.40470  0.20750  1.0000 -0.1772330982
C   C24       1.0  0.94570  0.07800  0.97830  1.0000 -0.121481307
C   C25       1.0  0.06800  0.20750  0.46670  1.0000 0.5308432727
C   C26       1.0  0.95840  0.12500  0.32240  1.0000 -0.0165614785
C   C27       1.0  0.90950  0.97400  0.21870  1.0000 -0.1895922665
C   C28       1.0  0.59560  0.79020  0.04500  1.0000 0.0315601638
C   C29       1.0  0.54420  0.83670  0.13950  1.0000 -0.1772330982
C   C30       1.0  0.44570  0.96740  0.36770  1.0000 -0.121481307
C   C31       1.0  0.25920  0.79250  0.86050  1.0000 0.5308432727
C   C32       1.0  0.19740  0.87500  0.83340  1.0000 -0.0165614785
C   C33       1.0  0.24470  0.02600  0.93550  1.0000 -0.1895922665
C   C34       1.0  0.25480  0.20980  0.80540  1.0000 0.0315601638
C   C35       1.0  0.30280  0.16330  0.70750  1.0000 -0.1772330982
C   C36       1.0  0.40030  0.03260  0.47830  1.0000 -0.121481307
C   C37       1.0  0.24080  0.60130  0.03330  1.0000 0.5308432727
C   C38       1.0  0.30260  0.63600  0.17760  1.0000 -0.0165614785
C   C39       1.0  0.25530  0.69080  0.28130  1.0000 -0.1895922665
C   C40       1.0  0.24520  0.55060  0.45500  1.0000 0.0315601638
C   C41       1.0  0.19720  0.40470  0.36050  1.0000 -0.1772330982
C   C42       1.0  0.09970  0.07800  0.13230  1.0000 -0.121481307
C   C43       1.0  0.43200  0.39870  0.63950  1.0000 0.5308432727
C   C44       1.0  0.54160  0.36400  0.66667  1.0000 -0.0165614785
C   C45       1.0  0.59050  0.30920  0.56450  1.0000 -0.1895922665
C   C46       1.0  0.90440  0.44940  0.69460  1.0000 0.0315601638
C   C47       1.0  0.95580  0.59530  0.79250  1.0000 -0.1772330982
C   C48       1.0  0.05430  0.92200  0.02170  1.0000 -0.121481307
C   C49       1.0  0.09530  0.80010  0.70480  1.0000 -0.1360441224
C   C50       1.0  0.19200  0.10250  0.91050  1.0000 0.0871639325
C   C51       1.0  0.24720  0.26210  0.01490  1.0000 -0.203083113
C   C52       1.0  0.40430  0.13270  0.72840  1.0000 0.130982113
C   C53       1.0  0.45440  0.06660  0.61220  1.0000 0.0640694796
C   C54       1.0  0.90470  0.19990  0.29520  1.0000 -0.1360441224
C   C55       1.0  0.80800  0.89750  0.08950  1.0000 0.0871639325
C   C56       1.0  0.75280  0.73790  0.98510  1.0000 -0.203083113
C   C57       1.0  0.59570  0.86730  0.27160  1.0000 0.130982113
C   C58       1.0  0.54560  0.93340  0.38780  1.0000 0.0640694796
C   C59       1.0  0.59530  0.39050  0.79520  1.0000 -0.1360441224
C   C60       1.0  0.69200  0.28150  0.58950  1.0000 0.0871639325
C   C61       1.0  0.74720  0.23230  0.48510  1.0000 -0.203083113
C   C62       1.0  0.90430  0.67590  0.77160  1.0000 0.130982113
C   C63       1.0  0.95440  0.84220  0.88780  1.0000 0.0640694796
C   C64       1.0  0.40470  0.60950  0.20480  1.0000 -0.1360441224
C   C65       1.0  0.30800  0.71850  0.41050  1.0000 0.0871639325
C   C66       1.0  0.25280  0.76770  0.51490  1.0000 -0.203083113
C   C67       1.0  0.09570  0.32410  0.22840  1.0000 0.130982113
C   C68       1.0  0.04560  0.15780  0.11220  1.0000 0.0640694796
N   N1        1.0  0.30480  0.22930  0.92450  1.0000 0.0871639325
N   N2        1.0  0.69520  0.77070  0.07550  1.0000 0.0871639325
N   N3        1.0  0.80480  0.38030  0.57550  1.0000 0.0871639325
N   N4        1.0  0.19520  0.61970  0.42450  1.0000 0.0871639325
O   O1        1.0  0.88666  0.67266  0.46580  1.0000 -0.5331079588
O   O2        1.0  0.89620  0.84170  0.48850  1.0000 -0.5173972698
O   O3        1.0  0.79314  0.32734  0.21400  1.0000 -0.5331079588
O   O4        1.0  0.64680  0.15830  0.05450  1.0000 -0.5173972698
O   O5        1.0  0.70686  0.42086  0.03420  1.0000 -0.5331079588
O   O6        1.0  0.85320  0.40770  0.01150  1.0000 -0.5173972698
O   O7        1.0  0.61334  0.57914  0.28600  1.0000 -0.5331079588
O   O8        1.0  0.60380  0.59230  0.44550  1.0000 -0.5173972698
O   O9        1.0  0.11334  0.32734  0.53420  1.0000 -0.5331079588
O   O10       1.0  0.10380  0.15830  0.51150  1.0000 -0.5173972698
O   O11       1.0  0.20686  0.67266  0.78600  1.0000 -0.5331079588
O   O12       1.0  0.35320  0.84170  0.94550  1.0000 -0.5173972698
O   O13       1.0  0.29314  0.57914  0.96580  1.0000 -0.5331079588
O   O14       1.0  0.14680  0.59230  0.98850  1.0000 -0.5173972698
O   O15       1.0  0.38666  0.42086  0.71400  1.0000 -0.5331079588
O   O16       1.0  0.39620  0.40770  0.55450  1.0000 -0.5173972698
