# DDEC6 charges by PACMAN v1.1 (https://github.com/mtap-research/PACMAN-charge/)
data_2018[U][lvt]3[ASR]1
_chemical_formula_sum              "U8 H48 C56 N40 O40"
_cell_length_a       22.131
_cell_length_b       22.131
_cell_length_c       22.131
_cell_angle_alpha    143.451
_cell_angle_beta     143.451
_cell_angle_gamma    52.6488

_symmetry_space_group_name_H-M    "P 1"
_symmetry_Int_Tables_number       1

loop_
  _symmetry_equiv_pos_as_xyz
  'x, y, z'

loop_
  _atom_site_type_symbol
  _atom_site_label
  _atom_site_symmetry_multiplicity
  _atom_site_fract_x
  _atom_site_fract_y
  _atom_site_fract_z
  _atom_site_occupancy
  _atom_site_charge
U   U1        1.0  0.36636  0.41045  0.39299  1.0000 1.8624614159
U   U2        1.0  0.01746  0.97337  0.60701  1.0000 1.8624614159
U   U3        1.0  0.16045  0.26746  0.54409  1.0000 1.8624614159
U   U4        1.0  0.72337  0.61636  0.45591  1.0000 1.8624614159
U   U5        1.0  0.38364  0.83955  0.10701  1.0000 1.8624614159
U   U6        1.0  0.73254  0.27663  0.89299  1.0000 1.8624614159
U   U7        1.0  0.58955  0.98254  0.95591  1.0000 1.8624614159
U   U8        1.0  0.02663  0.63364  0.04409  1.0000 1.8624614159
H   H1        1.0  0.37980  0.05170  0.15490  1.0000 0.2710684332
H   H2        1.0  0.38250  0.68820  0.69890  1.0000 0.2876793573
H   H3        1.0  0.29930  0.07270  0.99860  1.0000 0.1277317534
H   H4        1.0  0.41810  0.08700  0.09710  1.0000 0.1352135966
H   H5        1.0  0.30160  0.85890  0.73610  1.0000 0.123622642
H   H6        1.0  0.31210  0.76440  0.62730  1.0000 0.1277317534
H   H7        1.0  0.89680  0.22490  0.84510  1.0000 0.2710684332
H   H8        1.0  0.98930  0.68360  0.30110  1.0000 0.2876793573
H   H9        1.0  0.07410  0.30070  0.00140  1.0000 0.1277317534
H   H10       1.0  0.98990  0.32100  0.90290  1.0000 0.1352135966
H   H11       1.0  0.12280  0.56550  0.26390  1.0000 0.123622642
H   H12       1.0  0.13710  0.68480  0.37270  1.0000 0.123622642
H   H13       1.0  0.80170  0.14680  0.17190  1.0000 0.2710684332
H   H14       1.0  0.43820  0.23930  0.80570  1.0000 0.2876793573
H   H15       1.0  0.82270  0.32410  0.27340  1.0000 0.1277317534
H   H16       1.0  0.83700  0.23990  0.16890  1.0000 0.1352135966
H   H17       1.0  0.60890  0.37280  0.05730  1.0000 0.123622642
H   H18       1.0  0.51440  0.38710  0.95230  1.0000 0.1277317534
H   H19       1.0  0.97490  0.62980  0.82810  1.0000 0.2710684332
H   H20       1.0  0.43360  0.63250  0.19430  1.0000 0.2876793573
H   H21       1.0  0.05070  0.54930  0.72660  1.0000 0.1277317534
H   H22       1.0  0.07100  0.66810  0.83110  1.0000 0.1352135966
H   H23       1.0  0.31550  0.55160  0.94270  1.0000 0.123622642
H   H24       1.0  0.43480  0.56210  0.04770  1.0000 0.1277317534
H   H25       1.0  0.37020  0.19830  0.34510  1.0000 0.2710684332
H   H26       1.0  0.36750  0.56180  0.80110  1.0000 0.2876793573
H   H27       1.0  0.45070  0.17730  0.50140  1.0000 0.1277317534
H   H28       1.0  0.33190  0.16300  0.40290  1.0000 0.1352135966
H   H29       1.0  0.44840  0.39110  0.76390  1.0000 0.123622642
H   H30       1.0  0.43790  0.48560  0.87270  1.0000 0.1277317534
H   H31       1.0  0.85320  0.02510  0.65490  1.0000 0.2710684332
H   H32       1.0  0.76070  0.56640  0.19890  1.0000 0.2876793573
H   H33       1.0  0.67590  0.94930  0.49860  1.0000 0.1277317534
H   H34       1.0  0.76010  0.92900  0.59710  1.0000 0.1352135966
H   H35       1.0  0.62720  0.68450  0.23610  1.0000 0.123622642
H   H36       1.0  0.61290  0.56520  0.12730  1.0000 0.123622642
H   H37       1.0  0.94830  0.10320  0.32810  1.0000 0.2710684332
H   H38       1.0  0.31180  0.01070  0.69430  1.0000 0.2876793573
H   H39       1.0  0.92730  0.92590  0.22660  1.0000 0.1277317534
H   H40       1.0  0.91300  0.01010  0.33110  1.0000 0.1352135966
H   H41       1.0  0.14110  0.87720  0.44270  1.0000 0.123622642
H   H42       1.0  0.23560  0.86290  0.54770  1.0000 0.1277317534
H   H43       1.0  0.77510  0.62020  0.67190  1.0000 0.2710684332
H   H44       1.0  0.31640  0.61750  0.30570  1.0000 0.2876793573
H   H45       1.0  0.69930  0.70070  0.77340  1.0000 0.1277317534
H   H46       1.0  0.67900  0.58190  0.66890  1.0000 0.1352135966
H   H47       1.0  0.43450  0.69840  0.55730  1.0000 0.123622642
H   H48       1.0  0.31520  0.68790  0.45230  1.0000 0.1277317534
C   C1        1.0  0.36594  0.20084  0.19350  1.0000 0.5748941431
C   C2        1.0  0.36350  0.09370  0.08720  1.0000 -0.2117128952
C   C3        1.0  0.37785  0.92725  0.00840  1.0000 0.5351688991
C   C4        1.0  0.38632  0.77052  0.92760  1.0000 0.6168554703
C   C5        1.0  0.37741  0.79311  0.83790  1.0000 0.5095105896
C   C6        1.0  0.34797  0.81047  0.72210  1.0000 -0.2258634513
C   C7        1.0  0.43557  0.86707  0.80710  1.0000 0.5634423027
C   C8        1.0  0.00734  0.17244  0.80650  1.0000 0.5755440041
C   C9        1.0  0.00650  0.27630  0.91280  1.0000 -0.2117128952
C   C10       1.0  0.91885  0.36945  0.99160  1.0000 0.5351688991
C   C11       1.0  0.84292  0.45872  0.07240  1.0000 0.6168554703
C   C12       1.0  0.95521  0.53951  0.16210  1.0000 0.5095105896
C   C13       1.0  0.08837  0.62587  0.27790  1.0000 -0.2258634513
C   C14       1.0  0.05997  0.62847  0.19290  1.0000 0.5634423027
C   C15       1.0  0.95084  0.25734  0.33490  1.0000 0.5755440041
C   C16       1.0  0.84370  0.25650  0.23020  1.0000 -0.2117128952
C   C17       1.0  0.67725  0.16885  0.04940  1.0000 0.5351688991
C   C18       1.0  0.52052  0.09292  0.88420  1.0000 0.6168554703
C   C19       1.0  0.54311  0.20521  0.91570  1.0000 0.5095105896
C   C20       1.0  0.56047  0.33837  0.96250  1.0000 -0.2258634513
C   C21       1.0  0.61707  0.30997  0.93150  1.0000 0.5634423027
C   C22       1.0  0.92244  0.61594  0.66510  1.0000 0.5755440041
C   C23       1.0  0.02630  0.61350  0.76980  1.0000 -0.2117128952
C   C24       1.0  0.11945  0.62785  0.95060  1.0000 0.5351688991
C   C25       1.0  0.20872  0.63632  0.11580  1.0000 0.6168554703
C   C26       1.0  0.28951  0.62741  0.08430  1.0000 0.5095105896
C   C27       1.0  0.37587  0.59797  0.03750  1.0000 -0.2258634513
C   C28       1.0  0.37847  0.68557  0.06850  1.0000 0.5634423027
C   C29       1.0  0.38406  0.04916  0.30650  1.0000 0.5755440041
C   C30       1.0  0.38650  0.15630  0.41280  1.0000 -0.2117128952
C   C31       1.0  0.37215  0.32275  0.49160  1.0000 0.5351688991
C   C32       1.0  0.36368  0.47948  0.57240  1.0000 0.6168554703
C   C33       1.0  0.37259  0.45689  0.66210  1.0000 0.5095105896
C   C34       1.0  0.40203  0.43953  0.77790  1.0000 -0.2258634513
C   C35       1.0  0.31443  0.38293  0.69290  1.0000 0.5634423027
C   C36       1.0  0.74266  0.07756  0.69350  1.0000 0.5755440041
C   C37       1.0  0.74350  0.97370  0.58720  1.0000 -0.2117128952
C   C38       1.0  0.83115  0.88055  0.50840  1.0000 0.5351688991
C   C39       1.0  0.90708  0.79128  0.42760  1.0000 0.6168554703
C   C40       1.0  0.79479  0.71049  0.33790  1.0000 0.5095105896
C   C41       1.0  0.66163  0.62413  0.22210  1.0000 -0.2258634513
C   C42       1.0  0.69003  0.62153  0.30710  1.0000 0.5634423027
C   C43       1.0  0.79916  0.99266  0.16510  1.0000 0.5755440041
C   C44       1.0  0.90630  0.99350  0.26980  1.0000 -0.2117128952
C   C45       1.0  0.07275  0.08115  0.45060  1.0000 0.5351688991
C   C46       1.0  0.22948  0.15708  0.61580  1.0000 0.6168554703
C   C47       1.0  0.20689  0.04479  0.58430  1.0000 0.5095105896
C   C48       1.0  0.18953  0.91163  0.53750  1.0000 -0.2258634513
C   C49       1.0  0.13293  0.94003  0.56850  1.0000 0.5634423027
C   C50       1.0  0.82756  0.63406  0.83490  1.0000 0.5755440041
C   C51       1.0  0.72370  0.63650  0.73020  1.0000 -0.2117128952
C   C52       1.0  0.63055  0.62215  0.54940  1.0000 0.5351688991
C   C53       1.0  0.54128  0.61368  0.38420  1.0000 0.6168554703
C   C54       1.0  0.46049  0.62259  0.41570  1.0000 0.5095105896
C   C55       1.0  0.37413  0.65203  0.46250  1.0000 -0.2258634513
C   C56       1.0  0.37153  0.56443  0.43150  1.0000 0.5634423027
N   N1        1.0  0.37484  0.02614  0.09370  1.0000 -0.3264182826
N   N2        1.0  0.38470  0.86920  0.01670  1.0000 -0.6742872297
N   N3        1.0  0.38483  0.72863  0.83900  1.0000 -0.5142144134
N   N4        1.0  0.37453  0.89213  0.92080  1.0000 -0.5590056723
N   N5        1.0  0.37159  0.75249  0.74630  1.0000 -0.293050701
N   N6        1.0  0.93244  0.28114  0.90630  1.0000 -0.3264182826
N   N7        1.0  0.85250  0.36800  0.98330  1.0000 -0.6753620376
N   N8        1.0  0.88963  0.54583  0.16100  1.0000 -0.5142144134
N   N9        1.0  0.97133  0.45373  0.07920  1.0000 -0.5590056723
N   N10       1.0  0.00619  0.62529  0.25370  1.0000 -0.293050701
N   N11       1.0  0.77614  0.18244  0.15130  1.0000 -0.3264182826
N   N12       1.0  0.61920  0.10250  0.98450  1.0000 -0.6742872297
N   N13       1.0  0.47863  0.13963  0.84380  1.0000 -0.5142144134
N   N14       1.0  0.64213  0.22133  0.01760  1.0000 -0.5590056723
N   N15       1.0  0.50249  0.25619  0.88090  1.0000 -0.293050701
N   N16       1.0  0.03114  0.62484  0.84870  1.0000 -0.3264182826
N   N17       1.0  0.11800  0.63470  0.01550  1.0000 -0.6742872297
N   N18       1.0  0.29583  0.63483  0.15620  1.0000 -0.5142144134
N   N19       1.0  0.20373  0.62453  0.98240  1.0000 -0.5590056723
N   N20       1.0  0.37529  0.62159  0.11910  1.0000 -0.293050701
N   N21       1.0  0.37516  0.22386  0.40630  1.0000 -0.3264182826
N   N22       1.0  0.36530  0.38080  0.48330  1.0000 -0.6742872297
N   N23       1.0  0.36517  0.52137  0.66100  1.0000 -0.5142144134
N   N24       1.0  0.37547  0.35787  0.57920  1.0000 -0.5590056723
N   N25       1.0  0.37841  0.49751  0.75370  1.0000 -0.293050701
N   N26       1.0  0.81756  0.96886  0.59370  1.0000 -0.3264182826
N   N27       1.0  0.89750  0.88200  0.51670  1.0000 -0.6742872297
N   N28       1.0  0.86037  0.70417  0.33900  1.0000 -0.5142144134
N   N29       1.0  0.77867  0.79627  0.42080  1.0000 -0.5590056723
N   N30       1.0  0.74381  0.62471  0.24630  1.0000 -0.293050701
N   N31       1.0  0.97386  0.06756  0.34870  1.0000 -0.3264182826
N   N32       1.0  0.13080  0.14750  0.51550  1.0000 -0.6742872297
N   N33       1.0  0.27137  0.11037  0.65620  1.0000 -0.5142144134
N   N34       1.0  0.10787  0.02867  0.48240  1.0000 -0.5590056723
N   N35       1.0  0.24751  0.99381  0.61910  1.0000 -0.293050701
N   N36       1.0  0.71886  0.62516  0.65130  1.0000 -0.3264182826
N   N37       1.0  0.63200  0.61530  0.48450  1.0000 -0.6742872297
N   N38       1.0  0.45417  0.61517  0.34380  1.0000 -0.5142144134
N   N39       1.0  0.54627  0.62547  0.51760  1.0000 -0.5590056723
N   N40       1.0  0.37471  0.62841  0.38090  1.0000 -0.293050701
O   O1        1.0  0.36364  0.26714  0.20590  1.0000 -0.54276081
O   O2        1.0  0.36685  0.22465  0.26900  1.0000 -0.6189923158
O   O3        1.0  0.38831  0.71381  0.93110  1.0000 -0.6278113668
O   O4        1.0  0.52612  0.86942  0.89810  1.0000 -0.54276081
O   O5        1.0  0.41380  0.91690  0.78370  1.0000 -0.5979094079
O   O6        1.0  0.06124  0.15774  0.79410  1.0000 -0.54276081
O   O7        1.0  0.95565  0.09785  0.73100  1.0000 -0.6189923158
O   O8        1.0  0.78271  0.45721  0.06890  1.0000 -0.6278113668
O   O9        1.0  0.97132  0.62802  0.10190  1.0000 -0.54276081
O   O10       1.0  0.13320  0.63010  0.21630  1.0000 -0.5979094079
O   O11       1.0  0.01714  0.31124  0.40350  1.0000 -0.54276081
O   O12       1.0  0.97465  0.20565  0.35780  1.0000 -0.6189923158
O   O13       1.0  0.46381  0.03271  0.82550  1.0000 -0.6278113668
O   O14       1.0  0.61942  0.22132  0.84330  1.0000 -0.54276081
O   O15       1.0  0.66690  0.38320  0.00310  1.0000 -0.5979094079
O   O16       1.0  0.90774  0.61364  0.59650  1.0000 -0.54276081
O   O17       1.0  0.84785  0.61685  0.64220  1.0000 -0.6189923158
O   O18       1.0  0.20721  0.63831  0.17450  1.0000 -0.6278113668
O   O19       1.0  0.37802  0.77612  0.15670  1.0000 -0.54276081
O   O20       1.0  0.38010  0.66380  0.99690  1.0000 -0.5979094079
O   O21       1.0  0.38636  0.98286  0.29410  1.0000 -0.54276081
O   O22       1.0  0.38315  0.02535  0.23100  1.0000 -0.6189923158
O   O23       1.0  0.36169  0.53619  0.56890  1.0000 -0.6278113668
O   O24       1.0  0.22388  0.38058  0.60190  1.0000 -0.54276081
O   O25       1.0  0.33620  0.33310  0.71630  1.0000 -0.5979094079
O   O26       1.0  0.68876  0.09226  0.70590  1.0000 -0.54276081
O   O27       1.0  0.79435  0.15215  0.76900  1.0000 -0.6189923158
O   O28       1.0  0.96729  0.79279  0.43110  1.0000 -0.6278113668
O   O29       1.0  0.77868  0.62198  0.39810  1.0000 -0.54276081
O   O30       1.0  0.61680  0.61990  0.28370  1.0000 -0.5979094079
O   O31       1.0  0.73286  0.93876  0.09650  1.0000 -0.54276081
O   O32       1.0  0.77535  0.04435  0.14220  1.0000 -0.6189923158
O   O33       1.0  0.28619  0.21729  0.67450  1.0000 -0.6278113668
O   O34       1.0  0.13058  0.02868  0.65670  1.0000 -0.54276081
O   O35       1.0  0.08310  0.86680  0.49690  1.0000 -0.5979094079
O   O36       1.0  0.84226  0.63636  0.90350  1.0000 -0.54276081
O   O37       1.0  0.90215  0.63315  0.85780  1.0000 -0.6189923158
O   O38       1.0  0.54279  0.61169  0.32550  1.0000 -0.6278113668
O   O39       1.0  0.37198  0.47388  0.34330  1.0000 -0.54276081
O   O40       1.0  0.36990  0.58620  0.50310  1.0000 -0.5979094079
