# DDEC6 charges by PACMAN v1.1 (https://github.com/mtap-research/PACMAN-charge/)
data_2018[Gd][nan]3[ASR]8
_chemical_formula_sum              "Gd3 H45 C81 O18"
_cell_length_a       16.9786
_cell_length_b       16.9786
_cell_length_c       16.9786
_cell_angle_alpha    114.442
_cell_angle_beta     114.442
_cell_angle_gamma    114.442

_symmetry_space_group_name_H-M    "P 1"
_symmetry_Int_Tables_number       1

loop_
  _symmetry_equiv_pos_as_xyz
  'x, y, z'

loop_
  _atom_site_type_symbol
  _atom_site_label
  _atom_site_symmetry_multiplicity
  _atom_site_fract_x
  _atom_site_fract_y
  _atom_site_fract_z
  _atom_site_occupancy
  _atom_site_charge
Gd  Gd1       1.0  0.32334  0.00000  0.67666  1.0000 2.0293425371
Gd  Gd2       1.0  0.67666  0.32334  0.00000  1.0000 2.0293425371
Gd  Gd3       1.0  0.00000  0.67666  0.32334  1.0000 2.0293425371
H   H1        1.0  0.53480  0.13960  0.12120  1.0000 0.1255192011
H   H2        1.0  0.53030  0.05690  0.19970  1.0000 0.1156996531
H   H3        1.0  0.42810  0.90870  0.19180  1.0000 0.1130966633
H   H4        1.0  0.27570  0.80430  0.18640  1.0000 0.1156996531
H   H5        1.0  0.53520  0.85560  0.42790  1.0000 0.1130966633
H   H6        1.0  0.20890  0.81300  0.28020  1.0000 0.1255192011
H   H7        1.0  0.47220  0.86980  0.52530  1.0000 0.1255192011
H   H8        1.0  0.12120  0.53480  0.13960  1.0000 0.1255192011
H   H9        1.0  0.19970  0.53030  0.05690  1.0000 0.1156996531
H   H10       1.0  0.19180  0.42810  0.90870  1.0000 0.1130966633
H   H11       1.0  0.18640  0.27570  0.80430  1.0000 0.1156996531
H   H12       1.0  0.42790  0.53520  0.85560  1.0000 0.1130966633
H   H13       1.0  0.28020  0.20890  0.81300  1.0000 0.1255192011
H   H14       1.0  0.52530  0.47220  0.86980  1.0000 0.1255192011
H   H15       1.0  0.13960  0.12120  0.53480  1.0000 0.1255192011
H   H16       1.0  0.05690  0.19970  0.53030  1.0000 0.1156996531
H   H17       1.0  0.90870  0.19180  0.42810  1.0000 0.1130966633
H   H18       1.0  0.80430  0.18640  0.27570  1.0000 0.1156996531
H   H19       1.0  0.85560  0.42790  0.53520  1.0000 0.1130966633
H   H20       1.0  0.81300  0.28020  0.20890  1.0000 0.1255192011
H   H21       1.0  0.86980  0.52530  0.47220  1.0000 0.1255192011
H   H22       1.0  0.46520  0.87880  0.86040  1.0000 0.1255192011
H   H23       1.0  0.46970  0.80030  0.94310  1.0000 0.1156996531
H   H24       1.0  0.57190  0.80820  0.09130  1.0000 0.1130966633
H   H25       1.0  0.72430  0.81360  0.19570  1.0000 0.1156996531
H   H26       1.0  0.46480  0.57210  0.14440  1.0000 0.1130966633
H   H27       1.0  0.79110  0.71980  0.18700  1.0000 0.1255192011
H   H28       1.0  0.52780  0.47470  0.13020  1.0000 0.1255192011
H   H29       1.0  0.87880  0.86040  0.46520  1.0000 0.1255192011
H   H30       1.0  0.80030  0.94310  0.46970  1.0000 0.1156996531
H   H31       1.0  0.80820  0.09130  0.57190  1.0000 0.1130966633
H   H32       1.0  0.81360  0.19570  0.72430  1.0000 0.1156996531
H   H33       1.0  0.57210  0.14440  0.46480  1.0000 0.1130966633
H   H34       1.0  0.71980  0.18700  0.79110  1.0000 0.1255192011
H   H35       1.0  0.47470  0.13020  0.52780  1.0000 0.1255192011
H   H36       1.0  0.86040  0.46520  0.87880  1.0000 0.1255192011
H   H37       1.0  0.94310  0.46970  0.80030  1.0000 0.1156996531
H   H38       1.0  0.09130  0.57190  0.80820  1.0000 0.1130966633
H   H39       1.0  0.19570  0.72430  0.81360  1.0000 0.1156996531
H   H40       1.0  0.14440  0.46480  0.57210  1.0000 0.1130966633
H   H41       1.0  0.18700  0.79110  0.71980  1.0000 0.1255192011
H   H42       1.0  0.13020  0.52780  0.47470  1.0000 0.1255192011
H   H43       1.0  0.50000  0.73735  0.26265  1.0000 0.1130966633
H   H44       1.0  0.26265  0.50000  0.73735  1.0000 0.1130966633
H   H45       1.0  0.73735  0.26265  0.50000  1.0000 0.1130966633
C   C1        1.0  0.52005  0.06990  0.08415  1.0000 -0.0951059163
C   C2        1.0  0.51859  0.02101  0.13180  1.0000 -0.1621430144
C   C3        1.0  0.45717  0.87256  0.18807  1.0000 -0.1947210035
C   C4        1.0  0.45760  0.82460  0.23710  1.0000 0.0765936399
C   C5        1.0  0.41336  0.83020  0.29734  1.0000 0.0660693421
C   C6        1.0  0.31542  0.81685  0.25443  1.0000 -0.1507193
C   C7        1.0  0.46998  0.84802  0.39840  1.0000 -0.1621430144
C   C8        1.0  0.27493  0.82170  0.31017  1.0000 -0.0844934285
C   C9        1.0  0.43119  0.85480  0.45591  1.0000 -0.0887653605
C   C10       1.0  0.33365  0.83976  0.41189  1.0000 -0.0245731971
C   C11       1.0  0.29762  0.85648  0.47950  1.0000 0.6113794296
C   C12       1.0  0.08415  0.52005  0.06990  1.0000 -0.0951059163
C   C13       1.0  0.13180  0.51859  0.02101  1.0000 -0.1621430144
C   C14       1.0  0.18807  0.45717  0.87256  1.0000 -0.1947210035
C   C15       1.0  0.23710  0.45760  0.82460  1.0000 0.0765936399
C   C16       1.0  0.29734  0.41336  0.83020  1.0000 0.0660693421
C   C17       1.0  0.25443  0.31542  0.81685  1.0000 -0.1507193
C   C18       1.0  0.39840  0.46998  0.84802  1.0000 -0.1621430144
C   C19       1.0  0.31017  0.27493  0.82170  1.0000 -0.0844934285
C   C20       1.0  0.45591  0.43119  0.85480  1.0000 -0.0887653605
C   C21       1.0  0.41189  0.33365  0.83976  1.0000 -0.0245731971
C   C22       1.0  0.47950  0.29762  0.85648  1.0000 0.6113794296
C   C23       1.0  0.06990  0.08415  0.52005  1.0000 -0.0951059163
C   C24       1.0  0.02101  0.13180  0.51859  1.0000 -0.1621430144
C   C25       1.0  0.87256  0.18807  0.45717  1.0000 -0.1947210035
C   C26       1.0  0.82460  0.23710  0.45760  1.0000 0.0765936399
C   C27       1.0  0.83020  0.29734  0.41336  1.0000 0.0660693421
C   C28       1.0  0.81685  0.25443  0.31542  1.0000 -0.1507193
C   C29       1.0  0.84802  0.39840  0.46998  1.0000 -0.1621430144
C   C30       1.0  0.82170  0.31017  0.27493  1.0000 -0.0844934285
C   C31       1.0  0.85480  0.45591  0.43119  1.0000 -0.0887653605
C   C32       1.0  0.83976  0.41189  0.33365  1.0000 -0.0245731971
C   C33       1.0  0.85648  0.47950  0.29762  1.0000 0.6113794296
C   C34       1.0  0.47995  0.91585  0.93010  1.0000 -0.0951059163
C   C35       1.0  0.48141  0.86820  0.97899  1.0000 -0.1621430144
C   C36       1.0  0.54283  0.81193  0.12744  1.0000 -0.1947210035
C   C37       1.0  0.54240  0.76290  0.17540  1.0000 0.0765936399
C   C38       1.0  0.58664  0.70266  0.16980  1.0000 0.0660693421
C   C39       1.0  0.68458  0.74557  0.18315  1.0000 -0.1507193
C   C40       1.0  0.53002  0.60160  0.15198  1.0000 -0.1621430144
C   C41       1.0  0.72507  0.68983  0.17830  1.0000 -0.0844934285
C   C42       1.0  0.56881  0.54409  0.14520  1.0000 -0.0887653605
C   C43       1.0  0.66635  0.58811  0.16024  1.0000 -0.0245731971
C   C44       1.0  0.70238  0.52050  0.14352  1.0000 0.6113794296
C   C45       1.0  0.91585  0.93010  0.47995  1.0000 -0.0951059163
C   C46       1.0  0.86820  0.97899  0.48141  1.0000 -0.1621430144
C   C47       1.0  0.81193  0.12744  0.54283  1.0000 -0.1947210035
C   C48       1.0  0.76290  0.17540  0.54240  1.0000 0.0765936399
C   C49       1.0  0.70266  0.16980  0.58664  1.0000 0.0660693421
C   C50       1.0  0.74557  0.18315  0.68458  1.0000 -0.1507193
C   C51       1.0  0.60160  0.15198  0.53002  1.0000 -0.1621430144
C   C52       1.0  0.68983  0.17830  0.72507  1.0000 -0.0844934285
C   C53       1.0  0.54409  0.14520  0.56881  1.0000 -0.0887653605
C   C54       1.0  0.58811  0.16024  0.66635  1.0000 -0.0245731971
C   C55       1.0  0.52050  0.14352  0.70238  1.0000 0.6113794296
C   C56       1.0  0.93010  0.47995  0.91585  1.0000 -0.0951059163
C   C57       1.0  0.97899  0.48141  0.86820  1.0000 -0.1621430144
C   C58       1.0  0.12744  0.54283  0.81193  1.0000 -0.1947210035
C   C59       1.0  0.17540  0.54240  0.76290  1.0000 0.0765936399
C   C60       1.0  0.16980  0.58664  0.70266  1.0000 0.0660693421
C   C61       1.0  0.18315  0.68458  0.74557  1.0000 -0.1507193
C   C62       1.0  0.15198  0.53002  0.60160  1.0000 -0.1621430144
C   C63       1.0  0.17830  0.72507  0.68983  1.0000 -0.0844934285
C   C64       1.0  0.14520  0.56881  0.54409  1.0000 -0.0887653605
C   C65       1.0  0.16024  0.66635  0.58811  1.0000 -0.0245731971
C   C66       1.0  0.14352  0.70238  0.52050  1.0000 0.6113794296
C   C67       1.0  0.50000  0.07030  0.92970  1.0000 0.6284073044
C   C68       1.0  0.50000  0.01670  0.98330  1.0000 -0.0259724893
C   C69       1.0  0.50000  0.91975  0.08025  1.0000 0.0660693421
C   C70       1.0  0.50000  0.86725  0.13275  1.0000 0.086968772
C   C71       1.0  0.50000  0.76985  0.23015  1.0000 -0.2022612245
C   C72       1.0  0.92970  0.50000  0.07030  1.0000 0.6284073044
C   C73       1.0  0.98330  0.50000  0.01670  1.0000 -0.0245731971
C   C74       1.0  0.08025  0.50000  0.91975  1.0000 0.0660693421
C   C75       1.0  0.13275  0.50000  0.86725  1.0000 0.086968772
C   C76       1.0  0.23015  0.50000  0.76985  1.0000 -0.2022612245
C   C77       1.0  0.07030  0.92970  0.50000  1.0000 0.6284073044
C   C78       1.0  0.01670  0.98330  0.50000  1.0000 -0.0259724893
C   C79       1.0  0.91975  0.08025  0.50000  1.0000 0.0660693421
C   C80       1.0  0.86725  0.13275  0.50000  1.0000 0.086968772
C   C81       1.0  0.76985  0.23015  0.50000  1.0000 -0.2022612245
O   O1        1.0  0.56124  0.15684  0.79372  1.0000 -0.7231949717
O   O2        1.0  0.41733  0.10602  0.63475  1.0000 -0.5936469585
O   O3        1.0  0.42911  0.99725  0.81574  1.0000 -0.6567451507
O   O4        1.0  0.79372  0.56124  0.15684  1.0000 -0.7231949717
O   O5        1.0  0.63475  0.41733  0.10602  1.0000 -0.5936469585
O   O6        1.0  0.81574  0.42911  0.99725  1.0000 -0.6567451507
O   O7        1.0  0.15684  0.79372  0.56124  1.0000 -0.7231949717
O   O8        1.0  0.10602  0.63475  0.41733  1.0000 -0.5936469585
O   O9        1.0  0.99725  0.81574  0.42911  1.0000 -0.6567451507
O   O10       1.0  0.43876  0.20628  0.84316  1.0000 -0.7231949717
O   O11       1.0  0.58267  0.36525  0.89398  1.0000 -0.5936469585
O   O12       1.0  0.57089  0.18426  0.00275  1.0000 -0.6567451507
O   O13       1.0  0.20628  0.84316  0.43876  1.0000 -0.7231949717
O   O14       1.0  0.36525  0.89398  0.58267  1.0000 -0.5936469585
O   O15       1.0  0.18426  0.00275  0.57089  1.0000 -0.6567451507
O   O16       1.0  0.84316  0.43876  0.20628  1.0000 -0.7231949717
O   O17       1.0  0.89398  0.58267  0.36525  1.0000 -0.5936469585
O   O18       1.0  0.00275  0.57089  0.18426  1.0000 -0.6567451507
