# DDEC6 charges by PACMAN v1.1 (https://github.com/mtap-research/PACMAN-charge/)
data_2018[Mn][hcb]2[ASR]1
_chemical_formula_sum              "Mn4 C6 S2 O20"
_cell_length_a       8.6819
_cell_length_b       10.1689
_cell_length_c       13.7456
_cell_angle_alpha    109.803
_cell_angle_beta     106.594
_cell_angle_gamma    87.636

_symmetry_space_group_name_H-M    "P 1"
_symmetry_Int_Tables_number       1

loop_
  _symmetry_equiv_pos_as_xyz
  'x, y, z'

loop_
  _atom_site_type_symbol
  _atom_site_label
  _atom_site_symmetry_multiplicity
  _atom_site_fract_x
  _atom_site_fract_y
  _atom_site_fract_z
  _atom_site_occupancy
  _atom_site_charge
Mn  Mn1       1.0  0.09065  0.29278  0.59864  1.0000 1.0728664091
Mn  Mn2       1.0  0.33692  0.74023  0.84995  1.0000 1.0828686049
Mn  Mn3       1.0  0.90935  0.70722  0.40136  1.0000 1.0728664091
Mn  Mn4       1.0  0.66308  0.25977  0.15005  1.0000 1.0828686049
C   C1        1.0  0.95080  0.00590  0.53990  1.0000 0.5481571248
C   C2        1.0  0.08940  0.52710  0.51930  1.0000 0.5360657563
C   C3        1.0  0.41760  0.02850  0.00510  1.0000 0.5481571248
C   C4        1.0  0.04920  0.99410  0.46010  1.0000 0.5481571248
C   C5        1.0  0.91060  0.47290  0.48070  1.0000 0.5360657563
C   C6        1.0  0.58240  0.97150  0.99490  1.0000 0.5481571248
S   S1        1.0  0.99426  0.55043  0.80245  1.0000 1.042387276
S   S2        1.0  0.00574  0.44957  0.19755  1.0000 1.0460697701
O   O1        1.0  0.02190  0.40690  0.73964  1.0000 -0.644445152
O   O2        1.0  0.09100  0.65120  0.78490  1.0000 -0.6544884155
O   O3        1.0  0.82260  0.57380  0.76760  1.0000 -0.4303620765
O   O4        1.0  0.04220  0.56390  0.91699  1.0000 -0.3291684399
O   O5        1.0  0.92850  0.12710  0.59620  1.0000 -0.3990212539
O   O6        1.0  0.90130  0.89440  0.54325  1.0000 -0.4482359001
O   O7        1.0  0.19040  0.45740  0.56138  1.0000 -0.4482359001
O   O8        1.0  0.11700  0.63940  0.50584  1.0000 -0.4207081208
O   O9        1.0  0.29540  0.94860  0.95060  1.0000 -0.4961623857
O   O10       1.0  0.41910  0.15230  0.06753  1.0000 -0.5615158985
O   O11       1.0  0.97810  0.59310  0.26036  1.0000 -0.644445152
O   O12       1.0  0.90900  0.34880  0.21510  1.0000 -0.6544884155
O   O13       1.0  0.17740  0.42620  0.23240  1.0000 -0.4303620765
O   O14       1.0  0.95780  0.43610  0.08301  1.0000 -0.3291684399
O   O15       1.0  0.07150  0.87290  0.40380  1.0000 -0.3990212539
O   O16       1.0  0.09870  0.10560  0.45675  1.0000 -0.4482359001
O   O17       1.0  0.80960  0.54260  0.43862  1.0000 -0.4482359001
O   O18       1.0  0.88300  0.36060  0.49416  1.0000 -0.4207081208
O   O19       1.0  0.70460  0.05140  0.04940  1.0000 -0.4961623857
O   O20       1.0  0.58090  0.84770  0.93247  1.0000 -0.5615158985
