# DDEC6 charges by PACMAN v1.1 (https://github.com/mtap-research/PACMAN-charge/)
data_2018[Co][nan]3[ASR]13
_chemical_formula_sum              "Co8 H64 C112 S6 N24 O32"
_cell_length_a       15.7467
_cell_length_b       15.7467
_cell_length_c       18.0097
_cell_angle_alpha    83.7839
_cell_angle_beta     96.2161
_cell_angle_gamma    103.906

_symmetry_space_group_name_H-M    "P 1"
_symmetry_Int_Tables_number       1

loop_
  _symmetry_equiv_pos_as_xyz
  'x, y, z'

loop_
  _atom_site_type_symbol
  _atom_site_label
  _atom_site_symmetry_multiplicity
  _atom_site_fract_x
  _atom_site_fract_y
  _atom_site_fract_z
  _atom_site_occupancy
  _atom_site_charge
Co  Co1       1.0  0.63209  0.18561  0.84241  1.0000 0.9032629342
Co  Co2       1.0  0.43144  0.06788  0.78054  1.0000 0.8419103236
Co  Co3       1.0  0.18561  0.63209  0.65759  1.0000 0.9032629342
Co  Co4       1.0  0.06788  0.43144  0.71946  1.0000 0.8419103236
Co  Co5       1.0  0.36791  0.81439  0.15759  1.0000 0.9032629342
Co  Co6       1.0  0.56856  0.93212  0.21946  1.0000 0.8419103236
Co  Co7       1.0  0.81439  0.36791  0.34241  1.0000 0.9032629342
Co  Co8       1.0  0.93212  0.56856  0.28054  1.0000 0.8419103236
H   H1        1.0  0.84050  0.20570  0.27960  1.0000 0.1085144901
H   H2        1.0  0.91700  0.09540  0.30880  1.0000 0.1320912257
H   H3        1.0  0.06900  0.24280  0.46550  1.0000 0.1320912257
H   H4        1.0  0.98720  0.34700  0.43400  1.0000 0.1085144901
H   H5        1.0  0.13120  0.81040  0.42580  1.0000 0.1320912257
H   H6        1.0  0.08220  0.67420  0.37920  1.0000 0.1085144901
H   H7        1.0  0.86300  0.73480  0.29050  1.0000 0.0903201932
H   H8        1.0  0.90640  0.87340  0.33240  1.0000 0.1320912257
H   H9        1.0  0.23920  0.17720  0.55620  1.0000 0.1368321763
H   H10       1.0  0.34630  0.18810  0.65650  1.0000 0.1008107611
H   H11       1.0  0.33360  0.93440  0.66990  1.0000 0.1085144901
H   H12       1.0  0.23050  0.91670  0.56760  1.0000 0.1320912257
H   H13       1.0  0.89010  0.42430  0.93750  1.0000 0.1320912257
H   H14       1.0  0.94400  0.48600  0.05810  1.0000 0.1320912257
H   H15       1.0  0.55410  0.45570  0.77320  1.0000 0.1496628248
H   H16       1.0  0.54720  0.10860  0.98020  1.0000 0.1008107611
H   H17       1.0  0.20570  0.84050  0.22040  1.0000 0.1085144901
H   H18       1.0  0.09540  0.91700  0.19120  1.0000 0.1320912257
H   H19       1.0  0.24280  0.06900  0.03450  1.0000 0.1368321763
H   H20       1.0  0.34700  0.98720  0.06600  1.0000 0.1085144901
H   H21       1.0  0.81040  0.13120  0.07420  1.0000 0.1320912257
H   H22       1.0  0.67420  0.08220  0.12080  1.0000 0.1085144901
H   H23       1.0  0.73480  0.86300  0.20950  1.0000 0.0903201932
H   H24       1.0  0.87340  0.90640  0.16760  1.0000 0.1320912257
H   H25       1.0  0.17720  0.23920  0.94380  1.0000 0.1368321763
H   H26       1.0  0.18810  0.34630  0.84350  1.0000 0.1008107611
H   H27       1.0  0.93440  0.33360  0.83010  1.0000 0.1085144901
H   H28       1.0  0.91670  0.23050  0.93240  1.0000 0.1320912257
H   H29       1.0  0.42430  0.89010  0.56250  1.0000 0.1320912257
H   H30       1.0  0.48600  0.94400  0.44190  1.0000 0.1320912257
H   H31       1.0  0.45570  0.55410  0.72680  1.0000 0.1496628248
H   H32       1.0  0.10860  0.54720  0.51980  1.0000 0.1008107611
H   H33       1.0  0.15950  0.79430  0.72040  1.0000 0.1085144901
H   H34       1.0  0.08300  0.90460  0.69120  1.0000 0.1320912257
H   H35       1.0  0.93100  0.75720  0.53450  1.0000 0.1320912257
H   H36       1.0  0.01280  0.65300  0.56600  1.0000 0.1085144901
H   H37       1.0  0.86880  0.18960  0.57420  1.0000 0.1320912257
H   H38       1.0  0.91780  0.32580  0.62080  1.0000 0.1085144901
H   H39       1.0  0.13700  0.26520  0.70950  1.0000 0.0903201932
H   H40       1.0  0.09360  0.12660  0.66760  1.0000 0.1320912257
H   H41       1.0  0.76080  0.82280  0.44380  1.0000 0.1368321763
H   H42       1.0  0.65370  0.81190  0.34350  1.0000 0.1008107611
H   H43       1.0  0.66640  0.06560  0.33010  1.0000 0.1085144901
H   H44       1.0  0.76950  0.08330  0.43240  1.0000 0.1320912257
H   H45       1.0  0.10990  0.57570  0.06250  1.0000 0.1320912257
H   H46       1.0  0.05600  0.51400  0.94190  1.0000 0.1320912257
H   H47       1.0  0.44590  0.54430  0.22680  1.0000 0.1496628248
H   H48       1.0  0.45280  0.89140  0.01980  1.0000 0.1008107611
H   H49       1.0  0.79430  0.15950  0.77960  1.0000 0.1085144901
H   H50       1.0  0.90460  0.08300  0.80880  1.0000 0.1320912257
H   H51       1.0  0.75720  0.93100  0.96550  1.0000 0.1368321763
H   H52       1.0  0.65300  0.01280  0.93400  1.0000 0.1085144901
H   H53       1.0  0.18960  0.86880  0.92580  1.0000 0.1320912257
H   H54       1.0  0.32580  0.91780  0.87920  1.0000 0.1085144901
H   H55       1.0  0.26520  0.13700  0.79050  1.0000 0.0903201932
H   H56       1.0  0.12660  0.09360  0.83240  1.0000 0.1320912257
H   H57       1.0  0.82280  0.76080  0.05620  1.0000 0.1368321763
H   H58       1.0  0.81190  0.65370  0.15650  1.0000 0.1008107611
H   H59       1.0  0.06560  0.66640  0.16990  1.0000 0.1085144901
H   H60       1.0  0.08330  0.76950  0.06760  1.0000 0.1320912257
H   H61       1.0  0.57570  0.10990  0.43750  1.0000 0.1320912257
H   H62       1.0  0.51400  0.05600  0.55810  1.0000 0.1320912257
H   H63       1.0  0.54430  0.44590  0.27320  1.0000 0.1496628248
H   H64       1.0  0.89140  0.45280  0.48020  1.0000 0.1008107611
C   C1        1.0  0.88667  0.21233  0.31870  1.0000 0.0903201932
C   C2        1.0  0.93192  0.14628  0.33570  1.0000 -0.1681551239
C   C3        1.0  0.99922  0.15578  0.39260  1.0000 0.0563424961
C   C4        1.0  0.02106  0.23294  0.42820  1.0000 -0.1526150643
C   C5        1.0  0.97268  0.29492  0.40870  1.0000 0.0903201932
C   C6        1.0  0.04469  0.08391  0.41690  1.0000 0.3600764633
C   C7        1.0  0.05550  0.94502  0.41350  1.0000 0.3600764633
C   C8        1.0  0.02466  0.85722  0.38380  1.0000 0.0659452766
C   C9        1.0  0.07589  0.79651  0.39750  1.0000 -0.1604805428
C   C10       1.0  0.04620  0.71540  0.36960  1.0000 0.0903201932
C   C11       1.0  0.91881  0.75101  0.31770  1.0000 0.0903201932
C   C12       1.0  0.94367  0.83353  0.34280  1.0000 -0.1782976626
C   C13       1.0  0.14897  0.03279  0.49100  1.0000 0.3600764633
C   C14       1.0  0.22167  0.04519  0.55230  1.0000 0.0659452766
C   C15       1.0  0.25745  0.12635  0.57880  1.0000 -0.1604805428
C   C16       1.0  0.32079  0.13201  0.63910  1.0000 0.0823151508
C   C17       1.0  0.31399  0.98421  0.64670  1.0000 0.0823151508
C   C18       1.0  0.25208  0.97292  0.58610  1.0000 -0.1604805428
C   C19       1.0  0.74020  0.27842  0.93020  1.0000 0.5489742966
C   C20       1.0  0.79487  0.33193  0.98900  1.0000 -0.1000699685
C   C21       1.0  0.86474  0.40166  0.98330  1.0000 -0.1303293421
C   C22       1.0  0.89578  0.43692  0.05220  1.0000 -0.1166661042
C   C23       1.0  0.84923  0.39293  0.10960  1.0000 -0.1166661042
C   C24       1.0  0.85986  0.40830  0.18950  1.0000 0.5927859456
C   C25       1.0  0.48353  0.27015  0.79250  1.0000 0.5979411961
C   C26       1.0  0.44854  0.35008  0.77210  1.0000 -0.1000699685
C   C27       1.0  0.49235  0.43585  0.76310  1.0000 -0.1128770611
C   C28       1.0  0.50044  0.09096  0.94310  1.0000 0.4655365856
C   C29       1.0  0.21233  0.88667  0.18130  1.0000 0.0903201932
C   C30       1.0  0.14628  0.93192  0.16430  1.0000 -0.1681551239
C   C31       1.0  0.15578  0.99922  0.10740  1.0000 0.0563424961
C   C32       1.0  0.23294  0.02106  0.07180  1.0000 -0.1526150643
C   C33       1.0  0.29492  0.97268  0.09130  1.0000 0.0903201932
C   C34       1.0  0.08391  0.04469  0.08310  1.0000 0.3600764633
C   C35       1.0  0.94502  0.05550  0.08650  1.0000 0.3600764633
C   C36       1.0  0.85722  0.02466  0.11620  1.0000 0.0659452766
C   C37       1.0  0.79651  0.07589  0.10250  1.0000 -0.1604805428
C   C38       1.0  0.71540  0.04620  0.13040  1.0000 0.0903201932
C   C39       1.0  0.75101  0.91881  0.18230  1.0000 0.0903201932
C   C40       1.0  0.83353  0.94367  0.15720  1.0000 -0.1782976626
C   C41       1.0  0.03279  0.14897  0.00900  1.0000 0.3600764633
C   C42       1.0  0.04519  0.22167  0.94770  1.0000 0.0659452766
C   C43       1.0  0.12635  0.25745  0.92120  1.0000 -0.1604805428
C   C44       1.0  0.13201  0.32079  0.86090  1.0000 0.0823151508
C   C45       1.0  0.98421  0.31399  0.85330  1.0000 0.0823151508
C   C46       1.0  0.97292  0.25208  0.91390  1.0000 -0.1604805428
C   C47       1.0  0.27842  0.74020  0.56980  1.0000 0.5489742966
C   C48       1.0  0.33193  0.79487  0.51100  1.0000 -0.1000699685
C   C49       1.0  0.40166  0.86474  0.51670  1.0000 -0.1303293421
C   C50       1.0  0.43692  0.89578  0.44780  1.0000 -0.1166661042
C   C51       1.0  0.39293  0.84923  0.39040  1.0000 -0.1166661042
C   C52       1.0  0.40830  0.85986  0.31050  1.0000 0.5927859456
C   C53       1.0  0.27015  0.48353  0.70750  1.0000 0.5979411961
C   C54       1.0  0.35008  0.44854  0.72790  1.0000 -0.1000699685
C   C55       1.0  0.43585  0.49235  0.73690  1.0000 -0.1128770611
C   C56       1.0  0.09096  0.50044  0.55690  1.0000 0.4655365856
C   C57       1.0  0.11333  0.78767  0.68130  1.0000 0.0903201932
C   C58       1.0  0.06808  0.85372  0.66430  1.0000 -0.1681551239
C   C59       1.0  0.00078  0.84422  0.60740  1.0000 0.0563424961
C   C60       1.0  0.97894  0.76706  0.57180  1.0000 -0.1526150643
C   C61       1.0  0.02732  0.70508  0.59130  1.0000 0.0903201932
C   C62       1.0  0.95531  0.91609  0.58310  1.0000 0.3600764633
C   C63       1.0  0.94450  0.05498  0.58650  1.0000 0.3600764633
C   C64       1.0  0.97534  0.14278  0.61620  1.0000 0.0659452766
C   C65       1.0  0.92411  0.20349  0.60250  1.0000 -0.1604805428
C   C66       1.0  0.95380  0.28460  0.63040  1.0000 0.0903201932
C   C67       1.0  0.08119  0.24899  0.68230  1.0000 0.0903201932
C   C68       1.0  0.05633  0.16647  0.65720  1.0000 -0.1782976626
C   C69       1.0  0.85103  0.96721  0.50900  1.0000 0.3600764633
C   C70       1.0  0.77833  0.95481  0.44770  1.0000 0.0659452766
C   C71       1.0  0.74255  0.87365  0.42120  1.0000 -0.1604805428
C   C72       1.0  0.67921  0.86799  0.36090  1.0000 0.0823151508
C   C73       1.0  0.68601  0.01579  0.35330  1.0000 0.0823151508
C   C74       1.0  0.74792  0.02708  0.41390  1.0000 -0.1604805428
C   C75       1.0  0.25980  0.72158  0.06980  1.0000 0.5489742966
C   C76       1.0  0.20513  0.66807  0.01100  1.0000 -0.1000699685
C   C77       1.0  0.13526  0.59834  0.01670  1.0000 -0.1303293421
C   C78       1.0  0.10422  0.56308  0.94780  1.0000 -0.1166661042
C   C79       1.0  0.15077  0.60707  0.89040  1.0000 -0.1166661042
C   C80       1.0  0.14014  0.59170  0.81050  1.0000 0.5927859456
C   C81       1.0  0.51647  0.72985  0.20750  1.0000 0.5979411961
C   C82       1.0  0.55146  0.64992  0.22790  1.0000 -0.1000699685
C   C83       1.0  0.50765  0.56415  0.23690  1.0000 -0.1128770611
C   C84       1.0  0.49956  0.90904  0.05690  1.0000 0.4655365856
C   C85       1.0  0.78767  0.11333  0.81870  1.0000 0.0903201932
C   C86       1.0  0.85372  0.06808  0.83570  1.0000 -0.1681551239
C   C87       1.0  0.84422  0.00078  0.89260  1.0000 0.0563424961
C   C88       1.0  0.76706  0.97894  0.92820  1.0000 -0.1526150643
C   C89       1.0  0.70508  0.02732  0.90870  1.0000 0.0903201932
C   C90       1.0  0.91609  0.95531  0.91690  1.0000 0.3600764633
C   C91       1.0  0.05498  0.94450  0.91350  1.0000 0.3600764633
C   C92       1.0  0.14278  0.97534  0.88380  1.0000 0.0659452766
C   C93       1.0  0.20349  0.92411  0.89750  1.0000 -0.1604805428
C   C94       1.0  0.28460  0.95380  0.86960  1.0000 0.0903201932
C   C95       1.0  0.24899  0.08119  0.81770  1.0000 0.0903201932
C   C96       1.0  0.16647  0.05633  0.84280  1.0000 -0.1782976626
C   C97       1.0  0.96721  0.85103  0.99100  1.0000 0.3600764633
C   C98       1.0  0.95481  0.77833  0.05230  1.0000 0.0659452766
C   C99       1.0  0.87365  0.74255  0.07880  1.0000 -0.1604805428
C   C100      1.0  0.86799  0.67921  0.13910  1.0000 0.0823151508
C   C101      1.0  0.01579  0.68601  0.14670  1.0000 0.0823151508
C   C102      1.0  0.02708  0.74792  0.08610  1.0000 -0.1604805428
C   C103      1.0  0.72158  0.25980  0.43020  1.0000 0.5489742966
C   C104      1.0  0.66807  0.20513  0.48900  1.0000 -0.1000699685
C   C105      1.0  0.59834  0.13526  0.48330  1.0000 -0.1303293421
C   C106      1.0  0.56308  0.10422  0.55220  1.0000 -0.1166661042
C   C107      1.0  0.60707  0.15077  0.60960  1.0000 -0.1166661042
C   C108      1.0  0.59170  0.14014  0.68950  1.0000 0.5927859456
C   C109      1.0  0.72985  0.51647  0.29250  1.0000 0.5979411961
C   C110      1.0  0.64992  0.55146  0.27210  1.0000 -0.1000699685
C   C111      1.0  0.56415  0.50765  0.26310  1.0000 -0.1128770611
C   C112      1.0  0.90904  0.49956  0.44310  1.0000 0.4655365856
S   S1        1.0  0.76552  0.30876  0.07908  1.0000 0.1496628248
S   S2        1.0  0.30876  0.76552  0.42092  1.0000 0.1496628248
S   S3        1.0  0.23448  0.69124  0.92092  1.0000 0.1496628248
S   S4        1.0  0.69124  0.23448  0.57908  1.0000 0.1496628248
S   S5        1.0  0.33805  0.33805  0.75000  1.0000 0.0823151508
S   S6        1.0  0.66195  0.66195  0.25000  1.0000 0.0823151508
N   N1        1.0  0.90555  0.28479  0.35501  1.0000 -0.2395741841
N   N2        1.0  0.11256  0.10030  0.46912  1.0000 -0.4013889122
N   N3        1.0  0.12428  0.95416  0.46430  1.0000 -0.4013889122
N   N4        1.0  0.01247  0.00707  0.38856  1.0000 -0.4013889122
N   N5        1.0  0.34781  0.06169  0.67436  1.0000 -0.2395741841
N   N6        1.0  0.96872  0.69234  0.32939  1.0000 -0.2395741841
N   N7        1.0  0.28479  0.90555  0.14499  1.0000 -0.2395741841
N   N8        1.0  0.10030  0.11256  0.03088  1.0000 -0.4013889122
N   N9        1.0  0.95416  0.12428  0.03570  1.0000 -0.4013889122
N   N10       1.0  0.00707  0.01247  0.11144  1.0000 -0.4013889122
N   N11       1.0  0.06169  0.34781  0.82564  1.0000 -0.2395741841
N   N12       1.0  0.69234  0.96872  0.17061  1.0000 -0.2395741841
N   N13       1.0  0.09445  0.71521  0.64499  1.0000 -0.2395741841
N   N14       1.0  0.88744  0.89970  0.53088  1.0000 -0.4013889122
N   N15       1.0  0.87572  0.04584  0.53570  1.0000 -0.4013889122
N   N16       1.0  0.98753  0.99293  0.61144  1.0000 -0.4013889122
N   N17       1.0  0.65219  0.93831  0.32564  1.0000 -0.2395741841
N   N18       1.0  0.03128  0.30766  0.67061  1.0000 -0.2395741841
N   N19       1.0  0.71521  0.09445  0.85501  1.0000 -0.2395741841
N   N20       1.0  0.89970  0.88744  0.96912  1.0000 -0.4013889122
N   N21       1.0  0.04584  0.87572  0.96430  1.0000 -0.4013889122
N   N22       1.0  0.99293  0.98753  0.88856  1.0000 -0.4013889122
N   N23       1.0  0.93831  0.65219  0.17436  1.0000 -0.2395741841
N   N24       1.0  0.30766  0.03128  0.82939  1.0000 -0.2395741841
O   O1        1.0  0.67594  0.22006  0.95151  1.0000 -0.5589021831
O   O2        1.0  0.75880  0.29292  0.86329  1.0000 -0.5303360685
O   O3        1.0  0.80352  0.36122  0.23003  1.0000 -0.5303360685
O   O4        1.0  0.92406  0.46716  0.21140  1.0000 -0.5589021831
O   O5        1.0  0.43359  0.19987  0.77303  1.0000 -0.5840889304
O   O6        1.0  0.55859  0.28083  0.82623  1.0000 -0.5055863647
O   O7        1.0  0.52160  0.08930  0.87533  1.0000 -0.5686123161
O   O8        1.0  0.42686  0.07202  0.96320  1.0000 -0.4590493603
O   O9        1.0  0.22006  0.67594  0.54849  1.0000 -0.5589021831
O   O10       1.0  0.29292  0.75880  0.63671  1.0000 -0.5303360685
O   O11       1.0  0.36122  0.80352  0.26997  1.0000 -0.5303360685
O   O12       1.0  0.46716  0.92406  0.28860  1.0000 -0.5589021831
O   O13       1.0  0.19987  0.43359  0.72697  1.0000 -0.5840889304
O   O14       1.0  0.28083  0.55859  0.67377  1.0000 -0.5045438795
O   O15       1.0  0.08930  0.52160  0.62467  1.0000 -0.5686123161
O   O16       1.0  0.07202  0.42686  0.53680  1.0000 -0.4590493603
O   O17       1.0  0.32406  0.77994  0.04849  1.0000 -0.5589021831
O   O18       1.0  0.24120  0.70708  0.13671  1.0000 -0.5303360685
O   O19       1.0  0.19648  0.63878  0.76997  1.0000 -0.5303360685
O   O20       1.0  0.07594  0.53284  0.78860  1.0000 -0.5589021831
O   O21       1.0  0.56641  0.80013  0.22697  1.0000 -0.5840889304
O   O22       1.0  0.44141  0.71917  0.17377  1.0000 -0.5045438795
O   O23       1.0  0.47840  0.91070  0.12467  1.0000 -0.5686123161
O   O24       1.0  0.57314  0.92798  0.03680  1.0000 -0.4590493603
O   O25       1.0  0.77994  0.32406  0.45151  1.0000 -0.5589021831
O   O26       1.0  0.70708  0.24120  0.36329  1.0000 -0.5303360685
O   O27       1.0  0.63878  0.19648  0.73003  1.0000 -0.5303360685
O   O28       1.0  0.53284  0.07594  0.71140  1.0000 -0.5589021831
O   O29       1.0  0.80013  0.56641  0.27303  1.0000 -0.5840889304
O   O30       1.0  0.71917  0.44141  0.32623  1.0000 -0.5045438795
O   O31       1.0  0.91070  0.47840  0.37533  1.0000 -0.5686123161
O   O32       1.0  0.92798  0.57314  0.46320  1.0000 -0.4590493603
