# DDEC6 charges by PACMAN v1.1 (https://github.com/mtap-research/PACMAN-charge/)
data_2018[Cd][nan]3[ASR]17
_chemical_formula_sum              "Cd12 H56 C144 N24 O64"
_cell_length_a       19.4151
_cell_length_b       19.4151
_cell_length_c       15.9769
_cell_angle_alpha    81.1473
_cell_angle_beta     98.8527
_cell_angle_gamma    117.69

_symmetry_space_group_name_H-M    "P 1"
_symmetry_Int_Tables_number       1

loop_
  _symmetry_equiv_pos_as_xyz
  'x, y, z'

loop_
  _atom_site_type_symbol
  _atom_site_label
  _atom_site_symmetry_multiplicity
  _atom_site_fract_x
  _atom_site_fract_y
  _atom_site_fract_z
  _atom_site_occupancy
  _atom_site_charge
Cd  Cd1       1.0  0.11447  0.37751  0.76478  1.0000 1.0353103216
Cd  Cd2       1.0  0.17421  0.76017  0.31966  1.0000 1.0532477136
Cd  Cd3       1.0  0.38069  0.75901  0.24814  1.0000 1.0677330727
Cd  Cd4       1.0  0.37751  0.11447  0.73522  1.0000 1.0353103216
Cd  Cd5       1.0  0.76017  0.17421  0.18034  1.0000 1.0532477136
Cd  Cd6       1.0  0.75901  0.38069  0.25186  1.0000 1.0677330727
Cd  Cd7       1.0  0.88553  0.62249  0.23522  1.0000 1.0353103216
Cd  Cd8       1.0  0.82579  0.23983  0.68034  1.0000 1.0532477136
Cd  Cd9       1.0  0.61931  0.24099  0.75186  1.0000 1.0677330727
Cd  Cd10      1.0  0.62249  0.88553  0.26478  1.0000 1.0353103216
Cd  Cd11      1.0  0.23983  0.82579  0.81966  1.0000 1.0532477136
Cd  Cd12      1.0  0.24099  0.61931  0.74814  1.0000 1.0677330727
H   H1        1.0  0.90700  0.33280  0.48170  1.0000 0.1475043739
H   H2        1.0  0.91450  0.20770  0.30810  1.0000 0.1301426624
H   H3        1.0  0.02760  0.20840  0.54100  1.0000 0.1475043739
H   H4        1.0  0.06760  0.95660  0.34010  1.0000 0.1402016292
H   H5        1.0  0.23430  0.94310  0.51550  1.0000 0.1402016292
H   H6        1.0  0.14670  0.08850  0.53770  1.0000 0.1402016292
H   H7        1.0  0.57910  0.20010  0.96260  1.0000 0.1475043739
H   H8        1.0  0.59800  0.33100  0.14380  1.0000 0.1301426624
H   H9        1.0  0.44010  0.30430  0.94100  1.0000 0.1475043739
H   H10       1.0  0.42350  0.54450  0.17730  1.0000 0.1301426624
H   H11       1.0  0.26260  0.58880  0.02280  1.0000 0.1402016292
H   H12       1.0  0.32570  0.43270  0.96780  1.0000 0.1475043739
H   H13       1.0  0.92810  0.10070  0.29810  1.0000 0.2972542679
H   H14       1.0  0.56670  0.41710  0.17730  1.0000 0.2972542679
H   H15       1.0  0.33280  0.90700  0.01830  1.0000 0.1475043739
H   H16       1.0  0.20770  0.91450  0.19190  1.0000 0.1301426624
H   H17       1.0  0.20840  0.02760  0.95900  1.0000 0.1475043739
H   H18       1.0  0.95660  0.06760  0.15990  1.0000 0.1402016292
H   H19       1.0  0.94310  0.23430  0.98450  1.0000 0.1402016292
H   H20       1.0  0.08850  0.14670  0.96230  1.0000 0.1402016292
H   H21       1.0  0.20010  0.57910  0.53740  1.0000 0.1475043739
H   H22       1.0  0.33100  0.59800  0.35620  1.0000 0.1301426624
H   H23       1.0  0.30430  0.44010  0.55900  1.0000 0.1475043739
H   H24       1.0  0.54450  0.42350  0.32270  1.0000 0.1301426624
H   H25       1.0  0.58880  0.26260  0.47720  1.0000 0.1402016292
H   H26       1.0  0.43270  0.32570  0.53220  1.0000 0.1475043739
H   H27       1.0  0.10070  0.92810  0.20190  1.0000 0.2972542679
H   H28       1.0  0.41710  0.56670  0.32270  1.0000 0.2972542679
H   H29       1.0  0.09300  0.66720  0.51830  1.0000 0.1475043739
H   H30       1.0  0.08550  0.79230  0.69190  1.0000 0.1301426624
H   H31       1.0  0.97240  0.79160  0.45900  1.0000 0.1475043739
H   H32       1.0  0.93240  0.04340  0.65990  1.0000 0.1402016292
H   H33       1.0  0.76570  0.05690  0.48450  1.0000 0.1402016292
H   H34       1.0  0.85330  0.91150  0.46230  1.0000 0.1402016292
H   H35       1.0  0.42090  0.79990  0.03740  1.0000 0.1475043739
H   H36       1.0  0.40200  0.66900  0.85620  1.0000 0.1301426624
H   H37       1.0  0.55990  0.69570  0.05900  1.0000 0.1475043739
H   H38       1.0  0.57650  0.45550  0.82270  1.0000 0.1301426624
H   H39       1.0  0.73740  0.41120  0.97720  1.0000 0.1402016292
H   H40       1.0  0.67430  0.56730  0.03220  1.0000 0.1475043739
H   H41       1.0  0.07190  0.89930  0.70190  1.0000 0.2972542679
H   H42       1.0  0.43330  0.58290  0.82270  1.0000 0.2972542679
H   H43       1.0  0.66720  0.09300  0.98170  1.0000 0.1475043739
H   H44       1.0  0.79230  0.08550  0.80810  1.0000 0.1301426624
H   H45       1.0  0.79160  0.97240  0.04100  1.0000 0.1475043739
H   H46       1.0  0.04340  0.93240  0.84010  1.0000 0.1402016292
H   H47       1.0  0.05690  0.76570  0.01550  1.0000 0.1402016292
H   H48       1.0  0.91150  0.85330  0.03770  1.0000 0.1402016292
H   H49       1.0  0.79990  0.42090  0.46260  1.0000 0.1475043739
H   H50       1.0  0.66900  0.40200  0.64380  1.0000 0.1301426624
H   H51       1.0  0.69570  0.55990  0.44100  1.0000 0.1475043739
H   H52       1.0  0.45550  0.57650  0.67730  1.0000 0.1301426624
H   H53       1.0  0.41120  0.73740  0.52280  1.0000 0.1402016292
H   H54       1.0  0.56730  0.67430  0.46780  1.0000 0.1475043739
H   H55       1.0  0.89930  0.07190  0.79810  1.0000 0.2972542679
H   H56       1.0  0.58290  0.43330  0.67730  1.0000 0.2972542679
C   C1        1.0  0.99607  0.30493  0.61250  1.0000 0.5911440388
C   C2        1.0  0.86433  0.31167  0.31710  1.0000 0.5911440388
C   C3        1.0  0.97186  0.27594  0.52530  1.0000 -0.0112597289
C   C4        1.0  0.92573  0.30087  0.46590  1.0000 -0.0900327057
C   C5        1.0  0.90698  0.27902  0.38350  1.0000 -0.0179319599
C   C6        1.0  0.92908  0.22512  0.36210  1.0000 -0.126540576
C   C7        1.0  0.97312  0.19788  0.42220  1.0000 0.0199411317
C   C8        1.0  0.99585  0.22475  0.50230  1.0000 -0.1001841441
C   C9        1.0  0.99402  0.13878  0.40300  1.0000 0.2972542679
C   C10       1.0  0.04344  0.06196  0.40650  1.0000 0.2690633173
C   C11       1.0  0.09681  0.02659  0.43460  1.0000 0.0448203768
C   C12       1.0  0.10015  0.97225  0.38990  1.0000 -0.126540576
C   C13       1.0  0.15271  0.94129  0.41990  1.0000 -0.0112597289
C   C14       1.0  0.20068  0.96492  0.49460  1.0000 -0.0900327057
C   C15       1.0  0.19927  0.02013  0.53820  1.0000 -0.0179319599
C   C16       1.0  0.14767  0.05113  0.50850  1.0000 -0.1001841441
C   C17       1.0  0.15574  0.88106  0.37310  1.0000 0.5607421929
C   C18       1.0  0.25452  0.05008  0.61520  1.0000 0.5607421929
C   C19       1.0  0.46695  0.21545  0.85490  1.0000 0.572869503
C   C20       1.0  0.66129  0.24571  0.11040  1.0000 0.5911440388
C   C21       1.0  0.50495  0.24805  0.93790  1.0000 -0.0112597289
C   C22       1.0  0.56323  0.23197  0.98370  1.0000 -0.0791425248
C   C23       1.0  0.59834  0.26286  0.06080  1.0000 -0.0179319599
C   C24       1.0  0.57455  0.31005  0.09220  1.0000 -0.126540576
C   C25       1.0  0.51604  0.32636  0.04730  1.0000 0.0199411317
C   C26       1.0  0.48028  0.29452  0.97040  1.0000 -0.0900327057
C   C27       1.0  0.49228  0.37912  0.07740  1.0000 0.2828043635
C   C28       1.0  0.43907  0.44893  0.09120  1.0000 0.2690633173
C   C29       1.0  0.38437  0.48443  0.07400  1.0000 0.0468479405
C   C30       1.0  0.38906  0.53574  0.12830  1.0000 -0.126540576
C   C31       1.0  0.34263  0.57417  0.11040  1.0000 -0.0112597289
C   C32       1.0  0.29214  0.56154  0.03660  1.0000 -0.1001841441
C   C33       1.0  0.28551  0.50789  0.98300  1.0000 -0.0179319599
C   C34       1.0  0.33088  0.46932  0.00270  1.0000 -0.1083358591
C   C35       1.0  0.35244  0.63396  0.16670  1.0000 0.5501615043
C   C36       1.0  0.23174  0.49486  0.90180  1.0000 0.600877368
C   C37       1.0  0.30493  0.99607  0.88750  1.0000 0.5911440388
C   C38       1.0  0.31167  0.86433  0.18290  1.0000 0.5911440388
C   C39       1.0  0.27594  0.97186  0.97470  1.0000 -0.0112597289
C   C40       1.0  0.30087  0.92573  0.03410  1.0000 -0.0900327057
C   C41       1.0  0.27902  0.90698  0.11650  1.0000 -0.0179319599
C   C42       1.0  0.22512  0.92908  0.13790  1.0000 -0.126540576
C   C43       1.0  0.19788  0.97312  0.07780  1.0000 0.0199411317
C   C44       1.0  0.22475  0.99585  0.99770  1.0000 -0.1001841441
C   C45       1.0  0.13878  0.99402  0.09700  1.0000 0.2972542679
C   C46       1.0  0.06196  0.04344  0.09350  1.0000 0.2690633173
C   C47       1.0  0.02659  0.09681  0.06540  1.0000 0.0448203768
C   C48       1.0  0.97225  0.10015  0.11010  1.0000 -0.126540576
C   C49       1.0  0.94129  0.15271  0.08010  1.0000 -0.0112597289
C   C50       1.0  0.96492  0.20068  0.00540  1.0000 -0.0900327057
C   C51       1.0  0.02013  0.19927  0.96180  1.0000 -0.0179319599
C   C52       1.0  0.05113  0.14767  0.99150  1.0000 -0.1001841441
C   C53       1.0  0.88106  0.15574  0.12690  1.0000 0.5607421929
C   C54       1.0  0.05008  0.25452  0.88480  1.0000 0.5607421929
C   C55       1.0  0.21545  0.46695  0.64510  1.0000 0.572869503
C   C56       1.0  0.24571  0.66129  0.38960  1.0000 0.5911440388
C   C57       1.0  0.24805  0.50495  0.56210  1.0000 -0.0112597289
C   C58       1.0  0.23197  0.56323  0.51630  1.0000 -0.0791425248
C   C59       1.0  0.26286  0.59834  0.43920  1.0000 -0.0179319599
C   C60       1.0  0.31005  0.57455  0.40780  1.0000 -0.126540576
C   C61       1.0  0.32636  0.51604  0.45270  1.0000 0.0199411317
C   C62       1.0  0.29452  0.48028  0.52960  1.0000 -0.0900327057
C   C63       1.0  0.37912  0.49228  0.42260  1.0000 0.2828043635
C   C64       1.0  0.44893  0.43907  0.40880  1.0000 0.2690633173
C   C65       1.0  0.48443  0.38437  0.42600  1.0000 0.0468479405
C   C66       1.0  0.53574  0.38906  0.37170  1.0000 -0.126540576
C   C67       1.0  0.57417  0.34263  0.38960  1.0000 -0.0112597289
C   C68       1.0  0.56154  0.29214  0.46340  1.0000 -0.1001841441
C   C69       1.0  0.50789  0.28551  0.51700  1.0000 -0.0179319599
C   C70       1.0  0.46932  0.33088  0.49730  1.0000 -0.1083358591
C   C71       1.0  0.63396  0.35244  0.33333  1.0000 0.5501615043
C   C72       1.0  0.49486  0.23174  0.59820  1.0000 0.600877368
C   C73       1.0  0.00393  0.69507  0.38750  1.0000 0.5911440388
C   C74       1.0  0.13567  0.68833  0.68290  1.0000 0.5911440388
C   C75       1.0  0.02814  0.72406  0.47470  1.0000 -0.0112597289
C   C76       1.0  0.07427  0.69913  0.53410  1.0000 -0.0900327057
C   C77       1.0  0.09302  0.72098  0.61650  1.0000 -0.0179319599
C   C78       1.0  0.07092  0.77488  0.63790  1.0000 -0.126540576
C   C79       1.0  0.02688  0.80212  0.57780  1.0000 0.0199411317
C   C80       1.0  0.00415  0.77525  0.49770  1.0000 -0.1001841441
C   C81       1.0  0.00598  0.86122  0.59700  1.0000 0.2972542679
C   C82       1.0  0.95656  0.93804  0.59350  1.0000 0.2690633173
C   C83       1.0  0.90319  0.97341  0.56540  1.0000 0.0448203768
C   C84       1.0  0.89985  0.02775  0.61010  1.0000 -0.126540576
C   C85       1.0  0.84729  0.05871  0.58010  1.0000 -0.0112597289
C   C86       1.0  0.79932  0.03508  0.50540  1.0000 -0.0900327057
C   C87       1.0  0.80073  0.97987  0.46180  1.0000 -0.0179319599
C   C88       1.0  0.85233  0.94887  0.49150  1.0000 -0.1001841441
C   C89       1.0  0.84426  0.11894  0.62690  1.0000 0.5607421929
C   C90       1.0  0.74548  0.94992  0.38480  1.0000 0.5607421929
C   C91       1.0  0.53305  0.78455  0.14510  1.0000 0.572869503
C   C92       1.0  0.33871  0.75429  0.88960  1.0000 0.5911440388
C   C93       1.0  0.49505  0.75195  0.06210  1.0000 -0.0112597289
C   C94       1.0  0.43677  0.76803  0.01630  1.0000 -0.0791425248
C   C95       1.0  0.40166  0.73714  0.93920  1.0000 -0.0179319599
C   C96       1.0  0.42545  0.68995  0.90780  1.0000 -0.126540576
C   C97       1.0  0.48396  0.67364  0.95270  1.0000 0.0199411317
C   C98       1.0  0.51972  0.70548  0.02960  1.0000 -0.0900327057
C   C99       1.0  0.50772  0.62088  0.92260  1.0000 0.2828043635
C   C100      1.0  0.56093  0.55107  0.90880  1.0000 0.2690633173
C   C101      1.0  0.61563  0.51557  0.92600  1.0000 0.0468479405
C   C102      1.0  0.61094  0.46426  0.87170  1.0000 -0.126540576
C   C103      1.0  0.65737  0.42583  0.88960  1.0000 -0.0112597289
C   C104      1.0  0.70786  0.43846  0.96340  1.0000 -0.1001841441
C   C105      1.0  0.71449  0.49211  0.01700  1.0000 -0.0179319599
C   C106      1.0  0.66912  0.53068  0.99730  1.0000 -0.1083358591
C   C107      1.0  0.64756  0.36604  0.83330  1.0000 0.5501615043
C   C108      1.0  0.76826  0.50514  0.09820  1.0000 0.600877368
C   C109      1.0  0.69507  0.00393  0.11250  1.0000 0.5911440388
C   C110      1.0  0.68833  0.13567  0.81710  1.0000 0.5911440388
C   C111      1.0  0.72406  0.02814  0.02530  1.0000 -0.0112597289
C   C112      1.0  0.69913  0.07427  0.96590  1.0000 -0.0900327057
C   C113      1.0  0.72098  0.09302  0.88350  1.0000 -0.0179319599
C   C114      1.0  0.77488  0.07092  0.86210  1.0000 -0.126540576
C   C115      1.0  0.80212  0.02688  0.92220  1.0000 0.0199411317
C   C116      1.0  0.77525  0.00415  0.00230  1.0000 -0.1001841441
C   C117      1.0  0.86122  0.00598  0.90300  1.0000 0.2972542679
C   C118      1.0  0.93804  0.95656  0.90650  1.0000 0.2690633173
C   C119      1.0  0.97341  0.90319  0.93460  1.0000 0.0448203768
C   C120      1.0  0.02775  0.89985  0.88990  1.0000 -0.126540576
C   C121      1.0  0.05871  0.84729  0.91990  1.0000 -0.0112597289
C   C122      1.0  0.03508  0.79932  0.99460  1.0000 -0.0900327057
C   C123      1.0  0.97987  0.80073  0.03820  1.0000 -0.0179319599
C   C124      1.0  0.94887  0.85233  0.00850  1.0000 -0.1001841441
C   C125      1.0  0.11894  0.84426  0.87310  1.0000 0.5607421929
C   C126      1.0  0.94992  0.74548  0.11520  1.0000 0.5607421929
C   C127      1.0  0.78455  0.53305  0.35490  1.0000 0.572869503
C   C128      1.0  0.75429  0.33871  0.61040  1.0000 0.5911440388
C   C129      1.0  0.75195  0.49505  0.43790  1.0000 -0.0112597289
C   C130      1.0  0.76803  0.43677  0.48370  1.0000 -0.0791425248
C   C131      1.0  0.73714  0.40166  0.56080  1.0000 -0.0179319599
C   C132      1.0  0.68995  0.42545  0.59220  1.0000 -0.126540576
C   C133      1.0  0.67364  0.48396  0.54730  1.0000 0.0199411317
C   C134      1.0  0.70548  0.51972  0.47040  1.0000 -0.0900327057
C   C135      1.0  0.62088  0.50772  0.57740  1.0000 0.2828043635
C   C136      1.0  0.55107  0.56093  0.59120  1.0000 0.2690633173
C   C137      1.0  0.51557  0.61563  0.57400  1.0000 0.0468479405
C   C138      1.0  0.46426  0.61094  0.62830  1.0000 -0.126540576
C   C139      1.0  0.42583  0.65737  0.61040  1.0000 -0.0112597289
C   C140      1.0  0.43846  0.70786  0.53660  1.0000 -0.1001841441
C   C141      1.0  0.49211  0.71449  0.48300  1.0000 -0.0179319599
C   C142      1.0  0.53068  0.66912  0.50270  1.0000 -0.1083358591
C   C143      1.0  0.36604  0.64756  0.66667  1.0000 0.5501615043
C   C144      1.0  0.50514  0.76826  0.40180  1.0000 0.600877368
N   N1        1.0  0.04631  0.11969  0.44820  1.0000 -0.3878581886
N   N2        1.0  0.96259  0.09647  0.33630  1.0000 -0.1399793205
N   N3        1.0  0.99330  0.04512  0.33760  1.0000 -0.2292738175
N   N4        1.0  0.43528  0.39652  0.04050  1.0000 -0.4040653174
N   N5        1.0  0.52795  0.41945  0.14500  1.0000 -0.1399793205
N   N6        1.0  0.49394  0.46486  0.15560  1.0000 -0.2292738175
N   N7        1.0  0.11969  0.04631  0.05180  1.0000 -0.3878581886
N   N8        1.0  0.09647  0.96259  0.16370  1.0000 -0.1399793205
N   N9        1.0  0.04512  0.99330  0.16240  1.0000 -0.2292738175
N   N10       1.0  0.39652  0.43528  0.45950  1.0000 -0.4040653174
N   N11       1.0  0.41945  0.52795  0.35500  1.0000 -0.1399793205
N   N12       1.0  0.46486  0.49394  0.34440  1.0000 -0.2292738175
N   N13       1.0  0.95369  0.88031  0.55180  1.0000 -0.3878581886
N   N14       1.0  0.03741  0.90353  0.66370  1.0000 -0.1399793205
N   N15       1.0  0.00670  0.95488  0.66240  1.0000 -0.2292738175
N   N16       1.0  0.56472  0.60348  0.95950  1.0000 -0.4040653174
N   N17       1.0  0.47205  0.58055  0.85500  1.0000 -0.1399793205
N   N18       1.0  0.50606  0.53514  0.84440  1.0000 -0.2292738175
N   N19       1.0  0.88031  0.95369  0.94820  1.0000 -0.3878581886
N   N20       1.0  0.90353  0.03741  0.83630  1.0000 -0.1399793205
N   N21       1.0  0.95488  0.00670  0.83760  1.0000 -0.2292738175
N   N22       1.0  0.60348  0.56472  0.54050  1.0000 -0.4040653174
N   N23       1.0  0.58055  0.47205  0.64500  1.0000 -0.1399793205
N   N24       1.0  0.53514  0.50606  0.65560  1.0000 -0.2292738175
O   O1        1.0  0.05902  0.30844  0.64883  1.0000 -0.4903423851
O   O2        1.0  0.95357  0.32689  0.64218  1.0000 -0.5698371236
O   O3        1.0  0.85383  0.36697  0.33622  1.0000 -0.4965118085
O   O4        1.0  0.84384  0.28752  0.24514  1.0000 -0.5698371236
O   O5        1.0  0.11654  0.86336  0.30330  1.0000 -0.559267438
O   O6        1.0  0.19838  0.84948  0.40779  1.0000 -0.4903423851
O   O7        1.0  0.30519  0.02517  0.63921  1.0000 -0.5284420317
O   O8        1.0  0.25419  0.10243  0.65173  1.0000 -0.4824424823
O   O9        1.0  0.41055  0.22563  0.81881  1.0000 -0.4601559107
O   O10       1.0  0.49221  0.17421  0.82609  1.0000 -0.5698371236
O   O11       1.0  0.68477  0.20593  0.07910  1.0000 -0.4824424823
O   O12       1.0  0.68576  0.26690  0.18434  1.0000 -0.5698371236
O   O13       1.0  0.39950  0.64520  0.23298  1.0000 -0.5698371236
O   O14       1.0  0.31507  0.67287  0.14523  1.0000 -0.4824424823
O   O15       1.0  0.21328  0.54898  0.87058  1.0000 -0.559267438
O   O16       1.0  0.20980  0.43176  0.87134  1.0000 -0.5157865052
O   O17       1.0  0.30844  0.05902  0.85117  1.0000 -0.4903423851
O   O18       1.0  0.32689  0.95357  0.85782  1.0000 -0.5698371236
O   O19       1.0  0.36697  0.85383  0.16378  1.0000 -0.4965118085
O   O20       1.0  0.28752  0.84384  0.25486  1.0000 -0.5698371236
O   O21       1.0  0.86336  0.11654  0.19670  1.0000 -0.559267438
O   O22       1.0  0.84948  0.19838  0.09221  1.0000 -0.4903423851
O   O23       1.0  0.02517  0.30519  0.86079  1.0000 -0.5284420317
O   O24       1.0  0.10243  0.25419  0.84827  1.0000 -0.4824424823
O   O25       1.0  0.22563  0.41055  0.68119  1.0000 -0.4601559107
O   O26       1.0  0.17421  0.49221  0.67391  1.0000 -0.5698371236
O   O27       1.0  0.20593  0.68477  0.42090  1.0000 -0.4824424823
O   O28       1.0  0.26690  0.68576  0.31566  1.0000 -0.5698371236
O   O29       1.0  0.64520  0.39950  0.26702  1.0000 -0.5698371236
O   O30       1.0  0.67287  0.31507  0.35477  1.0000 -0.4824424823
O   O31       1.0  0.54898  0.21328  0.62942  1.0000 -0.559267438
O   O32       1.0  0.43176  0.20980  0.62866  1.0000 -0.5157865052
O   O33       1.0  0.94098  0.69156  0.35117  1.0000 -0.4903423851
O   O34       1.0  0.04643  0.67311  0.35782  1.0000 -0.5698371236
O   O35       1.0  0.14617  0.63303  0.66378  1.0000 -0.4965118085
O   O36       1.0  0.15616  0.71248  0.75486  1.0000 -0.5698371236
O   O37       1.0  0.88346  0.13664  0.69670  1.0000 -0.559267438
O   O38       1.0  0.80162  0.15052  0.59221  1.0000 -0.4903423851
O   O39       1.0  0.69481  0.97483  0.36079  1.0000 -0.5284420317
O   O40       1.0  0.74581  0.89757  0.34827  1.0000 -0.4824424823
O   O41       1.0  0.58945  0.77437  0.18119  1.0000 -0.4601559107
O   O42       1.0  0.50779  0.82579  0.17391  1.0000 -0.5698371236
O   O43       1.0  0.31523  0.79407  0.92090  1.0000 -0.4824424823
O   O44       1.0  0.31424  0.73310  0.81566  1.0000 -0.5698371236
O   O45       1.0  0.60050  0.35480  0.76702  1.0000 -0.5698371236
O   O46       1.0  0.68493  0.32713  0.85477  1.0000 -0.4824424823
O   O47       1.0  0.78672  0.45102  0.12942  1.0000 -0.559267438
O   O48       1.0  0.79020  0.56824  0.12866  1.0000 -0.5157865052
O   O49       1.0  0.69156  0.94098  0.14883  1.0000 -0.4903423851
O   O50       1.0  0.67311  0.04643  0.14218  1.0000 -0.5698371236
O   O51       1.0  0.63303  0.14617  0.83622  1.0000 -0.4965118085
O   O52       1.0  0.71248  0.15616  0.74514  1.0000 -0.5698371236
O   O53       1.0  0.13664  0.88346  0.80330  1.0000 -0.559267438
O   O54       1.0  0.15052  0.80162  0.90779  1.0000 -0.4903423851
O   O55       1.0  0.97483  0.69481  0.13921  1.0000 -0.5284420317
O   O56       1.0  0.89757  0.74581  0.15173  1.0000 -0.4824424823
O   O57       1.0  0.77437  0.58945  0.31881  1.0000 -0.4601559107
O   O58       1.0  0.82579  0.50779  0.32609  1.0000 -0.5698371236
O   O59       1.0  0.79407  0.31523  0.57910  1.0000 -0.4824424823
O   O60       1.0  0.73310  0.31424  0.68434  1.0000 -0.5698371236
O   O61       1.0  0.35480  0.60050  0.73298  1.0000 -0.5698371236
O   O62       1.0  0.32713  0.68493  0.64523  1.0000 -0.4824424823
O   O63       1.0  0.45102  0.78672  0.37058  1.0000 -0.559267438
O   O64       1.0  0.56824  0.79020  0.37134  1.0000 -0.5157865052
