# DDEC6 charges by PACMAN v1.1 (https://github.com/mtap-research/PACMAN-charge/)
data_2018[Cu][iab]3[ASR]1
_chemical_formula_sum              "Cu12 H88 C168 O48"
_cell_length_a       32.8672
_cell_length_b       32.8672
_cell_length_c       32.8672
_cell_angle_alpha    144.805
_cell_angle_beta     144.805
_cell_angle_gamma    50.6258

_symmetry_space_group_name_H-M    "P 1"
_symmetry_Int_Tables_number       1

loop_
  _symmetry_equiv_pos_as_xyz
  'x, y, z'

loop_
  _atom_site_type_symbol
  _atom_site_label
  _atom_site_symmetry_multiplicity
  _atom_site_fract_x
  _atom_site_fract_y
  _atom_site_fract_z
  _atom_site_occupancy
  _atom_site_charge
Cu  Cu1       1.0  0.44342  0.12828  0.31514  1.0000 0.8401855527
Cu  Cu2       1.0  0.81314  0.12828  0.68486  1.0000 0.8401855527
Cu  Cu3       1.0  0.87828  0.06314  0.18486  1.0000 0.8401855527
Cu  Cu4       1.0  0.87828  0.69342  0.81514  1.0000 0.8401855527
Cu  Cu5       1.0  0.93686  0.12172  0.81514  1.0000 0.8401855527
Cu  Cu6       1.0  0.30658  0.12172  0.18486  1.0000 0.8401855527
Cu  Cu7       1.0  0.87172  0.18686  0.31514  1.0000 0.8401855527
Cu  Cu8       1.0  0.87172  0.55658  0.68486  1.0000 0.8401855527
Cu  Cu9       1.0  0.22783  0.72783  0.50000  1.0000 0.8468017577
Cu  Cu10      1.0  0.47783  0.47783  0.00000  1.0000 0.8468017577
Cu  Cu11      1.0  0.52217  0.52217  0.00000  1.0000 0.8468017577
Cu  Cu12      1.0  0.27217  0.77217  0.50000  1.0000 0.8468017577
H   H1        1.0  0.50870  0.32490  0.46760  1.0000 0.1317023562
H   H2        1.0  0.52320  0.42800  0.52640  1.0000 0.1128638326
H   H3        1.0  0.31550  0.42030  0.33260  1.0000 0.1160432434
H   H4        1.0  0.29970  0.31930  0.27680  1.0000 0.1317023562
H   H5        1.0  0.34660  0.54390  0.45450  1.0000 0.1317023562
H   H6        1.0  0.85730  0.04110  0.53240  1.0000 0.1317023562
H   H7        1.0  0.90160  0.99680  0.47360  1.0000 0.1128638326
H   H8        1.0  0.08770  0.98290  0.66740  1.0000 0.1160432434
H   H9        1.0  0.04250  0.02290  0.72320  1.0000 0.1317023562
H   H10       1.0  0.08940  0.89210  0.54550  1.0000 0.1317023562
H   H11       1.0  0.07490  0.10730  0.31620  1.0000 0.1317023562
H   H12       1.0  0.17800  0.15160  0.40480  1.0000 0.1128638326
H   H13       1.0  0.17030  0.33770  0.60480  1.0000 0.1160432434
H   H14       1.0  0.06930  0.29250  0.51960  1.0000 0.1317023562
H   H15       1.0  0.29390  0.33940  0.69730  1.0000 0.1317023562
H   H16       1.0  0.79110  0.75870  0.68380  1.0000 0.1317023562
H   H17       1.0  0.74680  0.77320  0.59520  1.0000 0.1128638326
H   H18       1.0  0.73290  0.56550  0.39520  1.0000 0.1160432434
H   H19       1.0  0.77290  0.54970  0.48040  1.0000 0.1317023562
H   H20       1.0  0.64210  0.59660  0.30270  1.0000 0.1317023562
H   H21       1.0  0.89270  0.92510  0.68380  1.0000 0.1317023562
H   H22       1.0  0.84840  0.82200  0.59520  1.0000 0.1128638326
H   H23       1.0  0.66230  0.82970  0.39520  1.0000 0.1160432434
H   H24       1.0  0.70750  0.93070  0.48040  1.0000 0.1317023562
H   H25       1.0  0.66060  0.70610  0.30270  1.0000 0.1317023562
H   H26       1.0  0.24130  0.20890  0.31620  1.0000 0.1317023562
H   H27       1.0  0.22680  0.25320  0.40480  1.0000 0.1128638326
H   H28       1.0  0.43450  0.26710  0.60480  1.0000 0.1160432434
H   H29       1.0  0.45030  0.22710  0.51960  1.0000 0.1317023562
H   H30       1.0  0.40340  0.35790  0.69730  1.0000 0.1317023562
H   H31       1.0  0.95890  0.14270  0.46760  1.0000 0.1317023562
H   H32       1.0  0.00320  0.09840  0.52640  1.0000 0.1128638326
H   H33       1.0  0.01710  0.91230  0.33260  1.0000 0.1160432434
H   H34       1.0  0.97710  0.95750  0.27680  1.0000 0.1317023562
H   H35       1.0  0.10790  0.91060  0.45450  1.0000 0.1317023562
H   H36       1.0  0.67510  0.49130  0.53240  1.0000 0.1317023562
H   H37       1.0  0.57200  0.47680  0.47360  1.0000 0.1128638326
H   H38       1.0  0.57970  0.68450  0.66740  1.0000 0.1160432434
H   H39       1.0  0.68070  0.70030  0.72320  1.0000 0.1317023562
H   H40       1.0  0.45610  0.65340  0.54550  1.0000 0.1317023562
H   H41       1.0  0.24130  0.92510  0.03240  1.0000 0.1317023562
H   H42       1.0  0.22680  0.82200  0.97360  1.0000 0.1128638326
H   H43       1.0  0.43450  0.82970  0.16740  1.0000 0.1160432434
H   H44       1.0  0.45030  0.93070  0.22320  1.0000 0.1317023562
H   H45       1.0  0.40340  0.70610  0.04550  1.0000 0.1317023562
H   H46       1.0  0.89270  0.20890  0.96760  1.0000 0.1317023562
H   H47       1.0  0.84840  0.25320  0.02640  1.0000 0.1128638326
H   H48       1.0  0.66230  0.26710  0.83260  1.0000 0.1160432434
H   H49       1.0  0.70750  0.22710  0.77680  1.0000 0.1317023562
H   H50       1.0  0.66060  0.35790  0.95450  1.0000 0.1317023562
H   H51       1.0  0.67510  0.14270  0.18380  1.0000 0.1317023562
H   H52       1.0  0.57200  0.09840  0.09520  1.0000 0.1128638326
H   H53       1.0  0.57970  0.91230  0.89520  1.0000 0.1160432434
H   H54       1.0  0.68070  0.95750  0.98040  1.0000 0.1317023562
H   H55       1.0  0.45610  0.91060  0.80270  1.0000 0.1317023562
H   H56       1.0  0.95890  0.49130  0.81620  1.0000 0.1317023562
H   H57       1.0  0.00320  0.47680  0.90480  1.0000 0.1128638326
H   H58       1.0  0.01710  0.68450  0.10480  1.0000 0.1160432434
H   H59       1.0  0.97710  0.70030  0.01960  1.0000 0.1317023562
H   H60       1.0  0.10790  0.65340  0.19730  1.0000 0.1317023562
H   H61       1.0  0.85730  0.32490  0.81620  1.0000 0.1317023562
H   H62       1.0  0.90160  0.42800  0.90480  1.0000 0.1128638326
H   H63       1.0  0.08770  0.42030  0.10480  1.0000 0.1160432434
H   H64       1.0  0.04250  0.31930  0.01960  1.0000 0.1317023562
H   H65       1.0  0.08940  0.54390  0.19730  1.0000 0.1317023562
H   H66       1.0  0.50870  0.04110  0.18380  1.0000 0.1317023562
H   H67       1.0  0.52320  0.99680  0.09520  1.0000 0.1128638326
H   H68       1.0  0.31550  0.98290  0.89520  1.0000 0.1160432434
H   H69       1.0  0.29970  0.02290  0.98040  1.0000 0.1317023562
H   H70       1.0  0.34660  0.89210  0.80270  1.0000 0.1317023562
H   H71       1.0  0.79110  0.10730  0.03240  1.0000 0.1317023562
H   H72       1.0  0.74680  0.15160  0.97360  1.0000 0.1128638326
H   H73       1.0  0.73290  0.33770  0.16740  1.0000 0.1160432434
H   H74       1.0  0.77290  0.29250  0.22320  1.0000 0.1317023562
H   H75       1.0  0.64210  0.33940  0.04550  1.0000 0.1317023562
H   H76       1.0  0.07490  0.75870  0.96760  1.0000 0.1317023562
H   H77       1.0  0.17800  0.77320  0.02640  1.0000 0.1128638326
H   H78       1.0  0.17030  0.56550  0.83260  1.0000 0.1160432434
H   H79       1.0  0.06930  0.54970  0.77680  1.0000 0.1317023562
H   H80       1.0  0.29390  0.59660  0.95450  1.0000 0.1317023562
H   H81       1.0  0.52410  0.47590  0.50000  1.0000 0.1128638326
H   H82       1.0  0.97590  0.02410  0.50000  1.0000 0.1128638326
H   H83       1.0  0.22590  0.22590  0.45180  1.0000 0.1128638326
H   H84       1.0  0.77410  0.77410  0.54820  1.0000 0.1128638326
H   H85       1.0  0.22590  0.77410  0.00000  1.0000 0.1128638326
H   H86       1.0  0.77410  0.22590  0.00000  1.0000 0.1128638326
H   H87       1.0  0.52410  0.02410  0.04820  1.0000 0.1128638326
H   H88       1.0  0.97590  0.47590  0.95180  1.0000 0.1128638326
C   C1        1.0  0.39365  0.24195  0.32550  1.0000 0.5710826962
C   C2        1.0  0.40309  0.31189  0.36600  1.0000 -0.0203057613
C   C3        1.0  0.46939  0.34399  0.44020  1.0000 -0.0898361133
C   C4        1.0  0.47756  0.40566  0.47450  1.0000 -0.1502418269
C   C5        1.0  0.42247  0.43557  0.43650  1.0000 0.0697011268
C   C6        1.0  0.35474  0.40174  0.36060  1.0000 -0.1587051341
C   C7        1.0  0.34512  0.34072  0.32640  1.0000 -0.0898361133
C   C8        1.0  0.43293  0.49973  0.47120  1.0000 0.0697011268
C   C9        1.0  0.38509  0.54909  0.47240  1.0000 -0.1689536685
C   C10       1.0  0.91645  0.06815  0.67450  1.0000 0.5710826962
C   C11       1.0  0.94589  0.03709  0.63400  1.0000 -0.0203057613
C   C12       1.0  0.90379  0.02919  0.55980  1.0000 -0.0898361133
C   C13       1.0  0.93116  0.00306  0.52550  1.0000 -0.1502418269
C   C14       1.0  0.99907  0.98597  0.56350  1.0000 0.0697011268
C   C15       1.0  0.04114  0.99414  0.63940  1.0000 -0.1587051341
C   C16       1.0  0.01432  0.01872  0.67360  1.0000 -0.0898361133
C   C17       1.0  0.02853  0.96173  0.52880  1.0000 0.0697011268
C   C18       1.0  0.07669  0.91269  0.52760  1.0000 -0.1689536685
C   C19       1.0  0.99195  0.16645  0.34830  1.0000 0.5710826962
C   C20       1.0  0.06189  0.19589  0.40880  1.0000 -0.0203057613
C   C21       1.0  0.09399  0.15379  0.37460  1.0000 -0.0898361133
C   C22       1.0  0.15566  0.18116  0.42810  1.0000 -0.1502418269
C   C23       1.0  0.18557  0.24907  0.51310  1.0000 0.0697011268
C   C24       1.0  0.15174  0.29114  0.54700  1.0000 -0.1587051341
C   C25       1.0  0.09072  0.26432  0.49560  1.0000 -0.0898361133
C   C26       1.0  0.24973  0.27853  0.56680  1.0000 0.0697011268
C   C27       1.0  0.29909  0.32669  0.66400  1.0000 -0.1689536685
C   C28       1.0  0.81815  0.64365  0.65170  1.0000 0.5710826962
C   C29       1.0  0.78709  0.65309  0.59120  1.0000 -0.0203057613
C   C30       1.0  0.77919  0.71939  0.62540  1.0000 -0.0898361133
C   C31       1.0  0.75306  0.72756  0.57190  1.0000 -0.1502418269
C   C32       1.0  0.73597  0.67247  0.48690  1.0000 0.0697011268
C   C33       1.0  0.74414  0.60474  0.45300  1.0000 -0.1587051341
C   C34       1.0  0.76872  0.59512  0.50440  1.0000 -0.0898361133
C   C35       1.0  0.71173  0.68293  0.43320  1.0000 0.0697011268
C   C36       1.0  0.66269  0.63509  0.33600  1.0000 -0.1689536685
C   C37       1.0  0.83355  0.00805  0.65170  1.0000 0.5710826962
C   C38       1.0  0.80411  0.93811  0.59120  1.0000 -0.0203057613
C   C39       1.0  0.84621  0.90601  0.62540  1.0000 -0.0898361133
C   C40       1.0  0.81884  0.84434  0.57190  1.0000 -0.1502418269
C   C41       1.0  0.75093  0.81443  0.48690  1.0000 0.0697011268
C   C42       1.0  0.70886  0.84826  0.45300  1.0000 -0.1587051341
C   C43       1.0  0.73568  0.90928  0.50440  1.0000 -0.0898361133
C   C44       1.0  0.72147  0.75027  0.43320  1.0000 0.0697011268
C   C45       1.0  0.67331  0.70091  0.33600  1.0000 -0.1689536685
C   C46       1.0  0.35635  0.18185  0.34830  1.0000 0.5710826962
C   C47       1.0  0.34691  0.21291  0.40880  1.0000 -0.0203057613
C   C48       1.0  0.28061  0.22081  0.37460  1.0000 -0.0898361133
C   C49       1.0  0.27244  0.24694  0.42810  1.0000 -0.1502418269
C   C50       1.0  0.32753  0.26403  0.51310  1.0000 0.0697011268
C   C51       1.0  0.39526  0.25586  0.54700  1.0000 -0.1587051341
C   C52       1.0  0.40488  0.23128  0.49560  1.0000 -0.0898361133
C   C53       1.0  0.31707  0.28827  0.56680  1.0000 0.0697011268
C   C54       1.0  0.36491  0.33731  0.66400  1.0000 -0.1689536685
C   C55       1.0  0.93185  0.08355  0.32550  1.0000 0.5710826962
C   C56       1.0  0.96291  0.05411  0.36600  1.0000 -0.0203057613
C   C57       1.0  0.97081  0.09621  0.44020  1.0000 -0.0898361133
C   C58       1.0  0.99694  0.06884  0.47450  1.0000 -0.1502418269
C   C59       1.0  0.01403  0.00093  0.43650  1.0000 0.0697011268
C   C60       1.0  0.00586  0.95886  0.36060  1.0000 -0.1587051341
C   C61       1.0  0.98128  0.98568  0.32640  1.0000 -0.0898361133
C   C62       1.0  0.03827  0.97147  0.47120  1.0000 0.0697011268
C   C63       1.0  0.08731  0.92331  0.47240  1.0000 -0.1689536685
C   C64       1.0  0.75805  0.60635  0.67450  1.0000 0.5710826962
C   C65       1.0  0.68811  0.59691  0.63400  1.0000 -0.0203057613
C   C66       1.0  0.65601  0.53061  0.55980  1.0000 -0.0898361133
C   C67       1.0  0.59434  0.52244  0.52550  1.0000 -0.1502418269
C   C68       1.0  0.56443  0.57753  0.56350  1.0000 0.0697011268
C   C69       1.0  0.59826  0.64526  0.63940  1.0000 -0.1587051341
C   C70       1.0  0.65928  0.65488  0.67360  1.0000 -0.0898361133
C   C71       1.0  0.50027  0.56707  0.52880  1.0000 0.0697011268
C   C72       1.0  0.45091  0.61491  0.52760  1.0000 -0.1689536685
C   C73       1.0  0.35635  0.00805  0.17450  1.0000 0.5710826962
C   C74       1.0  0.34691  0.93811  0.13400  1.0000 -0.0203057613
C   C75       1.0  0.28061  0.90601  0.05980  1.0000 -0.0898361133
C   C76       1.0  0.27244  0.84434  0.02550  1.0000 -0.1502418269
C   C77       1.0  0.32753  0.81443  0.06350  1.0000 0.0697011268
C   C78       1.0  0.39526  0.84826  0.13940  1.0000 -0.1587051341
C   C79       1.0  0.40488  0.90928  0.17360  1.0000 -0.0898361133
C   C80       1.0  0.31707  0.75027  0.02880  1.0000 0.0697011268
C   C81       1.0  0.36491  0.70091  0.02760  1.0000 -0.1689536685
C   C82       1.0  0.83355  0.18185  0.82550  1.0000 0.5710826962
C   C83       1.0  0.80411  0.21291  0.86600  1.0000 -0.0203057613
C   C84       1.0  0.84621  0.22081  0.94020  1.0000 -0.0898361133
C   C85       1.0  0.81884  0.24694  0.97450  1.0000 -0.1502418269
C   C86       1.0  0.75093  0.26403  0.93650  1.0000 0.0697011268
C   C87       1.0  0.70886  0.25586  0.86060  1.0000 -0.1587051341
C   C88       1.0  0.73568  0.23128  0.82640  1.0000 -0.0898361133
C   C89       1.0  0.72147  0.28827  0.97120  1.0000 0.0697011268
C   C90       1.0  0.67331  0.33731  0.97240  1.0000 -0.1689536685
C   C91       1.0  0.75805  0.08355  0.15170  1.0000 0.5710826962
C   C92       1.0  0.68811  0.05411  0.09120  1.0000 -0.0203057613
C   C93       1.0  0.65601  0.09621  0.12540  1.0000 -0.0898361133
C   C94       1.0  0.59434  0.06884  0.07190  1.0000 -0.1502418269
C   C95       1.0  0.56443  0.00093  0.98690  1.0000 0.0697011268
C   C96       1.0  0.59826  0.95886  0.95300  1.0000 -0.1587051341
C   C97       1.0  0.65928  0.98568  0.00440  1.0000 -0.0898361133
C   C98       1.0  0.50027  0.97147  0.93320  1.0000 0.0697011268
C   C99       1.0  0.45091  0.92331  0.83600  1.0000 -0.1689536685
C   C100      1.0  0.93185  0.60635  0.84830  1.0000 0.5710826962
C   C101      1.0  0.96291  0.59691  0.90880  1.0000 -0.0203057613
C   C102      1.0  0.97081  0.53061  0.87460  1.0000 -0.0898361133
C   C103      1.0  0.99694  0.52244  0.92810  1.0000 -0.1502418269
C   C104      1.0  0.01403  0.57753  0.01310  1.0000 0.0697011268
C   C105      1.0  0.00586  0.64526  0.04700  1.0000 -0.1587051341
C   C106      1.0  0.98128  0.65488  0.99560  1.0000 -0.0898361133
C   C107      1.0  0.03827  0.56707  0.06680  1.0000 0.0697011268
C   C108      1.0  0.08731  0.61491  0.16400  1.0000 -0.1689536685
C   C109      1.0  0.91645  0.24195  0.84830  1.0000 0.5710826962
C   C110      1.0  0.94589  0.31189  0.90880  1.0000 -0.0203057613
C   C111      1.0  0.90379  0.34399  0.87460  1.0000 -0.0898361133
C   C112      1.0  0.93116  0.40566  0.92810  1.0000 -0.1502418269
C   C113      1.0  0.99907  0.43557  0.01310  1.0000 0.0697011268
C   C114      1.0  0.04114  0.40174  0.04700  1.0000 -0.1587051341
C   C115      1.0  0.01432  0.34072  0.99560  1.0000 -0.0898361133
C   C116      1.0  0.02853  0.49973  0.06680  1.0000 0.0697011268
C   C117      1.0  0.07669  0.54909  0.16400  1.0000 -0.1689536685
C   C118      1.0  0.39365  0.06815  0.15170  1.0000 0.5710826962
C   C119      1.0  0.40309  0.03709  0.09120  1.0000 -0.0203057613
C   C120      1.0  0.46939  0.02919  0.12540  1.0000 -0.0898361133
C   C121      1.0  0.47756  0.00306  0.07190  1.0000 -0.1502418269
C   C122      1.0  0.42247  0.98597  0.98690  1.0000 0.0697011268
C   C123      1.0  0.35474  0.99414  0.95300  1.0000 -0.1587051341
C   C124      1.0  0.34512  0.01872  0.00440  1.0000 -0.0898361133
C   C125      1.0  0.43293  0.96173  0.93320  1.0000 0.0697011268
C   C126      1.0  0.38509  0.91269  0.83600  1.0000 -0.1689536685
C   C127      1.0  0.81815  0.16645  0.17450  1.0000 0.5710826962
C   C128      1.0  0.78709  0.19589  0.13400  1.0000 -0.0203057613
C   C129      1.0  0.77919  0.15379  0.05980  1.0000 -0.0898361133
C   C130      1.0  0.75306  0.18116  0.02550  1.0000 -0.1502418269
C   C131      1.0  0.73597  0.24907  0.06350  1.0000 0.0697011268
C   C132      1.0  0.74414  0.29114  0.13940  1.0000 -0.1587051341
C   C133      1.0  0.76872  0.26432  0.17360  1.0000 -0.0898361133
C   C134      1.0  0.71173  0.27853  0.02880  1.0000 0.0697011268
C   C135      1.0  0.66269  0.32669  0.02760  1.0000 -0.1689536685
C   C136      1.0  0.99195  0.64365  0.82550  1.0000 0.5710826962
C   C137      1.0  0.06189  0.65309  0.86600  1.0000 -0.0203057613
C   C138      1.0  0.09399  0.71939  0.94020  1.0000 -0.0898361133
C   C139      1.0  0.15566  0.72756  0.97450  1.0000 -0.1502418269
C   C140      1.0  0.18557  0.67247  0.93650  1.0000 0.0697011268
C   C141      1.0  0.15174  0.60474  0.86060  1.0000 -0.1587051341
C   C142      1.0  0.09072  0.59512  0.82640  1.0000 -0.0898361133
C   C143      1.0  0.24973  0.68293  0.97120  1.0000 0.0697011268
C   C144      1.0  0.29909  0.63509  0.97240  1.0000 -0.1689536685
C   C145      1.0  0.49102  0.50898  0.50000  1.0000 -0.1910094229
C   C146      1.0  0.39320  0.60680  0.50000  1.0000 0.0072357109
C   C147      1.0  0.33854  0.66146  0.50000  1.0000 0.5710826962
C   C148      1.0  0.00898  0.99102  0.50000  1.0000 -0.1910094229
C   C149      1.0  0.10680  0.89320  0.50000  1.0000 0.0072357109
C   C150      1.0  0.16146  0.83854  0.50000  1.0000 0.5710826962
C   C151      1.0  0.25898  0.25898  0.51796  1.0000 -0.1910094229
C   C152      1.0  0.35680  0.35680  0.71360  1.0000 0.0072357109
C   C153      1.0  0.41146  0.41146  0.82292  1.0000 0.5710826962
C   C154      1.0  0.74102  0.74102  0.48204  1.0000 -0.1910094229
C   C155      1.0  0.64320  0.64320  0.28640  1.0000 0.0072357109
C   C156      1.0  0.58854  0.58854  0.17708  1.0000 0.5710826962
C   C157      1.0  0.25898  0.74102  0.00000  1.0000 -0.1910094229
C   C158      1.0  0.35680  0.64320  0.00000  1.0000 0.0072357109
C   C159      1.0  0.41146  0.58854  0.00000  1.0000 0.5710826962
C   C160      1.0  0.74102  0.25898  0.00000  1.0000 -0.1910094229
C   C161      1.0  0.64320  0.35680  0.00000  1.0000 0.0072357109
C   C162      1.0  0.58854  0.41146  0.00000  1.0000 0.5710826962
C   C163      1.0  0.49102  0.99102  0.98204  1.0000 -0.1910094229
C   C164      1.0  0.39320  0.89320  0.78640  1.0000 0.0072357109
C   C165      1.0  0.33854  0.83854  0.67708  1.0000 0.5710826962
C   C166      1.0  0.00898  0.50898  0.01796  1.0000 -0.1910094229
C   C167      1.0  0.10680  0.60680  0.21360  1.0000 0.0072357109
C   C168      1.0  0.16146  0.66146  0.32292  1.0000 0.5710826962
O   O1        1.0  0.32996  0.21473  0.25371  1.0000 -0.5255212637
O   O2        1.0  0.44741  0.21942  0.36521  1.0000 -0.4985367695
O   O3        1.0  0.30019  0.66247  0.50028  1.0000 -0.5142483889
O   O4        1.0  0.96102  0.07625  0.74629  1.0000 -0.5206789443
O   O5        1.0  0.85421  0.08220  0.63479  1.0000 -0.4985367695
O   O6        1.0  0.16219  0.79991  0.49972  1.0000 -0.5142483889
O   O7        1.0  0.96473  0.21102  0.38477  1.0000 -0.5206789443
O   O8        1.0  0.96942  0.10421  0.27201  1.0000 -0.4985367695
O   O9        1.0  0.41247  0.41219  0.86228  1.0000 -0.5206789443
O   O10       1.0  0.82625  0.57996  0.61523  1.0000 -0.5255212637
O   O11       1.0  0.83220  0.69741  0.72799  1.0000 -0.4985367695
O   O12       1.0  0.54991  0.55019  0.13772  1.0000 -0.5142483889
O   O13       1.0  0.78898  0.03527  0.61523  1.0000 -0.5255212637
O   O14       1.0  0.89579  0.03058  0.72799  1.0000 -0.4985367695
O   O15       1.0  0.58781  0.58753  0.13772  1.0000 -0.5142483889
O   O16       1.0  0.42004  0.17375  0.38477  1.0000 -0.5206789443
O   O17       1.0  0.30259  0.16780  0.27201  1.0000 -0.4985367695
O   O18       1.0  0.44981  0.45009  0.86228  1.0000 -0.5206789443
O   O19       1.0  0.92375  0.03898  0.25371  1.0000 -0.5255212637
O   O20       1.0  0.91780  0.14579  0.36521  1.0000 -0.4985367695
O   O21       1.0  0.20009  0.83781  0.50028  1.0000 -0.5206789443
O   O22       1.0  0.78527  0.67004  0.74629  1.0000 -0.5255212637
O   O23       1.0  0.78058  0.55259  0.63479  1.0000 -0.4985367695
O   O24       1.0  0.33753  0.69981  0.49972  1.0000 -0.5142483889
O   O25       1.0  0.42004  0.03527  0.24629  1.0000 -0.5255212637
O   O26       1.0  0.30259  0.03058  0.13479  1.0000 -0.4985367695
O   O27       1.0  0.44981  0.58753  0.99972  1.0000 -0.5206789443
O   O28       1.0  0.78898  0.17375  0.75371  1.0000 -0.5206789443
O   O29       1.0  0.89579  0.16780  0.86521  1.0000 -0.4985367695
O   O30       1.0  0.58781  0.45009  0.00028  1.0000 -0.5142483889
O   O31       1.0  0.78527  0.03898  0.11523  1.0000 -0.5255212637
O   O32       1.0  0.78058  0.14579  0.22799  1.0000 -0.4985367695
O   O33       1.0  0.33753  0.83781  0.63772  1.0000 -0.5142483889
O   O34       1.0  0.92375  0.67004  0.88477  1.0000 -0.5255212637
O   O35       1.0  0.91780  0.55259  0.77201  1.0000 -0.4985367695
O   O36       1.0  0.20009  0.69981  0.36228  1.0000 -0.5142483889
O   O37       1.0  0.96102  0.21473  0.88477  1.0000 -0.5206789443
O   O38       1.0  0.85421  0.21942  0.77201  1.0000 -0.4985367695
O   O39       1.0  0.16219  0.66247  0.36228  1.0000 -0.5142483889
O   O40       1.0  0.32996  0.07625  0.11523  1.0000 -0.5255212637
O   O41       1.0  0.44741  0.08220  0.22799  1.0000 -0.4985367695
O   O42       1.0  0.30019  0.79991  0.63772  1.0000 -0.5142483889
O   O43       1.0  0.82625  0.21102  0.24629  1.0000 -0.5255212637
O   O44       1.0  0.83220  0.10421  0.13479  1.0000 -0.4985367695
O   O45       1.0  0.54991  0.41219  0.99972  1.0000 -0.5206789443
O   O46       1.0  0.96473  0.57996  0.75371  1.0000 -0.5206789443
O   O47       1.0  0.96942  0.69741  0.86521  1.0000 -0.4985367695
O   O48       1.0  0.41247  0.55019  0.00028  1.0000 -0.5142483889
