# DDEC6 charges by PACMAN v1.1 (https://github.com/mtap-research/PACMAN-charge/)
data_2018[Gd][fcu]3[ASR]1
_chemical_formula_sum              "Gd6 H8 C48 O32 F24"
_cell_length_a       15.3417
_cell_length_b       15.3417
_cell_length_c       15.3417
_cell_angle_alpha    60
_cell_angle_beta     60
_cell_angle_gamma    60

_symmetry_space_group_name_H-M    "P 1"
_symmetry_Int_Tables_number       1

loop_
  _symmetry_equiv_pos_as_xyz
  'x, y, z'

loop_
  _atom_site_type_symbol
  _atom_site_label
  _atom_site_symmetry_multiplicity
  _atom_site_fract_x
  _atom_site_fract_y
  _atom_site_fract_z
  _atom_site_occupancy
  _atom_site_charge
Gd  Gd1       1.0  0.62836  0.62836  0.37164  1.0000 2.1619166205
Gd  Gd2       1.0  0.37164  0.37164  0.62836  1.0000 2.1619166205
Gd  Gd3       1.0  0.62836  0.37164  0.62836  1.0000 2.1619166205
Gd  Gd4       1.0  0.37164  0.62836  0.37164  1.0000 2.1619166205
Gd  Gd5       1.0  0.37164  0.62836  0.62836  1.0000 2.1619166205
Gd  Gd6       1.0  0.62836  0.37164  0.37164  1.0000 2.1619166205
H   H1        1.0  0.74465  0.41845  0.41845  1.0000 0.4037591884
H   H2        1.0  0.41845  0.41845  0.74465  1.0000 0.4050599406
H   H3        1.0  0.41845  0.74465  0.41845  1.0000 0.4050599406
H   H4        1.0  0.41845  0.41845  0.41845  1.0000 0.4037591884
H   H5        1.0  0.25535  0.58155  0.58155  1.0000 0.4037591884
H   H6        1.0  0.58155  0.58155  0.25535  1.0000 0.4037591884
H   H7        1.0  0.58155  0.58155  0.58155  1.0000 0.4037591884
H   H8        1.0  0.58155  0.25535  0.58155  1.0000 0.4037591884
C   C1        1.0  0.50000  0.80900  0.19100  1.0000 0.7051794002
C   C2        1.0  0.50000  0.90800  0.09200  1.0000 -0.1806955554
C   C3        1.0  0.19100  0.50000  0.50000  1.0000 0.7051794002
C   C4        1.0  0.09200  0.50000  0.50000  1.0000 -0.1806955554
C   C5        1.0  0.80900  0.50000  0.50000  1.0000 0.7051794002
C   C6        1.0  0.90800  0.50000  0.50000  1.0000 -0.1806955554
C   C7        1.0  0.50000  0.19100  0.80900  1.0000 0.7051794002
C   C8        1.0  0.50000  0.09200  0.90800  1.0000 -0.1806955554
C   C9        1.0  0.80900  0.19100  0.50000  1.0000 0.7051794002
C   C10       1.0  0.90800  0.09200  0.50000  1.0000 -0.1806955554
C   C11       1.0  0.50000  0.50000  0.19100  1.0000 0.7051794002
C   C12       1.0  0.50000  0.50000  0.09200  1.0000 -0.1806955554
C   C13       1.0  0.50000  0.50000  0.80900  1.0000 0.7051794002
C   C14       1.0  0.50000  0.50000  0.90800  1.0000 -0.1806955554
C   C15       1.0  0.19100  0.80900  0.50000  1.0000 0.7051794002
C   C16       1.0  0.09200  0.90800  0.50000  1.0000 -0.1806955554
C   C17       1.0  0.19100  0.50000  0.80900  1.0000 0.7051794002
C   C18       1.0  0.09200  0.50000  0.90800  1.0000 -0.1806955554
C   C19       1.0  0.50000  0.19100  0.50000  1.0000 0.7051794002
C   C20       1.0  0.50000  0.09200  0.50000  1.0000 -0.1806955554
C   C21       1.0  0.50000  0.80900  0.50000  1.0000 0.7051794002
C   C22       1.0  0.50000  0.90800  0.50000  1.0000 -0.1806955554
C   C23       1.0  0.80900  0.50000  0.19100  1.0000 0.7051794002
C   C24       1.0  0.90800  0.50000  0.09200  1.0000 -0.1806955554
C   C25       1.0  0.44920  0.00520  0.09640  1.0000 0.1656503449
C   C26       1.0  0.09640  0.44920  0.44920  1.0000 0.1656503449
C   C27       1.0  0.00520  0.44920  0.44920  1.0000 0.1656503449
C   C28       1.0  0.44920  0.09640  0.00520  1.0000 0.1647315045
C   C29       1.0  0.00520  0.09640  0.44920  1.0000 0.1647315045
C   C30       1.0  0.44920  0.44920  0.09640  1.0000 0.1647315045
C   C31       1.0  0.44920  0.44920  0.00520  1.0000 0.1656503449
C   C32       1.0  0.09640  0.00520  0.44920  1.0000 0.1647315045
C   C33       1.0  0.09640  0.44920  0.00520  1.0000 0.1656503449
C   C34       1.0  0.44920  0.09640  0.44920  1.0000 0.1647315045
C   C35       1.0  0.44920  0.00520  0.44920  1.0000 0.1647315045
C   C36       1.0  0.00520  0.44920  0.09640  1.0000 0.1656503449
C   C37       1.0  0.55080  0.55080  0.90360  1.0000 0.1647315045
C   C38       1.0  0.90360  0.99480  0.55080  1.0000 0.1647315045
C   C39       1.0  0.99480  0.90360  0.55080  1.0000 0.1647315045
C   C40       1.0  0.55080  0.55080  0.99480  1.0000 0.1647315045
C   C41       1.0  0.99480  0.55080  0.55080  1.0000 0.1647315045
C   C42       1.0  0.55080  0.99480  0.90360  1.0000 0.1647315045
C   C43       1.0  0.55080  0.90360  0.99480  1.0000 0.1647315045
C   C44       1.0  0.90360  0.55080  0.55080  1.0000 0.1647315045
C   C45       1.0  0.90360  0.55080  0.99480  1.0000 0.1647315045
C   C46       1.0  0.55080  0.99480  0.55080  1.0000 0.1647315045
C   C47       1.0  0.55080  0.90360  0.55080  1.0000 0.1647315045
C   C48       1.0  0.99480  0.55080  0.90360  1.0000 0.1647315045
O   O1        1.0  0.57620  0.77360  0.22640  1.0000 -0.6538816596
O   O2        1.0  0.22640  0.42380  0.57620  1.0000 -0.6538816596
O   O3        1.0  0.77360  0.57620  0.42380  1.0000 -0.6538816596
O   O4        1.0  0.42380  0.22640  0.77360  1.0000 -0.6538816596
O   O5        1.0  0.77360  0.22640  0.57620  1.0000 -0.6538816596
O   O6        1.0  0.42380  0.57620  0.22640  1.0000 -0.6538816596
O   O7        1.0  0.57620  0.42380  0.77360  1.0000 -0.6538816596
O   O8        1.0  0.22640  0.77360  0.42380  1.0000 -0.6538816596
O   O9        1.0  0.22640  0.57620  0.77360  1.0000 -0.6538816596
O   O10       1.0  0.57620  0.22640  0.42380  1.0000 -0.6538816596
O   O11       1.0  0.42380  0.77360  0.57620  1.0000 -0.6538816596
O   O12       1.0  0.77360  0.42380  0.22640  1.0000 -0.6538816596
O   O13       1.0  0.42380  0.57620  0.77360  1.0000 -0.6538816596
O   O14       1.0  0.77360  0.22640  0.42380  1.0000 -0.6538816596
O   O15       1.0  0.22640  0.77360  0.57620  1.0000 -0.6538816596
O   O16       1.0  0.57620  0.42380  0.22640  1.0000 -0.6538816596
O   O17       1.0  0.22640  0.57620  0.42380  1.0000 -0.6538816596
O   O18       1.0  0.57620  0.22640  0.77360  1.0000 -0.6538816596
O   O19       1.0  0.42380  0.77360  0.22640  1.0000 -0.6538816596
O   O20       1.0  0.77360  0.42380  0.57620  1.0000 -0.6538816596
O   O21       1.0  0.77360  0.57620  0.22640  1.0000 -0.6538816596
O   O22       1.0  0.42380  0.22640  0.57620  1.0000 -0.6538816596
O   O23       1.0  0.57620  0.77360  0.42380  1.0000 -0.6538816596
O   O24       1.0  0.22640  0.42380  0.77360  1.0000 -0.6538816596
O   O25       1.0  0.67700  0.44100  0.44100  1.0000 -1.0756302009
O   O26       1.0  0.44100  0.44100  0.67700  1.0000 -1.0756302009
O   O27       1.0  0.44100  0.67700  0.44100  1.0000 -1.0756302009
O   O28       1.0  0.44100  0.44100  0.44100  1.0000 -1.0741914441
O   O29       1.0  0.32300  0.55900  0.55900  1.0000 -1.0756302009
O   O30       1.0  0.55900  0.55900  0.32300  1.0000 -1.0741914441
O   O31       1.0  0.55900  0.55900  0.55900  1.0000 -1.0756302009
O   O32       1.0  0.55900  0.32300  0.55900  1.0000 -1.0756302009
F   F1        1.0  0.39590  0.01610  0.19210  1.0000 -0.0900719208
F   F2        1.0  0.19210  0.39590  0.39590  1.0000 -0.0900719208
F   F3        1.0  0.01610  0.39590  0.39590  1.0000 -0.0900719208
F   F4        1.0  0.39590  0.19210  0.01610  1.0000 -0.0900719208
F   F5        1.0  0.01610  0.19210  0.39590  1.0000 -0.0900719208
F   F6        1.0  0.39590  0.39590  0.19210  1.0000 -0.0900719208
F   F7        1.0  0.39590  0.39590  0.01610  1.0000 -0.0900719208
F   F8        1.0  0.19210  0.01610  0.39590  1.0000 -0.0900719208
F   F9        1.0  0.19210  0.39590  0.01610  1.0000 -0.0900719208
F   F10       1.0  0.39590  0.19210  0.39590  1.0000 -0.0900719208
F   F11       1.0  0.39590  0.01610  0.39590  1.0000 -0.0900719208
F   F12       1.0  0.01610  0.39590  0.19210  1.0000 -0.0900719208
F   F13       1.0  0.60410  0.60410  0.80790  1.0000 -0.0900719208
F   F14       1.0  0.80790  0.98390  0.60410  1.0000 -0.0900719208
F   F15       1.0  0.98390  0.80790  0.60410  1.0000 -0.0900719208
F   F16       1.0  0.60410  0.60410  0.98390  1.0000 -0.0900719208
F   F17       1.0  0.98390  0.60410  0.60410  1.0000 -0.0900719208
F   F18       1.0  0.60410  0.98390  0.80790  1.0000 -0.0900719208
F   F19       1.0  0.60410  0.80790  0.98390  1.0000 -0.0900719208
F   F20       1.0  0.80790  0.60410  0.60410  1.0000 -0.0900719208
F   F21       1.0  0.80790  0.60410  0.98390  1.0000 -0.0900719208
F   F22       1.0  0.60410  0.98390  0.60410  1.0000 -0.0900719208
F   F23       1.0  0.60410  0.80790  0.60410  1.0000 -0.0900719208
F   F24       1.0  0.98390  0.60410  0.80790  1.0000 -0.0900719208
