# DDEC6 charges by PACMAN v1.1 (https://github.com/mtap-research/PACMAN-charge/)
data_2018[NiCo][scu]3[ASR]2
_chemical_formula_sum              "Co4 Ni2 P8 H48 C88 N8 O24"
_cell_length_a       21.98
_cell_length_b       21.98
_cell_length_c       8.96
_cell_angle_alpha    90
_cell_angle_beta     90
_cell_angle_gamma    90

_symmetry_space_group_name_H-M    "P 1"
_symmetry_Int_Tables_number       1

loop_
  _symmetry_equiv_pos_as_xyz
  'x, y, z'

loop_
  _atom_site_type_symbol
  _atom_site_label
  _atom_site_symmetry_multiplicity
  _atom_site_fract_x
  _atom_site_fract_y
  _atom_site_fract_z
  _atom_site_occupancy
  _atom_site_charge
Co  Co1       1.0  0.00000  0.50000  0.92720  1.0000 1.2839959216
Co  Co2       1.0  0.50000  0.00000  0.07280  1.0000 1.2839959216
Co  Co3       1.0  0.00000  0.50000  0.42720  1.0000 1.2839959216
Co  Co4       1.0  0.50000  0.00000  0.57280  1.0000 1.2839959216
Ni  Ni1       1.0  0.50000  0.50000  0.00000  1.0000 0.3784123313
Ni  Ni2       1.0  0.50000  0.50000  0.50000  1.0000 0.3784123313
P   P1        1.0  0.92320  0.57930  0.18020  1.0000 1.3206115615
P   P2        1.0  0.07680  0.42070  0.18020  1.0000 1.3206115615
P   P3        1.0  0.42070  0.92320  0.81980  1.0000 1.3206115615
P   P4        1.0  0.57930  0.07680  0.81980  1.0000 1.3206115615
P   P5        1.0  0.92320  0.42070  0.68020  1.0000 1.3206115615
P   P6        1.0  0.07680  0.57930  0.68020  1.0000 1.3206115615
P   P7        1.0  0.42070  0.07680  0.31980  1.0000 1.3206115615
P   P8        1.0  0.57930  0.92320  0.31980  1.0000 1.3206115615
H   H1        1.0  0.57500  0.71250  0.87790  1.0000 0.1394904301
H   H2        1.0  0.66860  0.65730  0.94920  1.0000 0.1394904301
H   H3        1.0  0.75240  0.49610  0.90410  1.0000 0.1224391897
H   H4        1.0  0.85620  0.51320  0.95930  1.0000 0.1479113408
H   H5        1.0  0.80790  0.63200  0.28150  1.0000 0.1394904301
H   H6        1.0  0.70630  0.61130  0.23830  1.0000 0.1224391897
H   H7        1.0  0.42500  0.28750  0.87790  1.0000 0.1394904301
H   H8        1.0  0.33140  0.34270  0.94920  1.0000 0.1394904301
H   H9        1.0  0.24760  0.50390  0.90410  1.0000 0.1224391897
H   H10       1.0  0.14380  0.48680  0.95930  1.0000 0.1479113408
H   H11       1.0  0.19210  0.36800  0.28150  1.0000 0.1394904301
H   H12       1.0  0.29370  0.38870  0.23830  1.0000 0.1224391897
H   H13       1.0  0.28750  0.57500  0.12210  1.0000 0.1394904301
H   H14       1.0  0.34270  0.66860  0.05080  1.0000 0.1394904301
H   H15       1.0  0.50390  0.75240  0.09590  1.0000 0.1224391897
H   H16       1.0  0.48680  0.85620  0.04070  1.0000 0.1479113408
H   H17       1.0  0.36800  0.80790  0.71850  1.0000 0.1394904301
H   H18       1.0  0.38870  0.70630  0.76170  1.0000 0.1224391897
H   H19       1.0  0.71250  0.42500  0.12210  1.0000 0.1394904301
H   H20       1.0  0.65730  0.33140  0.05080  1.0000 0.1394904301
H   H21       1.0  0.49610  0.24760  0.09590  1.0000 0.1224391897
H   H22       1.0  0.51320  0.14380  0.04070  1.0000 0.1479113408
H   H23       1.0  0.63200  0.19210  0.71850  1.0000 0.1394904301
H   H24       1.0  0.61130  0.29370  0.76170  1.0000 0.1224391897
H   H25       1.0  0.57500  0.28750  0.37790  1.0000 0.1394904301
H   H26       1.0  0.66860  0.34270  0.44920  1.0000 0.1394904301
H   H27       1.0  0.75240  0.50390  0.40410  1.0000 0.1224391897
H   H28       1.0  0.85620  0.48680  0.45930  1.0000 0.1479113408
H   H29       1.0  0.80790  0.36800  0.78150  1.0000 0.1394904301
H   H30       1.0  0.70630  0.38870  0.73830  1.0000 0.1224391897
H   H31       1.0  0.42500  0.71250  0.37790  1.0000 0.1394904301
H   H32       1.0  0.33140  0.65730  0.44920  1.0000 0.1394904301
H   H33       1.0  0.24760  0.49610  0.40410  1.0000 0.1224391897
H   H34       1.0  0.14380  0.51320  0.45930  1.0000 0.1479113408
H   H35       1.0  0.19210  0.63200  0.78150  1.0000 0.1394904301
H   H36       1.0  0.29370  0.61130  0.73830  1.0000 0.1224391897
H   H37       1.0  0.28750  0.42500  0.62210  1.0000 0.1394904301
H   H38       1.0  0.34270  0.33140  0.55080  1.0000 0.1394904301
H   H39       1.0  0.50390  0.24760  0.59590  1.0000 0.1224391897
H   H40       1.0  0.48680  0.14380  0.54070  1.0000 0.1479113408
H   H41       1.0  0.36800  0.19210  0.21850  1.0000 0.1394904301
H   H42       1.0  0.38870  0.29370  0.26170  1.0000 0.1224391897
H   H43       1.0  0.71250  0.57500  0.62210  1.0000 0.1394904301
H   H44       1.0  0.65730  0.66860  0.55080  1.0000 0.1394904301
H   H45       1.0  0.49610  0.75240  0.59590  1.0000 0.1224391897
H   H46       1.0  0.51320  0.85620  0.54070  1.0000 0.1479113408
H   H47       1.0  0.63200  0.80790  0.21850  1.0000 0.1394904301
H   H48       1.0  0.61130  0.70630  0.26170  1.0000 0.1224391897
C   C1        1.0  0.52610  0.63240  0.95340  1.0000 0.1870398847
C   C2        1.0  0.57730  0.67250  0.91790  1.0000 -0.1599868137
C   C3        1.0  0.62830  0.64190  0.95270  1.0000 -0.1672828915
C   C4        1.0  0.61010  0.58030  0.99720  1.0000 0.1870398847
C   C5        1.0  0.65020  0.53520  0.04480  1.0000 -0.0694299845
C   C6        1.0  0.71680  0.54860  0.06930  1.0000 0.1011016247
C   C7        1.0  0.76290  0.52220  0.98500  1.0000 -0.1370358496
C   C8        1.0  0.82550  0.53320  0.01600  1.0000 -0.0565920329
C   C9        1.0  0.84180  0.57390  0.12900  1.0000 -0.150699298
C   C10       1.0  0.79710  0.60300  0.20800  1.0000 -0.0694299845
C   C11       1.0  0.73620  0.59080  0.18100  1.0000 -0.1370358496
C   C12       1.0  0.47390  0.36760  0.95340  1.0000 0.1870398847
C   C13       1.0  0.42270  0.32750  0.91790  1.0000 -0.1599868137
C   C14       1.0  0.37170  0.35810  0.95270  1.0000 -0.1672828915
C   C15       1.0  0.38990  0.41970  0.99720  1.0000 0.1870398847
C   C16       1.0  0.34980  0.46480  0.04480  1.0000 -0.0694299845
C   C17       1.0  0.28320  0.45140  0.06930  1.0000 0.1011016247
C   C18       1.0  0.23710  0.47780  0.98500  1.0000 -0.1370358496
C   C19       1.0  0.17450  0.46680  0.01600  1.0000 -0.0565920329
C   C20       1.0  0.15820  0.42610  0.12900  1.0000 -0.150699298
C   C21       1.0  0.20290  0.39700  0.20800  1.0000 -0.0694299845
C   C22       1.0  0.26380  0.40920  0.18100  1.0000 -0.1370358496
C   C23       1.0  0.36760  0.52610  0.04660  1.0000 0.1870398847
C   C24       1.0  0.32750  0.57730  0.08210  1.0000 -0.1599868137
C   C25       1.0  0.35810  0.62830  0.04730  1.0000 -0.1672828915
C   C26       1.0  0.41970  0.61010  0.00280  1.0000 0.1870398847
C   C27       1.0  0.46480  0.65020  0.95520  1.0000 -0.0694299845
C   C28       1.0  0.45140  0.71680  0.93070  1.0000 0.1011016247
C   C29       1.0  0.47780  0.76290  0.01500  1.0000 -0.1370358496
C   C30       1.0  0.46680  0.82550  0.98400  1.0000 -0.0565920329
C   C31       1.0  0.42610  0.84180  0.87100  1.0000 -0.150699298
C   C32       1.0  0.39700  0.79710  0.79200  1.0000 -0.0694299845
C   C33       1.0  0.40920  0.73620  0.81900  1.0000 -0.1370358496
C   C34       1.0  0.63240  0.47390  0.04660  1.0000 0.1870398847
C   C35       1.0  0.67250  0.42270  0.08210  1.0000 -0.1599868137
C   C36       1.0  0.64190  0.37170  0.04730  1.0000 -0.1672828915
C   C37       1.0  0.58030  0.38990  0.00280  1.0000 0.1870398847
C   C38       1.0  0.53520  0.34980  0.95520  1.0000 -0.0694299845
C   C39       1.0  0.54860  0.28320  0.93070  1.0000 0.1011016247
C   C40       1.0  0.52220  0.23710  0.01500  1.0000 -0.1370358496
C   C41       1.0  0.53320  0.17450  0.98400  1.0000 -0.0565920329
C   C42       1.0  0.57390  0.15820  0.87100  1.0000 -0.150699298
C   C43       1.0  0.60300  0.20290  0.79200  1.0000 -0.0694299845
C   C44       1.0  0.59080  0.26380  0.81900  1.0000 -0.1370358496
C   C45       1.0  0.52610  0.36760  0.45340  1.0000 0.1870398847
C   C46       1.0  0.57730  0.32750  0.41790  1.0000 -0.1599868137
C   C47       1.0  0.62830  0.35810  0.45270  1.0000 -0.1672828915
C   C48       1.0  0.61010  0.41970  0.49720  1.0000 0.1870398847
C   C49       1.0  0.65020  0.46480  0.54480  1.0000 -0.0694299845
C   C50       1.0  0.71680  0.45140  0.56930  1.0000 0.1011016247
C   C51       1.0  0.76290  0.47780  0.48500  1.0000 -0.1370358496
C   C52       1.0  0.82550  0.46680  0.51600  1.0000 -0.0565920329
C   C53       1.0  0.84180  0.42610  0.62900  1.0000 -0.150699298
C   C54       1.0  0.79710  0.39700  0.70800  1.0000 -0.0694299845
C   C55       1.0  0.73620  0.40920  0.68100  1.0000 -0.1370358496
C   C56       1.0  0.47390  0.63240  0.45340  1.0000 0.1870398847
C   C57       1.0  0.42270  0.67250  0.41790  1.0000 -0.1599868137
C   C58       1.0  0.37170  0.64190  0.45270  1.0000 -0.1672828915
C   C59       1.0  0.38990  0.58030  0.49720  1.0000 0.1870398847
C   C60       1.0  0.34980  0.53520  0.54480  1.0000 -0.0694299845
C   C61       1.0  0.28320  0.54860  0.56930  1.0000 0.1011016247
C   C62       1.0  0.23710  0.52220  0.48500  1.0000 -0.1370358496
C   C63       1.0  0.17450  0.53320  0.51600  1.0000 -0.0565920329
C   C64       1.0  0.15820  0.57390  0.62900  1.0000 -0.150699298
C   C65       1.0  0.20290  0.60300  0.70800  1.0000 -0.0694299845
C   C66       1.0  0.26380  0.59080  0.68100  1.0000 -0.1370358496
C   C67       1.0  0.36760  0.47390  0.54660  1.0000 0.1870398847
C   C68       1.0  0.32750  0.42270  0.58210  1.0000 -0.1599868137
C   C69       1.0  0.35810  0.37170  0.54730  1.0000 -0.1672828915
C   C70       1.0  0.41970  0.38990  0.50280  1.0000 0.1870398847
C   C71       1.0  0.46480  0.34980  0.45520  1.0000 -0.0694299845
C   C72       1.0  0.45140  0.28320  0.43070  1.0000 0.1011016247
C   C73       1.0  0.47780  0.23710  0.51500  1.0000 -0.1370358496
C   C74       1.0  0.46680  0.17450  0.48400  1.0000 -0.0565920329
C   C75       1.0  0.42610  0.15820  0.37100  1.0000 -0.150699298
C   C76       1.0  0.39700  0.20290  0.29200  1.0000 -0.0694299845
C   C77       1.0  0.40920  0.26380  0.31900  1.0000 -0.1370358496
C   C78       1.0  0.63240  0.52610  0.54660  1.0000 0.1870398847
C   C79       1.0  0.67250  0.57730  0.58210  1.0000 -0.1599868137
C   C80       1.0  0.64190  0.62830  0.54730  1.0000 -0.1672828915
C   C81       1.0  0.58030  0.61010  0.50280  1.0000 0.1870398847
C   C82       1.0  0.53520  0.65020  0.45520  1.0000 -0.0694299845
C   C83       1.0  0.54860  0.71680  0.43070  1.0000 0.1011016247
C   C84       1.0  0.52220  0.76290  0.51500  1.0000 -0.1370358496
C   C85       1.0  0.53320  0.82550  0.48400  1.0000 -0.0565920329
C   C86       1.0  0.57390  0.84180  0.37100  1.0000 -0.150699298
C   C87       1.0  0.60300  0.79710  0.29200  1.0000 -0.0694299845
C   C88       1.0  0.59080  0.73620  0.31900  1.0000 -0.1370358496
N   N1        1.0  0.54710  0.57400  0.98920  1.0000 -0.2821615088
N   N2        1.0  0.45290  0.42600  0.98920  1.0000 -0.2821615088
N   N3        1.0  0.42600  0.54710  0.01080  1.0000 -0.2821615088
N   N4        1.0  0.57400  0.45290  0.01080  1.0000 -0.2821615088
N   N5        1.0  0.54710  0.42600  0.48920  1.0000 -0.2821615088
N   N6        1.0  0.45290  0.57400  0.48920  1.0000 -0.2821615088
N   N7        1.0  0.42600  0.45290  0.51080  1.0000 -0.2821615088
N   N8        1.0  0.57400  0.54710  0.51080  1.0000 -0.2821615088
O   O1        1.0  0.96150  0.56510  0.03700  1.0000 -0.7569732266
O   O2        1.0  0.93570  0.53160  0.30800  1.0000 -0.7722860026
O   O3        1.0  0.93510  0.64650  0.23400  1.0000 -0.5847415674
O   O4        1.0  0.03850  0.43490  0.03700  1.0000 -0.7569732266
O   O5        1.0  0.06430  0.46840  0.30800  1.0000 -0.7722860026
O   O6        1.0  0.06490  0.35350  0.23400  1.0000 -0.5847415674
O   O7        1.0  0.43490  0.96150  0.96300  1.0000 -0.7569732266
O   O8        1.0  0.46840  0.93570  0.69200  1.0000 -0.7722860026
O   O9        1.0  0.35350  0.93510  0.76600  1.0000 -0.5847415674
O   O10       1.0  0.56510  0.03850  0.96300  1.0000 -0.7569732266
O   O11       1.0  0.53160  0.06430  0.69200  1.0000 -0.7722860026
O   O12       1.0  0.64650  0.06490  0.76600  1.0000 -0.5847415674
O   O13       1.0  0.96150  0.43490  0.53700  1.0000 -0.7569732266
O   O14       1.0  0.93570  0.46840  0.80800  1.0000 -0.7722860026
O   O15       1.0  0.93510  0.35350  0.73400  1.0000 -0.5847415674
O   O16       1.0  0.03850  0.56510  0.53700  1.0000 -0.7569732266
O   O17       1.0  0.06430  0.53160  0.80800  1.0000 -0.7722860026
O   O18       1.0  0.06490  0.64650  0.73400  1.0000 -0.5847415674
O   O19       1.0  0.43490  0.03850  0.46300  1.0000 -0.7569732266
O   O20       1.0  0.46840  0.06430  0.19200  1.0000 -0.7722860026
O   O21       1.0  0.35350  0.06490  0.26600  1.0000 -0.5847415674
O   O22       1.0  0.56510  0.96150  0.46300  1.0000 -0.7569732266
O   O23       1.0  0.53160  0.93570  0.19200  1.0000 -0.7722860026
O   O24       1.0  0.64650  0.93510  0.26600  1.0000 -0.5847415674
