# DDEC6 charges by PACMAN v1.1 (https://github.com/mtap-research/PACMAN-charge/)
data_2018[Cd][dia]3[ASR]2
_chemical_formula_sum              "Cd4 H72 C104 N24 O24"
_cell_length_a       14.4927
_cell_length_b       14.4927
_cell_length_c       15.0376
_cell_angle_alpha    85.0141
_cell_angle_beta     94.9859
_cell_angle_gamma    56.4002

_symmetry_space_group_name_H-M    "P 1"
_symmetry_Int_Tables_number       1

loop_
  _symmetry_equiv_pos_as_xyz
  'x, y, z'

loop_
  _atom_site_type_symbol
  _atom_site_label
  _atom_site_symmetry_multiplicity
  _atom_site_fract_x
  _atom_site_fract_y
  _atom_site_fract_z
  _atom_site_occupancy
  _atom_site_charge
Cd  Cd1       1.0  0.64979  0.57871  0.87732  1.0000 0.859368937
Cd  Cd2       1.0  0.57871  0.64979  0.62268  1.0000 0.859368937
Cd  Cd3       1.0  0.35021  0.42129  0.12268  1.0000 0.859368937
Cd  Cd4       1.0  0.42129  0.35021  0.37732  1.0000 0.859368937
H   H1        1.0  0.00080  0.26060  0.06310  1.0000 0.1101956938
H   H2        1.0  0.11760  0.08260  0.14240  1.0000 0.1101956938
H   H3        1.0  0.75820  0.20900  0.00590  1.0000 0.130008361
H   H4        1.0  0.22050  0.91310  0.21970  1.0000 0.1101956938
H   H5        1.0  0.32740  0.72820  0.28490  1.0000 0.1101956938
H   H6        1.0  0.07950  0.69370  0.20030  1.0000 0.130008361
H   H7        1.0  0.59190  0.82290  0.77570  1.0000 0.1206226011
H   H8        1.0  0.78670  0.83170  0.97150  1.0000 0.1206226011
H   H9        1.0  0.82130  0.64530  0.99000  1.0000 0.130008361
H   H10       1.0  0.60730  0.04370  0.93570  1.0000 0.130008361
H   H11       1.0  0.48280  0.27740  0.71250  1.0000 0.1206226011
H   H12       1.0  0.54180  0.13900  0.62330  1.0000 0.1206226011
H   H13       1.0  0.62880  0.95320  0.68930  1.0000 0.130008361
H   H14       1.0  0.44300  0.21440  0.98470  1.0000 0.104537824
H   H15       1.0  0.53520  0.37220  0.82680  1.0000 0.1372581216
H   H16       1.0  0.44600  0.48240  0.94460  1.0000 0.1372581216
H   H17       1.0  0.72460  0.10560  0.04230  1.0000 0.2891611623
H   H18       1.0  0.94080  0.77300  0.13070  1.0000 0.2891611623
H   H19       1.0  0.26060  0.00080  0.43690  1.0000 0.1101956938
H   H20       1.0  0.08260  0.11760  0.35760  1.0000 0.1101956938
H   H21       1.0  0.20900  0.75820  0.49410  1.0000 0.130008361
H   H22       1.0  0.91310  0.22050  0.28030  1.0000 0.1101956938
H   H23       1.0  0.72820  0.32740  0.21510  1.0000 0.1206226011
H   H24       1.0  0.69370  0.07950  0.29970  1.0000 0.130008361
H   H25       1.0  0.82290  0.59190  0.72430  1.0000 0.1206226011
H   H26       1.0  0.83170  0.78670  0.52850  1.0000 0.1206226011
H   H27       1.0  0.64530  0.82130  0.51000  1.0000 0.130008361
H   H28       1.0  0.04370  0.60730  0.56430  1.0000 0.130008361
H   H29       1.0  0.27740  0.48280  0.78750  1.0000 0.1206226011
H   H30       1.0  0.13900  0.54180  0.87670  1.0000 0.1206226011
H   H31       1.0  0.95320  0.62880  0.81070  1.0000 0.130008361
H   H32       1.0  0.21440  0.44300  0.51530  1.0000 0.104537824
H   H33       1.0  0.37220  0.53520  0.67320  1.0000 0.1372581216
H   H34       1.0  0.48240  0.44600  0.55540  1.0000 0.1372581216
H   H35       1.0  0.10560  0.72460  0.45770  1.0000 0.2891611623
H   H36       1.0  0.77300  0.94080  0.36930  1.0000 0.2891611623
H   H37       1.0  0.99920  0.73940  0.93690  1.0000 0.1101956938
H   H38       1.0  0.88240  0.91740  0.85760  1.0000 0.1101956938
H   H39       1.0  0.24180  0.79100  0.99410  1.0000 0.130008361
H   H40       1.0  0.77950  0.08690  0.78030  1.0000 0.1101956938
H   H41       1.0  0.67260  0.27180  0.71510  1.0000 0.1101956938
H   H42       1.0  0.92050  0.30630  0.79970  1.0000 0.130008361
H   H43       1.0  0.40810  0.17710  0.22430  1.0000 0.1206226011
H   H44       1.0  0.21330  0.16830  0.02850  1.0000 0.1206226011
H   H45       1.0  0.17870  0.35470  0.01000  1.0000 0.130008361
H   H46       1.0  0.39270  0.95630  0.06430  1.0000 0.130008361
H   H47       1.0  0.51720  0.72260  0.28750  1.0000 0.1206226011
H   H48       1.0  0.45820  0.86100  0.37670  1.0000 0.1206226011
H   H49       1.0  0.37120  0.04680  0.31070  1.0000 0.130008361
H   H50       1.0  0.55700  0.78560  0.01530  1.0000 0.104537824
H   H51       1.0  0.46480  0.62780  0.17320  1.0000 0.1372581216
H   H52       1.0  0.55400  0.51760  0.05540  1.0000 0.1372581216
H   H53       1.0  0.27540  0.89440  0.95770  1.0000 0.2891611623
H   H54       1.0  0.05920  0.22700  0.86930  1.0000 0.2891611623
H   H55       1.0  0.73940  0.99920  0.56310  1.0000 0.1101956938
H   H56       1.0  0.91740  0.88240  0.64240  1.0000 0.1101956938
H   H57       1.0  0.79100  0.24180  0.50590  1.0000 0.130008361
H   H58       1.0  0.08690  0.77950  0.71970  1.0000 0.1101956938
H   H59       1.0  0.27180  0.67260  0.78490  1.0000 0.1206226011
H   H60       1.0  0.30630  0.92050  0.70030  1.0000 0.130008361
H   H61       1.0  0.17710  0.40810  0.27570  1.0000 0.1206226011
H   H62       1.0  0.16830  0.21330  0.47150  1.0000 0.1206226011
H   H63       1.0  0.35470  0.17870  0.49000  1.0000 0.130008361
H   H64       1.0  0.95630  0.39270  0.43570  1.0000 0.130008361
H   H65       1.0  0.72260  0.51720  0.21250  1.0000 0.1206226011
H   H66       1.0  0.86100  0.45820  0.12330  1.0000 0.1206226011
H   H67       1.0  0.04680  0.37120  0.18930  1.0000 0.130008361
H   H68       1.0  0.78560  0.55700  0.48470  1.0000 0.104537824
H   H69       1.0  0.62780  0.46480  0.32680  1.0000 0.1372581216
H   H70       1.0  0.51760  0.55400  0.44460  1.0000 0.1372581216
H   H71       1.0  0.89440  0.27540  0.54230  1.0000 0.2891611623
H   H72       1.0  0.22700  0.05920  0.63070  1.0000 0.2891611623
C   C1        1.0  0.79232  0.36972  0.97304  1.0000 0.5327127444
C   C2        1.0  0.86791  0.25271  0.02606  1.0000 0.0009902881
C   C3        1.0  0.97608  0.21348  0.06760  1.0000 -0.1349207146
C   C4        1.0  0.04609  0.10685  0.11485  1.0000 -0.1547947062
C   C5        1.0  0.01171  0.03371  0.12237  1.0000 -0.0102770681
C   C6        1.0  0.90303  0.07463  0.08036  1.0000 0.044313928
C   C7        1.0  0.83036  0.18356  0.03266  1.0000 -0.226722954
C   C8        1.0  0.08198  0.91956  0.16872  1.0000 -0.0042509213
C   C9        1.0  0.19155  0.86995  0.21504  1.0000 -0.1363585544
C   C10       1.0  0.25587  0.75907  0.25330  1.0000 -0.1136579496
C   C11       1.0  0.21540  0.69146  0.24554  1.0000 0.0136279476
C   C12       1.0  0.10763  0.73763  0.20414  1.0000 -0.2216940505
C   C13       1.0  0.04073  0.85173  0.16775  1.0000 0.0481836106
C   C14       1.0  0.29450  0.56730  0.27952  1.0000 0.5427916962
C   C15       1.0  0.64524  0.80124  0.82650  1.0000 0.0864955484
C   C16       1.0  0.75248  0.80728  0.93420  1.0000 -0.1169265957
C   C17       1.0  0.77056  0.70476  0.94420  1.0000 -0.0501486311
C   C18       1.0  0.62412  0.98212  0.81820  1.0000 0.1717110294
C   C19       1.0  0.59318  0.06298  0.87309  1.0000 -0.2683621776
C   C20       1.0  0.54048  0.17368  0.83210  1.0000 0.1717110294
C   C21       1.0  0.51968  0.20268  0.73900  1.0000 -0.1928319765
C   C22       1.0  0.55390  0.12010  0.68590  1.0000 -0.0501486311
C   C23       1.0  0.60616  0.00896  0.72520  1.0000 -0.2006154043
C   C24       1.0  0.45461  0.26761  0.96030  1.0000 0.0864955484
C   C25       1.0  0.50592  0.35392  0.87250  1.0000 -0.0969763008
C   C26       1.0  0.45666  0.41406  0.93770  1.0000 -0.0102770681
C   C27       1.0  0.36972  0.79232  0.52696  1.0000 0.5327127444
C   C28       1.0  0.25271  0.86791  0.47394  1.0000 0.0009902881
C   C29       1.0  0.21348  0.97608  0.43240  1.0000 -0.1349207146
C   C30       1.0  0.10685  0.04609  0.38515  1.0000 -0.1547947062
C   C31       1.0  0.03371  0.01171  0.37763  1.0000 -0.0102770681
C   C32       1.0  0.07463  0.90303  0.41964  1.0000 0.044313928
C   C33       1.0  0.18356  0.83036  0.46734  1.0000 -0.226722954
C   C34       1.0  0.91956  0.08198  0.33128  1.0000 -0.0102770681
C   C35       1.0  0.86995  0.19155  0.28496  1.0000 -0.1363585544
C   C36       1.0  0.75907  0.25587  0.24670  1.0000 -0.1136579496
C   C37       1.0  0.69146  0.21540  0.25446  1.0000 0.0136279476
C   C38       1.0  0.73763  0.10763  0.29586  1.0000 -0.2216940505
C   C39       1.0  0.85173  0.04073  0.33225  1.0000 0.0481836106
C   C40       1.0  0.56730  0.29450  0.22048  1.0000 0.5427916962
C   C41       1.0  0.80124  0.64524  0.67350  1.0000 0.0864955484
C   C42       1.0  0.80728  0.75248  0.56580  1.0000 -0.1169265957
C   C43       1.0  0.70476  0.77056  0.55580  1.0000 -0.0501486311
C   C44       1.0  0.98212  0.62412  0.68180  1.0000 0.1717110294
C   C45       1.0  0.06298  0.59318  0.62691  1.0000 -0.2683621776
C   C46       1.0  0.17368  0.54048  0.66790  1.0000 0.1717110294
C   C47       1.0  0.20268  0.51968  0.76100  1.0000 -0.1928319765
C   C48       1.0  0.12010  0.55390  0.81410  1.0000 -0.0501486311
C   C49       1.0  0.00896  0.60616  0.77480  1.0000 -0.2006154043
C   C50       1.0  0.26761  0.45461  0.53970  1.0000 0.0864955484
C   C51       1.0  0.35392  0.50592  0.62750  1.0000 -0.0969763008
C   C52       1.0  0.41406  0.45666  0.56230  1.0000 -0.0102770681
C   C53       1.0  0.20768  0.63028  0.02696  1.0000 0.5327127444
C   C54       1.0  0.13209  0.74729  0.97394  1.0000 0.0009902881
C   C55       1.0  0.02392  0.78652  0.93240  1.0000 -0.1363585544
C   C56       1.0  0.95391  0.89315  0.88515  1.0000 -0.1547947062
C   C57       1.0  0.98829  0.96629  0.87763  1.0000 -0.0102770681
C   C58       1.0  0.09697  0.92537  0.91964  1.0000 0.044313928
C   C59       1.0  0.16964  0.81644  0.96734  1.0000 -0.226722954
C   C60       1.0  0.91802  0.08044  0.83128  1.0000 -0.0102770681
C   C61       1.0  0.80845  0.13005  0.78496  1.0000 -0.1363585544
C   C62       1.0  0.74413  0.24093  0.74670  1.0000 -0.1136579496
C   C63       1.0  0.78460  0.30854  0.75446  1.0000 0.0136279476
C   C64       1.0  0.89237  0.26237  0.79586  1.0000 -0.2216940505
C   C65       1.0  0.95927  0.14827  0.83225  1.0000 0.0481836106
C   C66       1.0  0.70550  0.43270  0.72048  1.0000 0.5427916962
C   C67       1.0  0.35476  0.19876  0.17350  1.0000 0.0864955484
C   C68       1.0  0.24752  0.19272  0.06580  1.0000 -0.1169265957
C   C69       1.0  0.22944  0.29524  0.05580  1.0000 -0.0501486311
C   C70       1.0  0.37588  0.01788  0.18180  1.0000 0.1717110294
C   C71       1.0  0.40682  0.93702  0.12691  1.0000 -0.2683621776
C   C72       1.0  0.45952  0.82632  0.16790  1.0000 0.1717110294
C   C73       1.0  0.48032  0.79732  0.26100  1.0000 -0.1928319765
C   C74       1.0  0.44610  0.87990  0.31410  1.0000 -0.0501486311
C   C75       1.0  0.39384  0.99104  0.27480  1.0000 -0.2006154043
C   C76       1.0  0.54539  0.73239  0.03970  1.0000 0.0864955484
C   C77       1.0  0.49408  0.64608  0.12750  1.0000 -0.0969763008
C   C78       1.0  0.54334  0.58594  0.06230  1.0000 -0.0102770681
C   C79       1.0  0.63028  0.20768  0.47304  1.0000 0.5327127444
C   C80       1.0  0.74729  0.13209  0.52606  1.0000 0.0009902881
C   C81       1.0  0.78652  0.02392  0.56760  1.0000 -0.1349207146
C   C82       1.0  0.89315  0.95391  0.61485  1.0000 -0.1547947062
C   C83       1.0  0.96629  0.98829  0.62237  1.0000 -0.0102770681
C   C84       1.0  0.92537  0.09697  0.58036  1.0000 0.044313928
C   C85       1.0  0.81644  0.16964  0.53266  1.0000 -0.226722954
C   C86       1.0  0.08044  0.91802  0.66872  1.0000 -0.0042509213
C   C87       1.0  0.13005  0.80845  0.71504  1.0000 -0.1363585544
C   C88       1.0  0.24093  0.74413  0.75330  1.0000 -0.1136579496
C   C89       1.0  0.30854  0.78460  0.74554  1.0000 0.0136279476
C   C90       1.0  0.26237  0.89237  0.70414  1.0000 -0.2216940505
C   C91       1.0  0.14827  0.95927  0.66775  1.0000 0.0481836106
C   C92       1.0  0.43270  0.70550  0.77952  1.0000 0.5427916962
C   C93       1.0  0.19876  0.35476  0.32650  1.0000 0.0864955484
C   C94       1.0  0.19272  0.24752  0.43420  1.0000 -0.1169265957
C   C95       1.0  0.29524  0.22944  0.44420  1.0000 -0.0501486311
C   C96       1.0  0.01788  0.37588  0.31820  1.0000 0.1717110294
C   C97       1.0  0.93702  0.40682  0.37309  1.0000 -0.2683621776
C   C98       1.0  0.82632  0.45952  0.33210  1.0000 0.1717110294
C   C99       1.0  0.79732  0.48032  0.23900  1.0000 -0.1928319765
C   C100      1.0  0.87990  0.44610  0.18590  1.0000 -0.0501486311
C   C101      1.0  0.99104  0.39384  0.22520  1.0000 -0.2006154043
C   C102      1.0  0.73239  0.54539  0.46030  1.0000 0.0864955484
C   C103      1.0  0.64608  0.49408  0.37250  1.0000 -0.0969763008
C   C104      1.0  0.58594  0.54334  0.43770  1.0000 -0.0102770681
N   N1        1.0  0.42460  0.35960  0.99260  1.0000 -0.2904122603
N   N2        1.0  0.50423  0.25991  0.88715  1.0000 -0.0102770681
N   N3        1.0  0.67332  0.86818  0.85799  1.0000 0.0009902881
N   N4        1.0  0.70310  0.70110  0.87668  1.0000 -0.2904122603
N   N5        1.0  0.93036  0.89724  0.12494  1.0000 0.1206226011
N   N6        1.0  0.86369  0.00491  0.08274  1.0000 0.1101956938
N   N7        1.0  0.35960  0.42460  0.50740  1.0000 -0.2904122603
N   N8        1.0  0.25991  0.50423  0.61285  1.0000 -0.0102770681
N   N9        1.0  0.86818  0.67332  0.64201  1.0000 0.0009902881
N   N10       1.0  0.70110  0.70310  0.62332  1.0000 -0.2904122603
N   N11       1.0  0.89724  0.93036  0.37506  1.0000 0.1206226011
N   N12       1.0  0.00491  0.86369  0.41726  1.0000 0.1101956938
N   N13       1.0  0.57540  0.64040  0.00740  1.0000 -0.2904122603
N   N14       1.0  0.49577  0.74009  0.11285  1.0000 -0.0102770681
N   N15       1.0  0.32668  0.13182  0.14201  1.0000 0.0009902881
N   N16       1.0  0.29690  0.29890  0.12332  1.0000 -0.2904122603
N   N17       1.0  0.06964  0.10276  0.87506  1.0000 0.1206226011
N   N18       1.0  0.13631  0.99509  0.91726  1.0000 0.1101956938
N   N19       1.0  0.64040  0.57540  0.49260  1.0000 -0.2904122603
N   N20       1.0  0.74009  0.49577  0.38715  1.0000 -0.0102770681
N   N21       1.0  0.13182  0.32668  0.35799  1.0000 0.0009902881
N   N22       1.0  0.29890  0.29690  0.37668  1.0000 -0.2904122603
N   N23       1.0  0.10276  0.06964  0.62494  1.0000 0.1101956938
N   N24       1.0  0.99509  0.13631  0.58274  1.0000 0.1101956938
O   O1        1.0  0.69686  0.40138  0.93588  1.0000 -0.513134068
O   O2        1.0  0.82968  0.43032  0.96797  1.0000 -0.5660080147
O   O3        1.0  0.26981  0.50217  0.25190  1.0000 -0.5805445147
O   O4        1.0  0.38144  0.53284  0.33263  1.0000 -0.513134068
O   O5        1.0  0.76764  0.03770  0.04400  1.0000 -0.3061065209
O   O6        1.0  0.88970  0.83996  0.12200  1.0000 -0.262039466
O   O7        1.0  0.40138  0.69686  0.56412  1.0000 -0.513134068
O   O8        1.0  0.43032  0.82968  0.53203  1.0000 -0.5660080147
O   O9        1.0  0.50217  0.26981  0.24810  1.0000 -0.5805445147
O   O10       1.0  0.53284  0.38144  0.16737  1.0000 -0.513134068
O   O11       1.0  0.03770  0.76764  0.45600  1.0000 -0.3061065209
O   O12       1.0  0.83996  0.88970  0.37800  1.0000 -0.262039466
O   O13       1.0  0.30314  0.59862  0.06412  1.0000 -0.513134068
O   O14       1.0  0.17032  0.56968  0.03203  1.0000 -0.5660080147
O   O15       1.0  0.73019  0.49783  0.74810  1.0000 -0.5805445147
O   O16       1.0  0.61856  0.46716  0.66737  1.0000 -0.513134068
O   O17       1.0  0.23236  0.96230  0.95600  1.0000 -0.3061065209
O   O18       1.0  0.11030  0.16004  0.87800  1.0000 -0.262039466
O   O19       1.0  0.59862  0.30314  0.43588  1.0000 -0.513134068
O   O20       1.0  0.56968  0.17032  0.46797  1.0000 -0.5660080147
O   O21       1.0  0.49783  0.73019  0.75190  1.0000 -0.5805445147
O   O22       1.0  0.46716  0.61856  0.83263  1.0000 -0.513134068
O   O23       1.0  0.96230  0.23236  0.54400  1.0000 -0.3025245798
O   O24       1.0  0.16004  0.11030  0.62200  1.0000 -0.262039466
