# DDEC6 charges by PACMAN v1.1 (https://github.com/mtap-research/PACMAN-charge/)
data_2018[Zn][pcu]3[ASR]8
_chemical_formula_sum              "Zn8 H64 C72 S8 N8 O32"
_cell_length_a       17.5448
_cell_length_b       17.5448
_cell_length_c       17.5448
_cell_angle_alpha    107.186
_cell_angle_beta     107.186
_cell_angle_gamma    114.145

_symmetry_space_group_name_H-M    "P 1"
_symmetry_Int_Tables_number       1

loop_
  _symmetry_equiv_pos_as_xyz
  'x, y, z'

loop_
  _atom_site_type_symbol
  _atom_site_label
  _atom_site_symmetry_multiplicity
  _atom_site_fract_x
  _atom_site_fract_y
  _atom_site_fract_z
  _atom_site_occupancy
  _atom_site_charge
Zn  Zn1       1.0  0.94155  0.94155  0.53066  1.0000 0.8285556349
Zn  Zn2       1.0  0.41089  0.41089  0.46934  1.0000 0.8285556349
Zn  Zn3       1.0  0.94155  0.41089  0.00000  1.0000 0.8285556349
Zn  Zn4       1.0  0.41089  0.94155  0.00000  1.0000 0.8285556349
Zn  Zn5       1.0  0.05845  0.58911  0.00000  1.0000 0.8285556349
Zn  Zn6       1.0  0.58911  0.05845  0.00000  1.0000 0.8285556349
Zn  Zn7       1.0  0.05845  0.05845  0.46934  1.0000 0.8285556349
Zn  Zn8       1.0  0.58911  0.58911  0.53066  1.0000 0.8285556349
H   H1        1.0  0.90040  0.76620  0.55220  1.0000 0.1189240989
H   H2        1.0  0.91990  0.83900  0.64450  1.0000 0.1189240989
H   H3        1.0  0.73520  0.78850  0.41010  1.0000 0.1189240989
H   H4        1.0  0.10520  0.33040  0.65920  1.0000 0.1283055271
H   H5        1.0  0.21400  0.34820  0.44780  1.0000 0.1189240989
H   H6        1.0  0.19450  0.27540  0.35550  1.0000 0.1189240989
H   H7        1.0  0.37840  0.32510  0.58990  1.0000 0.1189240989
H   H8        1.0  0.67120  0.44600  0.34080  1.0000 0.1283055271
H   H9        1.0  0.76620  0.21400  0.86580  1.0000 0.1189240989
H   H10       1.0  0.83900  0.19450  0.91910  1.0000 0.1189240989
H   H11       1.0  0.78850  0.37840  0.05330  1.0000 0.1189240989
H   H12       1.0  0.33040  0.67120  0.22520  1.0000 0.1283055271
H   H13       1.0  0.34820  0.90040  0.13420  1.0000 0.1189240989
H   H14       1.0  0.27540  0.91990  0.08090  1.0000 0.1189240989
H   H15       1.0  0.32510  0.73520  0.94670  1.0000 0.1189240989
H   H16       1.0  0.44600  0.10520  0.77480  1.0000 0.1283055271
H   H17       1.0  0.09960  0.65180  0.86580  1.0000 0.1189240989
H   H18       1.0  0.08010  0.72460  0.91910  1.0000 0.1189240989
H   H19       1.0  0.26480  0.67490  0.05330  1.0000 0.1189240989
H   H20       1.0  0.89480  0.55400  0.22520  1.0000 0.1283055271
H   H21       1.0  0.78600  0.23380  0.13420  1.0000 0.1189240989
H   H22       1.0  0.80550  0.16100  0.08090  1.0000 0.1189240989
H   H23       1.0  0.62160  0.21150  0.94670  1.0000 0.1189240989
H   H24       1.0  0.32880  0.66960  0.77480  1.0000 0.1283055271
H   H25       1.0  0.23380  0.09960  0.44780  1.0000 0.1189240989
H   H26       1.0  0.16100  0.08010  0.35550  1.0000 0.1189240989
H   H27       1.0  0.21150  0.26480  0.58990  1.0000 0.1189240989
H   H28       1.0  0.66960  0.89480  0.34080  1.0000 0.1283055271
H   H29       1.0  0.65180  0.78600  0.55220  1.0000 0.1189240989
H   H30       1.0  0.72460  0.80550  0.64450  1.0000 0.1189240989
H   H31       1.0  0.67490  0.62160  0.41010  1.0000 0.1189240989
H   H32       1.0  0.55400  0.32880  0.65920  1.0000 0.1283055271
H   H33       1.0  0.09960  0.23380  0.44780  1.0000 0.1189240989
H   H34       1.0  0.08010  0.16100  0.35550  1.0000 0.1189240989
H   H35       1.0  0.26480  0.21150  0.58990  1.0000 0.1189240989
H   H36       1.0  0.89480  0.66960  0.34080  1.0000 0.1283055271
H   H37       1.0  0.78600  0.65180  0.55220  1.0000 0.1189240989
H   H38       1.0  0.80550  0.72460  0.64450  1.0000 0.1189240989
H   H39       1.0  0.62160  0.67490  0.41010  1.0000 0.1189240989
H   H40       1.0  0.32880  0.55400  0.65920  1.0000 0.1283055271
H   H41       1.0  0.23380  0.78600  0.13420  1.0000 0.1189240989
H   H42       1.0  0.16100  0.80550  0.08090  1.0000 0.1189240989
H   H43       1.0  0.21150  0.62160  0.94670  1.0000 0.1189240989
H   H44       1.0  0.66960  0.32880  0.77480  1.0000 0.1283055271
H   H45       1.0  0.65180  0.09960  0.86580  1.0000 0.1189240989
H   H46       1.0  0.72460  0.08010  0.91910  1.0000 0.1189240989
H   H47       1.0  0.67490  0.26480  0.05330  1.0000 0.1189240989
H   H48       1.0  0.55400  0.89480  0.22520  1.0000 0.1283055271
H   H49       1.0  0.90040  0.34820  0.13420  1.0000 0.1189240989
H   H50       1.0  0.91990  0.27540  0.08090  1.0000 0.1189240989
H   H51       1.0  0.73520  0.32510  0.94670  1.0000 0.1189240989
H   H52       1.0  0.10520  0.44600  0.77480  1.0000 0.1283055271
H   H53       1.0  0.21400  0.76620  0.86580  1.0000 0.1189240989
H   H54       1.0  0.19450  0.83900  0.91910  1.0000 0.1189240989
H   H55       1.0  0.37840  0.78850  0.05330  1.0000 0.1189240989
H   H56       1.0  0.67120  0.33040  0.22520  1.0000 0.1283055271
H   H57       1.0  0.76620  0.90040  0.55220  1.0000 0.1189240989
H   H58       1.0  0.83900  0.91990  0.64450  1.0000 0.1189240989
H   H59       1.0  0.78850  0.73520  0.41010  1.0000 0.1189240989
H   H60       1.0  0.33040  0.10520  0.65920  1.0000 0.1283055271
H   H61       1.0  0.34820  0.21400  0.44780  1.0000 0.1189240989
H   H62       1.0  0.27540  0.19450  0.35550  1.0000 0.1189240989
H   H63       1.0  0.32510  0.37840  0.58990  1.0000 0.1189240989
H   H64       1.0  0.44600  0.67120  0.34080  1.0000 0.1283055271
C   C1        1.0  0.01450  0.13904  0.61914  1.0000 0.5904018196
C   C2        1.0  0.87140  0.79160  0.58240  1.0000 -0.1174848441
C   C3        1.0  0.02960  0.22734  0.68414  1.0000 -0.1174848441
C   C4        1.0  0.07610  0.31570  0.69380  1.0000 -0.1276979142
C   C5        1.0  0.51990  0.39536  0.38086  1.0000 0.5904018196
C   C6        1.0  0.20920  0.28900  0.41760  1.0000 -0.1174848441
C   C7        1.0  0.54320  0.34546  0.31586  1.0000 -0.1174848441
C   C8        1.0  0.62190  0.38230  0.30620  1.0000 -0.1276979142
C   C9        1.0  0.13904  0.51990  0.12454  1.0000 0.5904018196
C   C10       1.0  0.79160  0.20920  0.92020  1.0000 -0.1174848441
C   C11       1.0  0.22734  0.54320  0.19774  1.0000 -0.1174848441
C   C12       1.0  0.31570  0.62190  0.23960  1.0000 -0.1276979142
C   C13       1.0  0.39536  0.01450  0.87546  1.0000 0.5904018196
C   C14       1.0  0.28900  0.87140  0.07980  1.0000 -0.1174848441
C   C15       1.0  0.34546  0.02960  0.80226  1.0000 -0.1174848441
C   C16       1.0  0.38230  0.07610  0.76040  1.0000 -0.1276979142
C   C17       1.0  0.98550  0.60464  0.12454  1.0000 0.5904018196
C   C18       1.0  0.12860  0.71100  0.92020  1.0000 -0.1174848441
C   C19       1.0  0.97040  0.65454  0.19774  1.0000 -0.1174848441
C   C20       1.0  0.92390  0.61770  0.23960  1.0000 -0.1276979142
C   C21       1.0  0.48010  0.86096  0.87546  1.0000 0.5904018196
C   C22       1.0  0.79080  0.20840  0.07980  1.0000 -0.1174848441
C   C23       1.0  0.45680  0.77266  0.80226  1.0000 -0.1174848441
C   C24       1.0  0.37810  0.68430  0.76040  1.0000 -0.1276979142
C   C25       1.0  0.86096  0.98550  0.38086  1.0000 0.5904018196
C   C26       1.0  0.20840  0.12860  0.41760  1.0000 -0.1174848441
C   C27       1.0  0.77266  0.97040  0.31586  1.0000 -0.1174848441
C   C28       1.0  0.68430  0.92390  0.30620  1.0000 -0.1276979142
C   C29       1.0  0.60464  0.48010  0.61914  1.0000 0.5904018196
C   C30       1.0  0.71100  0.79080  0.58240  1.0000 -0.1174848441
C   C31       1.0  0.65454  0.45680  0.68414  1.0000 -0.1174848441
C   C32       1.0  0.61770  0.37810  0.69380  1.0000 -0.1276979142
C   C33       1.0  0.98550  0.86096  0.38086  1.0000 0.5904018196
C   C34       1.0  0.12860  0.20840  0.41760  1.0000 -0.1174848441
C   C35       1.0  0.97040  0.77266  0.31586  1.0000 -0.1174848441
C   C36       1.0  0.92390  0.68430  0.30620  1.0000 -0.1276979142
C   C37       1.0  0.48010  0.60464  0.61914  1.0000 0.5904018196
C   C38       1.0  0.79080  0.71100  0.58240  1.0000 -0.1174848441
C   C39       1.0  0.45680  0.65454  0.68414  1.0000 -0.1174848441
C   C40       1.0  0.37810  0.61770  0.69380  1.0000 -0.1276979142
C   C41       1.0  0.86096  0.48010  0.87546  1.0000 0.5904018196
C   C42       1.0  0.20840  0.79080  0.07980  1.0000 -0.1174848441
C   C43       1.0  0.77266  0.45680  0.80226  1.0000 -0.1174848441
C   C44       1.0  0.68430  0.37810  0.76040  1.0000 -0.1276979142
C   C45       1.0  0.60464  0.98550  0.12454  1.0000 0.5904018196
C   C46       1.0  0.71100  0.12860  0.92020  1.0000 -0.1174848441
C   C47       1.0  0.65454  0.97040  0.19774  1.0000 -0.1174848441
C   C48       1.0  0.61770  0.92390  0.23960  1.0000 -0.1276979142
C   C49       1.0  0.01450  0.39536  0.87546  1.0000 0.5904018196
C   C50       1.0  0.87140  0.28900  0.07980  1.0000 -0.1174848441
C   C51       1.0  0.02960  0.34546  0.80226  1.0000 -0.1174848441
C   C52       1.0  0.07610  0.38230  0.76040  1.0000 -0.1276979142
C   C53       1.0  0.51990  0.13904  0.12454  1.0000 0.5904018196
C   C54       1.0  0.20920  0.79160  0.92020  1.0000 -0.1174848441
C   C55       1.0  0.54320  0.22734  0.19774  1.0000 -0.1174848441
C   C56       1.0  0.62190  0.31570  0.23960  1.0000 -0.1276979142
C   C57       1.0  0.13904  0.01450  0.61914  1.0000 0.5904018196
C   C58       1.0  0.79160  0.87140  0.58240  1.0000 -0.1174848441
C   C59       1.0  0.22734  0.02960  0.68414  1.0000 -0.1174848441
C   C60       1.0  0.31570  0.07610  0.69380  1.0000 -0.1276979142
C   C61       1.0  0.39536  0.51990  0.38086  1.0000 0.5904018196
C   C62       1.0  0.28900  0.20920  0.41760  1.0000 -0.1174848441
C   C63       1.0  0.34546  0.54320  0.31586  1.0000 -0.1174848441
C   C64       1.0  0.38230  0.62190  0.30620  1.0000 -0.1276979142
C   C65       1.0  0.76090  0.76090  0.44200  1.0000 -0.1174848441
C   C66       1.0  0.31890  0.31890  0.55800  1.0000 -0.1174848441
C   C67       1.0  0.76090  0.31890  0.00000  1.0000 -0.1174848441
C   C68       1.0  0.31890  0.76090  0.00000  1.0000 -0.1174848441
C   C69       1.0  0.23910  0.68110  0.00000  1.0000 -0.1174848441
C   C70       1.0  0.68110  0.23910  0.00000  1.0000 -0.1174848441
C   C71       1.0  0.23910  0.23910  0.55800  1.0000 -0.1174848441
C   C72       1.0  0.68110  0.68110  0.44200  1.0000 -0.1174848441
S   S1        1.0  0.98273  0.22566  0.75707  1.0000 0.1394824522
S   S2        1.0  0.46859  0.22566  0.24293  1.0000 0.1394824522
S   S3        1.0  0.22566  0.46859  0.24293  1.0000 0.1394824522
S   S4        1.0  0.22566  0.98273  0.75707  1.0000 0.1394824522
S   S5        1.0  0.01727  0.77434  0.24293  1.0000 0.1394824522
S   S6        1.0  0.53141  0.77434  0.75707  1.0000 0.1394824522
S   S7        1.0  0.77434  0.01727  0.24293  1.0000 0.1394824522
S   S8        1.0  0.77434  0.53141  0.75707  1.0000 0.1394824522
N   N1        1.0  0.83581  0.83581  0.53622  1.0000 -0.0954857723
N   N2        1.0  0.29959  0.29959  0.46378  1.0000 -0.0954857723
N   N3        1.0  0.83581  0.29959  0.00000  1.0000 -0.0954857723
N   N4        1.0  0.29959  0.83581  0.00000  1.0000 -0.0954857723
N   N5        1.0  0.16419  0.70041  0.00000  1.0000 -0.0954857723
N   N6        1.0  0.70041  0.16419  0.00000  1.0000 -0.0954857723
N   N7        1.0  0.16419  0.16419  0.46378  1.0000 -0.0954857723
N   N8        1.0  0.70041  0.70041  0.53622  1.0000 -0.0954857723
O   O1        1.0  0.96678  0.06381  0.62077  1.0000 -0.5413397712
O   O2        1.0  0.85159  0.94879  0.43076  1.0000 -0.5490060051
O   O3        1.0  0.44304  0.34601  0.37923  1.0000 -0.5413397712
O   O4        1.0  0.51803  0.42083  0.56924  1.0000 -0.5490060051
O   O5        1.0  0.06381  0.44304  0.09703  1.0000 -0.5413397712
O   O6        1.0  0.94879  0.51803  0.09720  1.0000 -0.5490060051
O   O7        1.0  0.34601  0.96678  0.90297  1.0000 -0.5413397712
O   O8        1.0  0.42083  0.85159  0.90280  1.0000 -0.5490060051
O   O9        1.0  0.03322  0.65399  0.09703  1.0000 -0.5413397712
O   O10       1.0  0.14841  0.57917  0.09720  1.0000 -0.5490060051
O   O11       1.0  0.55696  0.93619  0.90297  1.0000 -0.5413397712
O   O12       1.0  0.48197  0.05121  0.90280  1.0000 -0.5490060051
O   O13       1.0  0.93619  0.03322  0.37923  1.0000 -0.5413397712
O   O14       1.0  0.05121  0.14841  0.56924  1.0000 -0.5490060051
O   O15       1.0  0.65399  0.55696  0.62077  1.0000 -0.5413397712
O   O16       1.0  0.57917  0.48197  0.43076  1.0000 -0.5490060051
O   O17       1.0  0.03322  0.93619  0.37923  1.0000 -0.5413397712
O   O18       1.0  0.14841  0.05121  0.56924  1.0000 -0.5490060051
O   O19       1.0  0.55696  0.65399  0.62077  1.0000 -0.5413397712
O   O20       1.0  0.48197  0.57917  0.43076  1.0000 -0.5490060051
O   O21       1.0  0.93619  0.55696  0.90297  1.0000 -0.5413397712
O   O22       1.0  0.05121  0.48197  0.90280  1.0000 -0.5490060051
O   O23       1.0  0.65399  0.03322  0.09703  1.0000 -0.5413397712
O   O24       1.0  0.57917  0.14841  0.09720  1.0000 -0.5490060051
O   O25       1.0  0.96678  0.34601  0.90297  1.0000 -0.5413397712
O   O26       1.0  0.85159  0.42083  0.90280  1.0000 -0.5490060051
O   O27       1.0  0.44304  0.06381  0.09703  1.0000 -0.5413397712
O   O28       1.0  0.51803  0.94879  0.09720  1.0000 -0.5490060051
O   O29       1.0  0.06381  0.96678  0.62077  1.0000 -0.5413397712
O   O30       1.0  0.94879  0.85159  0.43076  1.0000 -0.5490060051
O   O31       1.0  0.34601  0.44304  0.37923  1.0000 -0.5413397712
O   O32       1.0  0.42083  0.51803  0.56924  1.0000 -0.5490060051
