# DDEC6 charges by PACMAN v1.1 (https://github.com/mtap-research/PACMAN-charge/)
data_2018[Zn][pcu]3[ASR]16
_chemical_formula_sum              "Zn16 H128 C144 S16 N16 O64"
_cell_length_a       20.4164
_cell_length_b       20.4164
_cell_length_c       19.1259
_cell_angle_alpha    90
_cell_angle_beta     90
_cell_angle_gamma    90

_symmetry_space_group_name_H-M    "P 1"
_symmetry_Int_Tables_number       1

loop_
  _symmetry_equiv_pos_as_xyz
  'x, y, z'

loop_
  _atom_site_type_symbol
  _atom_site_label
  _atom_site_symmetry_multiplicity
  _atom_site_fract_x
  _atom_site_fract_y
  _atom_site_fract_z
  _atom_site_occupancy
  _atom_site_charge
Zn  Zn1       1.0  0.26310  0.72380  0.31994  1.0000 0.8398577243
Zn  Zn2       1.0  0.23316  0.75068  0.16826  1.0000 0.8398577243
Zn  Zn3       1.0  0.73690  0.27620  0.31994  1.0000 0.8398577243
Zn  Zn4       1.0  0.76684  0.24932  0.16826  1.0000 0.8398577243
Zn  Zn5       1.0  0.27620  0.26310  0.68006  1.0000 0.8398577243
Zn  Zn6       1.0  0.24932  0.23316  0.83174  1.0000 0.8398577243
Zn  Zn7       1.0  0.72380  0.73690  0.68006  1.0000 0.8398577243
Zn  Zn8       1.0  0.75068  0.76684  0.83174  1.0000 0.8398577243
Zn  Zn9       1.0  0.23690  0.22380  0.18006  1.0000 0.8398577243
Zn  Zn10      1.0  0.26684  0.25068  0.33174  1.0000 0.8398577243
Zn  Zn11      1.0  0.76310  0.77620  0.18006  1.0000 0.8398577243
Zn  Zn12      1.0  0.73316  0.74932  0.33174  1.0000 0.8398577243
Zn  Zn13      1.0  0.22380  0.76310  0.81994  1.0000 0.8398577243
Zn  Zn14      1.0  0.25068  0.73316  0.66826  1.0000 0.8398577243
Zn  Zn15      1.0  0.77620  0.23690  0.81994  1.0000 0.8398577243
Zn  Zn16      1.0  0.74932  0.26684  0.66826  1.0000 0.8398577243
H   H1        1.0  0.44020  0.80510  0.11070  1.0000 0.1269577302
H   H2        1.0  0.56050  0.81750  0.11620  1.0000 0.1201426479
H   H3        1.0  0.28130  0.54210  0.10420  1.0000 0.1201426479
H   H4        1.0  0.28400  0.42120  0.11100  1.0000 0.1201426479
H   H5        1.0  0.35860  0.74830  0.43670  1.0000 0.1201426479
H   H6        1.0  0.31060  0.81030  0.44190  1.0000 0.1201426479
H   H7        1.0  0.32170  0.80290  0.55650  1.0000 0.1201426479
H   H8        1.0  0.35520  0.73210  0.55080  1.0000 0.1201426479
H   H9        1.0  0.19140  0.79520  0.42660  1.0000 0.1201426479
H   H10       1.0  0.16230  0.72300  0.43780  1.0000 0.1121981002
H   H11       1.0  0.15810  0.74680  0.55000  1.0000 0.1201426479
H   H12       1.0  0.20310  0.81050  0.54000  1.0000 0.1201426479
H   H13       1.0  0.23520  0.62780  0.43380  1.0000 0.1201426479
H   H14       1.0  0.31170  0.63940  0.44780  1.0000 0.1121981002
H   H15       1.0  0.28810  0.63330  0.56080  1.0000 0.1201426479
H   H16       1.0  0.21100  0.63980  0.54620  1.0000 0.1201426479
H   H17       1.0  0.55980  0.19490  0.11070  1.0000 0.1269577302
H   H18       1.0  0.43950  0.18250  0.11620  1.0000 0.1201426479
H   H19       1.0  0.71870  0.45790  0.10420  1.0000 0.1201426479
H   H20       1.0  0.71600  0.57880  0.11100  1.0000 0.1201426479
H   H21       1.0  0.64140  0.25170  0.43670  1.0000 0.1201426479
H   H22       1.0  0.68940  0.18970  0.44190  1.0000 0.1201426479
H   H23       1.0  0.67830  0.19710  0.55650  1.0000 0.1201426479
H   H24       1.0  0.64480  0.26790  0.55080  1.0000 0.1201426479
H   H25       1.0  0.80860  0.20480  0.42660  1.0000 0.1201426479
H   H26       1.0  0.83770  0.27700  0.43780  1.0000 0.1121981002
H   H27       1.0  0.84190  0.25320  0.55000  1.0000 0.1201426479
H   H28       1.0  0.79690  0.18950  0.54000  1.0000 0.1201426479
H   H29       1.0  0.76480  0.37220  0.43380  1.0000 0.1201426479
H   H30       1.0  0.68830  0.36060  0.44780  1.0000 0.1121981002
H   H31       1.0  0.71190  0.36670  0.56080  1.0000 0.1201426479
H   H32       1.0  0.78900  0.36020  0.54620  1.0000 0.1201426479
H   H33       1.0  0.19490  0.44020  0.88930  1.0000 0.1269577302
H   H34       1.0  0.18250  0.56050  0.88380  1.0000 0.1201426479
H   H35       1.0  0.45790  0.28130  0.89580  1.0000 0.1201426479
H   H36       1.0  0.57880  0.28400  0.88900  1.0000 0.1201426479
H   H37       1.0  0.25170  0.35860  0.56330  1.0000 0.1201426479
H   H38       1.0  0.18970  0.31060  0.55810  1.0000 0.1201426479
H   H39       1.0  0.19710  0.32170  0.44350  1.0000 0.1201426479
H   H40       1.0  0.26790  0.35520  0.44920  1.0000 0.1201426479
H   H41       1.0  0.20480  0.19140  0.57340  1.0000 0.1201426479
H   H42       1.0  0.27700  0.16230  0.56220  1.0000 0.1121981002
H   H43       1.0  0.25320  0.15810  0.45000  1.0000 0.1201426479
H   H44       1.0  0.18950  0.20310  0.46000  1.0000 0.1201426479
H   H45       1.0  0.37220  0.23520  0.56620  1.0000 0.1201426479
H   H46       1.0  0.36060  0.31170  0.55220  1.0000 0.1121981002
H   H47       1.0  0.36670  0.28810  0.43920  1.0000 0.1201426479
H   H48       1.0  0.36020  0.21100  0.45380  1.0000 0.1201426479
H   H49       1.0  0.80510  0.55980  0.88930  1.0000 0.1269577302
H   H50       1.0  0.81750  0.43950  0.88380  1.0000 0.1201426479
H   H51       1.0  0.54210  0.71870  0.89580  1.0000 0.1201426479
H   H52       1.0  0.42120  0.71600  0.88900  1.0000 0.1201426479
H   H53       1.0  0.74830  0.64140  0.56330  1.0000 0.1201426479
H   H54       1.0  0.81030  0.68940  0.55810  1.0000 0.1201426479
H   H55       1.0  0.80290  0.67830  0.44350  1.0000 0.1201426479
H   H56       1.0  0.73210  0.64480  0.44920  1.0000 0.1201426479
H   H57       1.0  0.79520  0.80860  0.57340  1.0000 0.1201426479
H   H58       1.0  0.72300  0.83770  0.56220  1.0000 0.1121981002
H   H59       1.0  0.74680  0.84190  0.45000  1.0000 0.1201426479
H   H60       1.0  0.81050  0.79690  0.46000  1.0000 0.1201426479
H   H61       1.0  0.62780  0.76480  0.56620  1.0000 0.1201426479
H   H62       1.0  0.63940  0.68830  0.55220  1.0000 0.1121981002
H   H63       1.0  0.63330  0.71190  0.43920  1.0000 0.1201426479
H   H64       1.0  0.63980  0.78900  0.45380  1.0000 0.1201426479
H   H65       1.0  0.05980  0.30510  0.38930  1.0000 0.1269577302
H   H66       1.0  0.93950  0.31750  0.38380  1.0000 0.1201426479
H   H67       1.0  0.21870  0.04210  0.39580  1.0000 0.1201426479
H   H68       1.0  0.21600  0.92120  0.38900  1.0000 0.1201426479
H   H69       1.0  0.14140  0.24830  0.06330  1.0000 0.1201426479
H   H70       1.0  0.18940  0.31030  0.05810  1.0000 0.1201426479
H   H71       1.0  0.17830  0.30290  0.94350  1.0000 0.1201426479
H   H72       1.0  0.14480  0.23210  0.94920  1.0000 0.1201426479
H   H73       1.0  0.30860  0.29520  0.07340  1.0000 0.1201426479
H   H74       1.0  0.33770  0.22300  0.06220  1.0000 0.1121981002
H   H75       1.0  0.34190  0.24680  0.95000  1.0000 0.1201426479
H   H76       1.0  0.29690  0.31050  0.96000  1.0000 0.1201426479
H   H77       1.0  0.26480  0.12780  0.06620  1.0000 0.1201426479
H   H78       1.0  0.18830  0.13940  0.05220  1.0000 0.1121981002
H   H79       1.0  0.21190  0.13330  0.93920  1.0000 0.1201426479
H   H80       1.0  0.28900  0.13980  0.95380  1.0000 0.1201426479
H   H81       1.0  0.94020  0.69490  0.38930  1.0000 0.1269577302
H   H82       1.0  0.06050  0.68250  0.38380  1.0000 0.1201426479
H   H83       1.0  0.78130  0.95790  0.39580  1.0000 0.1201426479
H   H84       1.0  0.78400  0.07880  0.38900  1.0000 0.1201426479
H   H85       1.0  0.85860  0.75170  0.06330  1.0000 0.1201426479
H   H86       1.0  0.81060  0.68970  0.05810  1.0000 0.1201426479
H   H87       1.0  0.82170  0.69710  0.94350  1.0000 0.1201426479
H   H88       1.0  0.85520  0.76790  0.94920  1.0000 0.1201426479
H   H89       1.0  0.69140  0.70480  0.07340  1.0000 0.1201426479
H   H90       1.0  0.66230  0.77700  0.06220  1.0000 0.1121981002
H   H91       1.0  0.65810  0.75320  0.95000  1.0000 0.1201426479
H   H92       1.0  0.70310  0.68950  0.96000  1.0000 0.1201426479
H   H93       1.0  0.73520  0.87220  0.06620  1.0000 0.1201426479
H   H94       1.0  0.81170  0.86060  0.05220  1.0000 0.1121981002
H   H95       1.0  0.78810  0.86670  0.93920  1.0000 0.1201426479
H   H96       1.0  0.71100  0.86020  0.95380  1.0000 0.1201426479
H   H97       1.0  0.30510  0.94020  0.61070  1.0000 0.1269577302
H   H98       1.0  0.31750  0.06050  0.61620  1.0000 0.1201426479
H   H99       1.0  0.04210  0.78130  0.60420  1.0000 0.1201426479
H   H100      1.0  0.92120  0.78400  0.61100  1.0000 0.1201426479
H   H101      1.0  0.24830  0.85860  0.93670  1.0000 0.1201426479
H   H102      1.0  0.31030  0.81060  0.94190  1.0000 0.1201426479
H   H103      1.0  0.30290  0.82170  0.05650  1.0000 0.1201426479
H   H104      1.0  0.23210  0.85520  0.05080  1.0000 0.1201426479
H   H105      1.0  0.29520  0.69140  0.92660  1.0000 0.1201426479
H   H106      1.0  0.22300  0.66230  0.93780  1.0000 0.1121981002
H   H107      1.0  0.24680  0.65810  0.05000  1.0000 0.1201426479
H   H108      1.0  0.31050  0.70310  0.04000  1.0000 0.1201426479
H   H109      1.0  0.12780  0.73520  0.93380  1.0000 0.1201426479
H   H110      1.0  0.13940  0.81170  0.94780  1.0000 0.1121981002
H   H111      1.0  0.13330  0.78810  0.06080  1.0000 0.1201426479
H   H112      1.0  0.13980  0.71100  0.04620  1.0000 0.1201426479
H   H113      1.0  0.69490  0.05980  0.61070  1.0000 0.1269577302
H   H114      1.0  0.68250  0.93950  0.61620  1.0000 0.1201426479
H   H115      1.0  0.95790  0.21870  0.60420  1.0000 0.1201426479
H   H116      1.0  0.07880  0.21600  0.61100  1.0000 0.1201426479
H   H117      1.0  0.75170  0.14140  0.93670  1.0000 0.1201426479
H   H118      1.0  0.68970  0.18940  0.94190  1.0000 0.1201426479
H   H119      1.0  0.69710  0.17830  0.05650  1.0000 0.1201426479
H   H120      1.0  0.76790  0.14480  0.05080  1.0000 0.1201426479
H   H121      1.0  0.70480  0.30860  0.92660  1.0000 0.1201426479
H   H122      1.0  0.77700  0.33770  0.93780  1.0000 0.1121981002
H   H123      1.0  0.75320  0.34190  0.05000  1.0000 0.1201426479
H   H124      1.0  0.68950  0.29690  0.04000  1.0000 0.1201426479
H   H125      1.0  0.87220  0.26480  0.93380  1.0000 0.1201426479
H   H126      1.0  0.86060  0.18830  0.94780  1.0000 0.1121981002
H   H127      1.0  0.86670  0.21190  0.06080  1.0000 0.1201426479
H   H128      1.0  0.86020  0.28900  0.04620  1.0000 0.1201426479
C   C1        1.0  0.36809  0.77240  0.23138  1.0000 0.5976345398
C   C2        1.0  0.43825  0.78568  0.21613  1.0000 -0.1126437758
C   C3        1.0  0.46507  0.80023  0.15236  1.0000 -0.1292886028
C   C4        1.0  0.53390  0.80717  0.15548  1.0000 -0.1292886028
C   C5        1.0  0.55797  0.79730  0.22152  1.0000 -0.1126437758
C   C6        1.0  0.62836  0.79372  0.24144  1.0000 0.5976345398
C   C7        1.0  0.28013  0.61715  0.22868  1.0000 0.5976345398
C   C8        1.0  0.28632  0.54678  0.21155  1.0000 -0.1172511886
C   C9        1.0  0.28375  0.51822  0.14680  1.0000 -0.1292886028
C   C10       1.0  0.28512  0.44910  0.15076  1.0000 -0.1292886028
C   C11       1.0  0.28825  0.42679  0.21780  1.0000 -0.1126437758
C   C12       1.0  0.28339  0.35763  0.24138  1.0000 0.594817669
C   C13       1.0  0.31632  0.76392  0.45578  1.0000 -0.1172511886
C   C14       1.0  0.31715  0.75863  0.53588  1.0000 -0.1172511886
C   C15       1.0  0.19868  0.75279  0.45043  1.0000 -0.1172511886
C   C16       1.0  0.19957  0.76315  0.52953  1.0000 -0.1172511886
C   C17       1.0  0.26739  0.65709  0.45665  1.0000 -0.1172511886
C   C18       1.0  0.25437  0.65929  0.53605  1.0000 -0.1126437758
C   C19       1.0  0.63191  0.22760  0.23138  1.0000 0.5976345398
C   C20       1.0  0.56175  0.21432  0.21613  1.0000 -0.1126437758
C   C21       1.0  0.53493  0.19977  0.15236  1.0000 -0.1292886028
C   C22       1.0  0.46610  0.19283  0.15548  1.0000 -0.1292886028
C   C23       1.0  0.44203  0.20270  0.22152  1.0000 -0.1126437758
C   C24       1.0  0.37164  0.20628  0.24144  1.0000 0.5976345398
C   C25       1.0  0.71987  0.38285  0.22868  1.0000 0.5976345398
C   C26       1.0  0.71368  0.45322  0.21155  1.0000 -0.1172511886
C   C27       1.0  0.71625  0.48178  0.14680  1.0000 -0.1292886028
C   C28       1.0  0.71488  0.55090  0.15076  1.0000 -0.1292886028
C   C29       1.0  0.71175  0.57321  0.21780  1.0000 -0.1126437758
C   C30       1.0  0.71661  0.64237  0.24138  1.0000 0.594817669
C   C31       1.0  0.68368  0.23608  0.45578  1.0000 -0.1172511886
C   C32       1.0  0.68285  0.24137  0.53588  1.0000 -0.1172511886
C   C33       1.0  0.80132  0.24721  0.45043  1.0000 -0.1172511886
C   C34       1.0  0.80043  0.23685  0.52953  1.0000 -0.1172511886
C   C35       1.0  0.73261  0.34291  0.45665  1.0000 -0.1126437758
C   C36       1.0  0.74563  0.34071  0.53605  1.0000 -0.1126437758
C   C37       1.0  0.22760  0.36809  0.76862  1.0000 0.5976345398
C   C38       1.0  0.21432  0.43825  0.78387  1.0000 -0.1126437758
C   C39       1.0  0.19977  0.46507  0.84764  1.0000 -0.1292886028
C   C40       1.0  0.19283  0.53390  0.84452  1.0000 -0.1292886028
C   C41       1.0  0.20270  0.55797  0.77848  1.0000 -0.1126437758
C   C42       1.0  0.20628  0.62836  0.75856  1.0000 0.5976345398
C   C43       1.0  0.38285  0.28013  0.77132  1.0000 0.5976345398
C   C44       1.0  0.45322  0.28632  0.78845  1.0000 -0.1172511886
C   C45       1.0  0.48178  0.28375  0.85320  1.0000 -0.1292886028
C   C46       1.0  0.55090  0.28512  0.84924  1.0000 -0.1292886028
C   C47       1.0  0.57321  0.28825  0.78220  1.0000 -0.1126437758
C   C48       1.0  0.64237  0.28339  0.75862  1.0000 0.594817669
C   C49       1.0  0.23608  0.31632  0.54422  1.0000 -0.1172511886
C   C50       1.0  0.24137  0.31715  0.46412  1.0000 -0.1172511886
C   C51       1.0  0.24721  0.19868  0.54957  1.0000 -0.1172511886
C   C52       1.0  0.23685  0.19957  0.47047  1.0000 -0.1172511886
C   C53       1.0  0.34291  0.26739  0.54335  1.0000 -0.1126437758
C   C54       1.0  0.34071  0.25437  0.46395  1.0000 -0.1126437758
C   C55       1.0  0.77240  0.63191  0.76862  1.0000 0.5976345398
C   C56       1.0  0.78568  0.56175  0.78387  1.0000 -0.1126437758
C   C57       1.0  0.80023  0.53493  0.84764  1.0000 -0.1292886028
C   C58       1.0  0.80717  0.46610  0.84452  1.0000 -0.1292886028
C   C59       1.0  0.79730  0.44203  0.77848  1.0000 -0.1126437758
C   C60       1.0  0.79372  0.37164  0.75856  1.0000 0.5976345398
C   C61       1.0  0.61715  0.71987  0.77132  1.0000 0.5976345398
C   C62       1.0  0.54678  0.71368  0.78845  1.0000 -0.1172511886
C   C63       1.0  0.51822  0.71625  0.85320  1.0000 -0.1292886028
C   C64       1.0  0.44910  0.71488  0.84924  1.0000 -0.1292886028
C   C65       1.0  0.42679  0.71175  0.78220  1.0000 -0.1126437758
C   C66       1.0  0.35763  0.71661  0.75862  1.0000 0.594817669
C   C67       1.0  0.76392  0.68368  0.54422  1.0000 -0.1172511886
C   C68       1.0  0.75863  0.68285  0.46412  1.0000 -0.1172511886
C   C69       1.0  0.75279  0.80132  0.54957  1.0000 -0.1172511886
C   C70       1.0  0.76315  0.80043  0.47047  1.0000 -0.1172511886
C   C71       1.0  0.65709  0.73261  0.54335  1.0000 -0.1126437758
C   C72       1.0  0.65929  0.74563  0.46395  1.0000 -0.1126437758
C   C73       1.0  0.13191  0.27240  0.26862  1.0000 0.5976345398
C   C74       1.0  0.06175  0.28568  0.28387  1.0000 -0.1126437758
C   C75       1.0  0.03493  0.30023  0.34764  1.0000 -0.1292886028
C   C76       1.0  0.96610  0.30717  0.34452  1.0000 -0.1292886028
C   C77       1.0  0.94203  0.29730  0.27848  1.0000 -0.1126437758
C   C78       1.0  0.87164  0.29372  0.25856  1.0000 0.5976345398
C   C79       1.0  0.21987  0.11715  0.27132  1.0000 0.5976345398
C   C80       1.0  0.21368  0.04678  0.28845  1.0000 -0.1172511886
C   C81       1.0  0.21625  0.01822  0.35320  1.0000 -0.1292886028
C   C82       1.0  0.21488  0.94910  0.34924  1.0000 -0.1292886028
C   C83       1.0  0.21175  0.92679  0.28220  1.0000 -0.1126437758
C   C84       1.0  0.21661  0.85763  0.25862  1.0000 0.594817669
C   C85       1.0  0.18368  0.26392  0.04422  1.0000 -0.1172511886
C   C86       1.0  0.18285  0.25863  0.96412  1.0000 -0.1172511886
C   C87       1.0  0.30132  0.25279  0.04957  1.0000 -0.1172511886
C   C88       1.0  0.30043  0.26315  0.97047  1.0000 -0.1172511886
C   C89       1.0  0.23261  0.15709  0.04335  1.0000 -0.1126437758
C   C90       1.0  0.24563  0.15929  0.96395  1.0000 -0.1126437758
C   C91       1.0  0.86809  0.72760  0.26862  1.0000 0.5976345398
C   C92       1.0  0.93825  0.71432  0.28387  1.0000 -0.1126437758
C   C93       1.0  0.96507  0.69977  0.34764  1.0000 -0.1292886028
C   C94       1.0  0.03390  0.69283  0.34452  1.0000 -0.1292886028
C   C95       1.0  0.05797  0.70270  0.27848  1.0000 -0.1126437758
C   C96       1.0  0.12836  0.70628  0.25856  1.0000 0.5976345398
C   C97       1.0  0.78013  0.88285  0.27132  1.0000 0.5976345398
C   C98       1.0  0.78632  0.95322  0.28845  1.0000 -0.1172511886
C   C99       1.0  0.78375  0.98178  0.35320  1.0000 -0.1292886028
C   C100      1.0  0.78512  0.05090  0.34924  1.0000 -0.1292886028
C   C101      1.0  0.78825  0.07321  0.28220  1.0000 -0.1126437758
C   C102      1.0  0.78339  0.14237  0.25862  1.0000 0.594817669
C   C103      1.0  0.81632  0.73608  0.04422  1.0000 -0.1172511886
C   C104      1.0  0.81715  0.74137  0.96412  1.0000 -0.1172511886
C   C105      1.0  0.69868  0.74721  0.04957  1.0000 -0.1172511886
C   C106      1.0  0.69957  0.73685  0.97047  1.0000 -0.1172511886
C   C107      1.0  0.76739  0.84291  0.04335  1.0000 -0.1172511886
C   C108      1.0  0.75437  0.84071  0.96395  1.0000 -0.1126437758
C   C109      1.0  0.27240  0.86809  0.73138  1.0000 0.5976345398
C   C110      1.0  0.28568  0.93825  0.71613  1.0000 -0.1126437758
C   C111      1.0  0.30023  0.96507  0.65236  1.0000 -0.1292886028
C   C112      1.0  0.30717  0.03390  0.65548  1.0000 -0.1292886028
C   C113      1.0  0.29730  0.05797  0.72152  1.0000 -0.1126437758
C   C114      1.0  0.29372  0.12836  0.74144  1.0000 0.5976345398
C   C115      1.0  0.11715  0.78013  0.72868  1.0000 0.5976345398
C   C116      1.0  0.04678  0.78632  0.71155  1.0000 -0.1172511886
C   C117      1.0  0.01822  0.78375  0.64680  1.0000 -0.1292886028
C   C118      1.0  0.94910  0.78512  0.65076  1.0000 -0.1292886028
C   C119      1.0  0.92679  0.78825  0.71780  1.0000 -0.1126437758
C   C120      1.0  0.85763  0.78339  0.74138  1.0000 0.594817669
C   C121      1.0  0.26392  0.81632  0.95578  1.0000 -0.1172511886
C   C122      1.0  0.25863  0.81715  0.03588  1.0000 -0.1172511886
C   C123      1.0  0.25279  0.69868  0.95043  1.0000 -0.1172511886
C   C124      1.0  0.26315  0.69957  0.02953  1.0000 -0.1172511886
C   C125      1.0  0.15709  0.76739  0.95665  1.0000 -0.1126437758
C   C126      1.0  0.15929  0.75437  0.03605  1.0000 -0.1126437758
C   C127      1.0  0.72760  0.13191  0.73138  1.0000 0.5976345398
C   C128      1.0  0.71432  0.06175  0.71613  1.0000 -0.1126437758
C   C129      1.0  0.69977  0.03493  0.65236  1.0000 -0.1292886028
C   C130      1.0  0.69283  0.96610  0.65548  1.0000 -0.1292886028
C   C131      1.0  0.70270  0.94203  0.72152  1.0000 -0.1126437758
C   C132      1.0  0.70628  0.87164  0.74144  1.0000 0.5976345398
C   C133      1.0  0.88285  0.21987  0.72868  1.0000 0.5976345398
C   C134      1.0  0.95322  0.21368  0.71155  1.0000 -0.1172511886
C   C135      1.0  0.98178  0.21625  0.64680  1.0000 -0.1292886028
C   C136      1.0  0.05090  0.21488  0.65076  1.0000 -0.1292886028
C   C137      1.0  0.07321  0.21175  0.71780  1.0000 -0.1126437758
C   C138      1.0  0.14237  0.21661  0.74138  1.0000 0.594817669
C   C139      1.0  0.73608  0.18368  0.95578  1.0000 -0.1172511886
C   C140      1.0  0.74137  0.18285  0.03588  1.0000 -0.1172511886
C   C141      1.0  0.74721  0.30132  0.95043  1.0000 -0.1172511886
C   C142      1.0  0.73685  0.30043  0.02953  1.0000 -0.1172511886
C   C143      1.0  0.84291  0.23261  0.95665  1.0000 -0.1126437758
C   C144      1.0  0.84071  0.24563  0.03605  1.0000 -0.1126437758
S   S1        1.0  0.49688  0.77971  0.28053  1.0000 0.1404192846
S   S2        1.0  0.29132  0.48976  0.27737  1.0000 0.1506897293
S   S3        1.0  0.50312  0.22029  0.28053  1.0000 0.1404192846
S   S4        1.0  0.70868  0.51024  0.27737  1.0000 0.1506897293
S   S5        1.0  0.22029  0.49688  0.71947  1.0000 0.1404192846
S   S6        1.0  0.51024  0.29132  0.72263  1.0000 0.1506897293
S   S7        1.0  0.77971  0.50312  0.71947  1.0000 0.1404192846
S   S8        1.0  0.48976  0.70868  0.72263  1.0000 0.1506897293
S   S9        1.0  0.00312  0.27971  0.21947  1.0000 0.1404192846
S   S10       1.0  0.20868  0.98976  0.22263  1.0000 0.1506897293
S   S11       1.0  0.99688  0.72029  0.21947  1.0000 0.1404192846
S   S12       1.0  0.79132  0.01024  0.22263  1.0000 0.1506897293
S   S13       1.0  0.27971  0.99688  0.78053  1.0000 0.1404192846
S   S14       1.0  0.98976  0.79132  0.77737  1.0000 0.1506897293
S   S15       1.0  0.72029  0.00312  0.78053  1.0000 0.1404192846
S   S16       1.0  0.01024  0.20868  0.77737  1.0000 0.1506897293
N   N1        1.0  0.26209  0.72401  0.42675  1.0000 -0.0925715456
N   N2        1.0  0.25595  0.72778  0.56130  1.0000 -0.0925715456
N   N3        1.0  0.73791  0.27599  0.42675  1.0000 -0.0925715456
N   N4        1.0  0.74405  0.27222  0.56130  1.0000 -0.0925715456
N   N5        1.0  0.27599  0.26209  0.57325  1.0000 -0.0925715456
N   N6        1.0  0.27222  0.25595  0.43870  1.0000 -0.0925715456
N   N7        1.0  0.72401  0.73791  0.57325  1.0000 -0.0925715456
N   N8        1.0  0.72778  0.74405  0.43870  1.0000 -0.0925715456
N   N9        1.0  0.23791  0.22401  0.07325  1.0000 -0.0925715456
N   N10       1.0  0.24405  0.22778  0.93870  1.0000 -0.0925715456
N   N11       1.0  0.76209  0.77599  0.07325  1.0000 -0.0925715456
N   N12       1.0  0.75595  0.77222  0.93870  1.0000 -0.0925715456
N   N13       1.0  0.22401  0.76209  0.92675  1.0000 -0.0925715456
N   N14       1.0  0.22778  0.75595  0.06130  1.0000 -0.0925715456
N   N15       1.0  0.77599  0.23791  0.92675  1.0000 -0.0925715456
N   N16       1.0  0.77222  0.24405  0.06130  1.0000 -0.0925715456
O   O1        1.0  0.35335  0.75942  0.29394  1.0000 -0.560163641
O   O2        1.0  0.33008  0.77456  0.18035  1.0000 -0.549904267
O   O3        1.0  0.64085  0.77407  0.30259  1.0000 -0.549904267
O   O4        1.0  0.66864  0.80975  0.19547  1.0000 -0.549904267
O   O5        1.0  0.29268  0.63343  0.29081  1.0000 -0.549904267
O   O6        1.0  0.26186  0.65413  0.18013  1.0000 -0.560163641
O   O7        1.0  0.28690  0.34638  0.30602  1.0000 -0.5438120151
O   O8        1.0  0.27479  0.31598  0.19423  1.0000 -0.560163641
O   O9        1.0  0.64665  0.24058  0.29394  1.0000 -0.560163641
O   O10       1.0  0.66992  0.22544  0.18035  1.0000 -0.549904267
O   O11       1.0  0.35915  0.22593  0.30259  1.0000 -0.549904267
O   O12       1.0  0.33136  0.19025  0.19547  1.0000 -0.549904267
O   O13       1.0  0.70732  0.36657  0.29081  1.0000 -0.5438120151
O   O14       1.0  0.73814  0.34587  0.18013  1.0000 -0.560163641
O   O15       1.0  0.71310  0.65362  0.30602  1.0000 -0.5438120151
O   O16       1.0  0.72521  0.68402  0.19423  1.0000 -0.560163641
O   O17       1.0  0.24058  0.35335  0.70606  1.0000 -0.560163641
O   O18       1.0  0.22544  0.33008  0.81965  1.0000 -0.549904267
O   O19       1.0  0.22593  0.64085  0.69741  1.0000 -0.549904267
O   O20       1.0  0.19025  0.66864  0.80453  1.0000 -0.549904267
O   O21       1.0  0.36657  0.29268  0.70919  1.0000 -0.549904267
O   O22       1.0  0.34587  0.26186  0.81987  1.0000 -0.560163641
O   O23       1.0  0.65362  0.28690  0.69398  1.0000 -0.5438120151
O   O24       1.0  0.68402  0.27479  0.80577  1.0000 -0.560163641
O   O25       1.0  0.75942  0.64665  0.70606  1.0000 -0.560163641
O   O26       1.0  0.77456  0.66992  0.81965  1.0000 -0.549904267
O   O27       1.0  0.77407  0.35915  0.69741  1.0000 -0.549904267
O   O28       1.0  0.80975  0.33136  0.80453  1.0000 -0.549904267
O   O29       1.0  0.63343  0.70732  0.70919  1.0000 -0.5438120151
O   O30       1.0  0.65413  0.73814  0.81987  1.0000 -0.560163641
O   O31       1.0  0.34638  0.71310  0.69398  1.0000 -0.5438120151
O   O32       1.0  0.31598  0.72521  0.80577  1.0000 -0.560163641
O   O33       1.0  0.14665  0.25942  0.20606  1.0000 -0.549904267
O   O34       1.0  0.16992  0.27456  0.31965  1.0000 -0.549904267
O   O35       1.0  0.85915  0.27407  0.19741  1.0000 -0.549904267
O   O36       1.0  0.83136  0.30975  0.30453  1.0000 -0.549904267
O   O37       1.0  0.20732  0.13343  0.20919  1.0000 -0.549904267
O   O38       1.0  0.23814  0.15413  0.31987  1.0000 -0.560163641
O   O39       1.0  0.21310  0.84638  0.19398  1.0000 -0.5438120151
O   O40       1.0  0.22521  0.81598  0.30577  1.0000 -0.560163641
O   O41       1.0  0.85335  0.74058  0.20606  1.0000 -0.560163641
O   O42       1.0  0.83008  0.72544  0.31965  1.0000 -0.549904267
O   O43       1.0  0.14085  0.72593  0.19741  1.0000 -0.549904267
O   O44       1.0  0.16864  0.69025  0.30453  1.0000 -0.549904267
O   O45       1.0  0.79268  0.86657  0.20919  1.0000 -0.5438120151
O   O46       1.0  0.76186  0.84587  0.31987  1.0000 -0.560163641
O   O47       1.0  0.78690  0.15362  0.19398  1.0000 -0.5438120151
O   O48       1.0  0.77479  0.18402  0.30577  1.0000 -0.560163641
O   O49       1.0  0.25942  0.85335  0.79394  1.0000 -0.560163641
O   O50       1.0  0.27456  0.83008  0.68035  1.0000 -0.549904267
O   O51       1.0  0.27407  0.14085  0.80259  1.0000 -0.549904267
O   O52       1.0  0.30975  0.16864  0.69547  1.0000 -0.549904267
O   O53       1.0  0.13343  0.79268  0.79081  1.0000 -0.5438120151
O   O54       1.0  0.15413  0.76186  0.68013  1.0000 -0.560163641
O   O55       1.0  0.84638  0.78690  0.80602  1.0000 -0.5438120151
O   O56       1.0  0.81598  0.77479  0.69423  1.0000 -0.560163641
O   O57       1.0  0.74058  0.14665  0.79394  1.0000 -0.560163641
O   O58       1.0  0.72544  0.16992  0.68035  1.0000 -0.549904267
O   O59       1.0  0.72593  0.85915  0.80259  1.0000 -0.549904267
O   O60       1.0  0.69025  0.83136  0.69547  1.0000 -0.549904267
O   O61       1.0  0.86657  0.20732  0.79081  1.0000 -0.5438120151
O   O62       1.0  0.84587  0.23814  0.68013  1.0000 -0.560163641
O   O63       1.0  0.15362  0.21310  0.80602  1.0000 -0.5438120151
O   O64       1.0  0.18402  0.22521  0.69423  1.0000 -0.560163641
