# DDEC6 charges by PACMAN v1.1 (https://github.com/mtap-research/PACMAN-charge/)
data_2018[Dy][rtl]3[ASR]1
_chemical_formula_sum              "Dy4 P4 H52 C84 N4 O40"
_cell_length_a       11.5403
_cell_length_b       17.4616
_cell_length_c       18.7351
_cell_angle_alpha    90
_cell_angle_beta     126.874
_cell_angle_gamma    90

_symmetry_space_group_name_H-M    "P 1"
_symmetry_Int_Tables_number       1

loop_
  _symmetry_equiv_pos_as_xyz
  'x, y, z'

loop_
  _atom_site_type_symbol
  _atom_site_label
  _atom_site_symmetry_multiplicity
  _atom_site_fract_x
  _atom_site_fract_y
  _atom_site_fract_z
  _atom_site_occupancy
  _atom_site_charge
Dy  Dy1       1.0  0.98782  0.07173  0.90723  1.0000 2.0665488915
Dy  Dy2       1.0  0.01218  0.57173  0.59277  1.0000 2.0665488915
Dy  Dy3       1.0  0.01218  0.92827  0.09277  1.0000 2.0665488915
Dy  Dy4       1.0  0.98782  0.42827  0.40723  1.0000 2.0665488915
P   P1        1.0  0.08519  0.07774  0.74938  1.0000 0.907164611
P   P2        1.0  0.91481  0.57774  0.75062  1.0000 0.907164611
P   P3        1.0  0.91481  0.92226  0.25062  1.0000 0.907164611
P   P4        1.0  0.08519  0.42226  0.24938  1.0000 0.907164611
H   H1        1.0  0.48230  0.84950  0.36770  1.0000 0.3434695081
H   H2        1.0  0.30020  0.98070  0.88330  1.0000 0.1305020788
H   H3        1.0  0.54280  0.95760  0.95020  1.0000 0.1207521947
H   H4        1.0  0.52240  0.09730  0.77380  1.0000 0.1207521947
H   H5        1.0  0.28260  0.12240  0.70980  1.0000 0.1095902437
H   H6        1.0  0.11330  0.95310  0.65900  1.0000 0.1207521947
H   H7        1.0  0.95150  0.87260  0.54260  1.0000 0.1207521947
H   H8        1.0  0.62650  0.96790  0.53080  1.0000 0.1207521947
H   H9        1.0  0.78800  0.04880  0.64630  1.0000 0.1305020788
H   H10       1.0  0.10690  0.22600  0.81150  1.0000 0.1207521947
H   H11       1.0  0.09410  0.34800  0.76120  1.0000 0.1207521947
H   H12       1.0  0.97730  0.26250  0.52790  1.0000 0.1305020788
H   H13       1.0  0.98460  0.14020  0.57760  1.0000 0.1095902437
H   H14       1.0  0.51770  0.34950  0.13230  1.0000 0.3434695081
H   H15       1.0  0.69980  0.48070  0.61670  1.0000 0.1305020788
H   H16       1.0  0.45720  0.45760  0.54980  1.0000 0.1207521947
H   H17       1.0  0.47760  0.59730  0.72620  1.0000 0.1207521947
H   H18       1.0  0.71740  0.62240  0.79020  1.0000 0.1095902437
H   H19       1.0  0.88670  0.45310  0.84100  1.0000 0.1207521947
H   H20       1.0  0.04850  0.37260  0.95740  1.0000 0.1207521947
H   H21       1.0  0.37350  0.46790  0.96920  1.0000 0.1207521947
H   H22       1.0  0.21200  0.54880  0.85370  1.0000 0.1305020788
H   H23       1.0  0.89310  0.72600  0.68850  1.0000 0.1207521947
H   H24       1.0  0.90590  0.84800  0.73880  1.0000 0.1207521947
H   H25       1.0  0.02270  0.76250  0.97210  1.0000 0.1305020788
H   H26       1.0  0.01540  0.64020  0.92240  1.0000 0.1095902437
H   H27       1.0  0.51770  0.15050  0.63230  1.0000 0.3434695081
H   H28       1.0  0.69980  0.01930  0.11670  1.0000 0.1305020788
H   H29       1.0  0.45720  0.04240  0.04980  1.0000 0.1207521947
H   H30       1.0  0.47760  0.90270  0.22620  1.0000 0.1207521947
H   H31       1.0  0.71740  0.87760  0.29020  1.0000 0.1095902437
H   H32       1.0  0.88670  0.04690  0.34100  1.0000 0.1207521947
H   H33       1.0  0.04850  0.12740  0.45740  1.0000 0.1207521947
H   H34       1.0  0.37350  0.03210  0.46920  1.0000 0.1207521947
H   H35       1.0  0.21200  0.95120  0.35370  1.0000 0.1305020788
H   H36       1.0  0.89310  0.77400  0.18850  1.0000 0.1207521947
H   H37       1.0  0.90590  0.65200  0.23880  1.0000 0.1207521947
H   H38       1.0  0.02270  0.73750  0.47210  1.0000 0.1305020788
H   H39       1.0  0.01540  0.85980  0.42240  1.0000 0.1095902437
H   H40       1.0  0.48230  0.65050  0.86770  1.0000 0.3434695081
H   H41       1.0  0.30020  0.51930  0.38330  1.0000 0.1305020788
H   H42       1.0  0.54280  0.54240  0.45020  1.0000 0.1207521947
H   H43       1.0  0.52240  0.40270  0.27380  1.0000 0.1207521947
H   H44       1.0  0.28260  0.37760  0.20980  1.0000 0.1095902437
H   H45       1.0  0.11330  0.54690  0.15900  1.0000 0.1207521947
H   H46       1.0  0.95150  0.62740  0.04260  1.0000 0.1207521947
H   H47       1.0  0.62650  0.53210  0.03080  1.0000 0.1207521947
H   H48       1.0  0.78800  0.45120  0.14630  1.0000 0.1305020788
H   H49       1.0  0.10690  0.27400  0.31150  1.0000 0.1207521947
H   H50       1.0  0.09410  0.15200  0.26120  1.0000 0.1207521947
H   H51       1.0  0.97730  0.23750  0.02790  1.0000 0.1305020788
H   H52       1.0  0.98460  0.35980  0.07760  1.0000 0.1095902437
C   C1        1.0  0.26880  0.05520  0.79190  1.0000 -0.1512124537
C   C2        1.0  0.34580  0.00530  0.86230  1.0000 -0.0819349759
C   C3        1.0  0.49120  0.99140  0.90240  1.0000 -0.0990162292
C   C4        1.0  0.55900  0.02760  0.87140  1.0000 -0.0130650424
C   C5        1.0  0.47870  0.07510  0.79730  1.0000 -0.0923113222
C   C6        1.0  0.33500  0.08960  0.75840  1.0000 -0.0923113222
C   C7        1.0  0.71840  0.01630  0.91790  1.0000 0.6481397824
C   C8        1.0  0.96560  0.01110  0.66200  1.0000 -0.1512124537
C   C9        1.0  0.01490  0.95690  0.63250  1.0000 -0.0923113222
C   C10       1.0  0.91780  0.90800  0.56330  1.0000 -0.0990162292
C   C11       1.0  0.77300  0.91140  0.52510  1.0000 -0.0299059636
C   C12       1.0  0.72470  0.96490  0.55630  1.0000 -0.0990162292
C   C13       1.0  0.82130  0.01380  0.62500  1.0000 -0.0642371735
C   C14       1.0  0.67180  0.85940  0.44910  1.0000 0.5411297755
C   C15       1.0  0.04930  0.17100  0.70050  1.0000 -0.1512124537
C   C16       1.0  0.08110  0.23330  0.75450  1.0000 -0.0819349759
C   C17       1.0  0.07500  0.30630  0.72480  1.0000 -0.0923113222
C   C18       1.0  0.04060  0.31810  0.64070  1.0000 -0.018345815
C   C19       1.0  0.00440  0.25520  0.58520  1.0000 -0.0819349759
C   C20       1.0  0.00880  0.18190  0.61490  1.0000 -0.0923113222
C   C21       1.0  0.04170  0.39680  0.61090  1.0000 0.6365118698
C   C22       1.0  0.73120  0.55520  0.70810  1.0000 -0.1512124537
C   C23       1.0  0.65420  0.50530  0.63770  1.0000 -0.0819349759
C   C24       1.0  0.50880  0.49140  0.59760  1.0000 -0.0990162292
C   C25       1.0  0.44100  0.52760  0.62860  1.0000 -0.0130650424
C   C26       1.0  0.52130  0.57510  0.70270  1.0000 -0.0923113222
C   C27       1.0  0.66500  0.58960  0.74160  1.0000 -0.0923113222
C   C28       1.0  0.28160  0.51630  0.58210  1.0000 0.6481397824
C   C29       1.0  0.03440  0.51110  0.83800  1.0000 -0.1512124537
C   C30       1.0  0.98510  0.45690  0.86750  1.0000 -0.0923113222
C   C31       1.0  0.08220  0.40800  0.93670  1.0000 -0.0990162292
C   C32       1.0  0.22700  0.41140  0.97490  1.0000 -0.0299059636
C   C33       1.0  0.27530  0.46490  0.94370  1.0000 -0.0990162292
C   C34       1.0  0.17870  0.51380  0.87500  1.0000 -0.0642371735
C   C35       1.0  0.32820  0.35940  0.05090  1.0000 0.5411297755
C   C36       1.0  0.95070  0.67100  0.79950  1.0000 -0.1512124537
C   C37       1.0  0.91890  0.73330  0.74550  1.0000 -0.0819349759
C   C38       1.0  0.92500  0.80630  0.77520  1.0000 -0.0923113222
C   C39       1.0  0.95940  0.81810  0.85930  1.0000 -0.018345815
C   C40       1.0  0.99560  0.75520  0.91480  1.0000 -0.0819349759
C   C41       1.0  0.99120  0.68190  0.88510  1.0000 -0.0923113222
C   C42       1.0  0.95830  0.89680  0.88910  1.0000 0.6365118698
C   C43       1.0  0.73120  0.94480  0.20810  1.0000 -0.1512124537
C   C44       1.0  0.65420  0.99470  0.13770  1.0000 -0.0819349759
C   C45       1.0  0.50880  0.00860  0.09760  1.0000 -0.0990162292
C   C46       1.0  0.44100  0.97240  0.12860  1.0000 -0.0130650424
C   C47       1.0  0.52130  0.92490  0.20270  1.0000 -0.0923113222
C   C48       1.0  0.66500  0.91040  0.24160  1.0000 -0.0923113222
C   C49       1.0  0.28160  0.98370  0.08210  1.0000 0.6481397824
C   C50       1.0  0.03440  0.98890  0.33800  1.0000 -0.1512124537
C   C51       1.0  0.98510  0.04310  0.36750  1.0000 -0.0923113222
C   C52       1.0  0.08220  0.09200  0.43670  1.0000 -0.0990162292
C   C53       1.0  0.22700  0.08860  0.47490  1.0000 -0.0299059636
C   C54       1.0  0.27530  0.03510  0.44370  1.0000 -0.0990162292
C   C55       1.0  0.17870  0.98620  0.37500  1.0000 -0.0642371735
C   C56       1.0  0.32820  0.14060  0.55090  1.0000 0.5411297755
C   C57       1.0  0.95070  0.82900  0.29950  1.0000 -0.1512124537
C   C58       1.0  0.91890  0.76670  0.24550  1.0000 -0.0819349759
C   C59       1.0  0.92500  0.69370  0.27520  1.0000 -0.0923113222
C   C60       1.0  0.95940  0.68190  0.35930  1.0000 -0.018345815
C   C61       1.0  0.99560  0.74480  0.41480  1.0000 -0.0819349759
C   C62       1.0  0.99120  0.81810  0.38510  1.0000 -0.0923113222
C   C63       1.0  0.95830  0.60320  0.38910  1.0000 0.6365118698
C   C64       1.0  0.26880  0.44480  0.29190  1.0000 -0.1512124537
C   C65       1.0  0.34580  0.49470  0.36230  1.0000 -0.0819349759
C   C66       1.0  0.49120  0.50860  0.40240  1.0000 -0.0990162292
C   C67       1.0  0.55900  0.47240  0.37140  1.0000 -0.0130650424
C   C68       1.0  0.47870  0.42490  0.29730  1.0000 -0.0923113222
C   C69       1.0  0.33500  0.41040  0.25840  1.0000 -0.0923113222
C   C70       1.0  0.71840  0.48370  0.41790  1.0000 0.6481397824
C   C71       1.0  0.96560  0.48890  0.16200  1.0000 -0.1512124537
C   C72       1.0  0.01490  0.54310  0.13250  1.0000 -0.0923113222
C   C73       1.0  0.91780  0.59200  0.06330  1.0000 -0.0990162292
C   C74       1.0  0.77300  0.58860  0.02510  1.0000 -0.0299059636
C   C75       1.0  0.72470  0.53510  0.05630  1.0000 -0.0990162292
C   C76       1.0  0.82130  0.48620  0.12500  1.0000 -0.0642371735
C   C77       1.0  0.67180  0.64060  0.94910  1.0000 0.5411297755
C   C78       1.0  0.04930  0.32900  0.20050  1.0000 -0.1512124537
C   C79       1.0  0.08110  0.26670  0.25450  1.0000 -0.0819349759
C   C80       1.0  0.07500  0.19370  0.22480  1.0000 -0.0923113222
C   C81       1.0  0.04060  0.18190  0.14070  1.0000 -0.018345815
C   C82       1.0  0.00440  0.24480  0.08520  1.0000 -0.0819349759
C   C83       1.0  0.00880  0.31810  0.11490  1.0000 -0.0923113222
C   C84       1.0  0.04170  0.10320  0.11090  1.0000 0.6365118698
N   N1        1.0  0.76210  0.18280  0.78320  1.0000 0.6973051504
N   N2        1.0  0.23790  0.68280  0.71680  1.0000 0.6973051504
N   N3        1.0  0.23790  0.81720  0.21680  1.0000 0.6973051504
N   N4        1.0  0.76210  0.31720  0.28320  1.0000 0.6973051504
O   O1        1.0  0.07250  0.07790  0.82380  1.0000 -0.770750977
O   O2        1.0  0.78960  0.98530  0.99320  1.0000 -0.661791845
O   O3        1.0  0.76840  0.04010  0.87800  1.0000 -0.661791845
O   O4        1.0  0.71140  0.81050  0.42190  1.0000 -0.4962382241
O   O5        1.0  0.53510  0.87110  0.41610  1.0000 -0.4624483882
O   O6        1.0  0.06090  0.45200  0.65980  1.0000 -0.6241165771
O   O7        1.0  0.02250  0.40480  0.53770  1.0000 -0.7232917919
O   O8        1.0  0.78680  0.12500  0.75600  1.0000 -0.4624483882
O   O9        1.0  0.84820  0.19570  0.86540  1.0000 -0.4857055767
O   O10       1.0  0.65490  0.22220  0.73340  1.0000 -0.3629120364
O   O11       1.0  0.92750  0.57790  0.67620  1.0000 -0.770750977
O   O12       1.0  0.21040  0.48530  0.50680  1.0000 -0.661791845
O   O13       1.0  0.23160  0.54010  0.62200  1.0000 -0.661791845
O   O14       1.0  0.28860  0.31050  0.07810  1.0000 -0.4962382241
O   O15       1.0  0.46490  0.37110  0.08390  1.0000 -0.4624483882
O   O16       1.0  0.93910  0.95200  0.84020  1.0000 -0.6241165771
O   O17       1.0  0.97750  0.90480  0.96230  1.0000 -0.7232917919
O   O18       1.0  0.21320  0.62500  0.74400  1.0000 -0.4624483882
O   O19       1.0  0.15180  0.69570  0.63460  1.0000 -0.4857055767
O   O20       1.0  0.34510  0.72220  0.76660  1.0000 -0.3629120364
O   O21       1.0  0.92750  0.92210  0.17620  1.0000 -0.770750977
O   O22       1.0  0.21040  0.01470  0.00680  1.0000 -0.661791845
O   O23       1.0  0.23160  0.95990  0.12200  1.0000 -0.66628962
O   O24       1.0  0.28860  0.18950  0.57810  1.0000 -0.4962382241
O   O25       1.0  0.46490  0.12890  0.58390  1.0000 -0.4624483882
O   O26       1.0  0.93910  0.54800  0.34020  1.0000 -0.6241165771
O   O27       1.0  0.97750  0.59520  0.46230  1.0000 -0.7232917919
O   O28       1.0  0.21320  0.87500  0.24400  1.0000 -0.4624483882
O   O29       1.0  0.15180  0.80430  0.13460  1.0000 -0.4857055767
O   O30       1.0  0.34510  0.77780  0.26660  1.0000 -0.3629120364
O   O31       1.0  0.07250  0.42210  0.32380  1.0000 -0.770750977
O   O32       1.0  0.78960  0.51470  0.49320  1.0000 -0.661791845
O   O33       1.0  0.76840  0.45990  0.37800  1.0000 -0.661791845
O   O34       1.0  0.71140  0.68950  0.92190  1.0000 -0.4962382241
O   O35       1.0  0.53510  0.62890  0.91610  1.0000 -0.4624483882
O   O36       1.0  0.06090  0.04800  0.15980  1.0000 -0.6241165771
O   O37       1.0  0.02250  0.09520  0.03770  1.0000 -0.7232917919
O   O38       1.0  0.78680  0.37500  0.25600  1.0000 -0.4624483882
O   O39       1.0  0.84820  0.30430  0.36540  1.0000 -0.4857055767
O   O40       1.0  0.65490  0.27780  0.23340  1.0000 -0.3629120364
