# DDEC6 charges by PACMAN v1.1 (https://github.com/mtap-research/PACMAN-charge/)
data_2018[Zn][nan]3[ASR]3
_chemical_formula_sum              "Zn16 H48 C128 O64"
_cell_length_a       17.7581
_cell_length_b       17.7581
_cell_length_c       17.7581
_cell_angle_alpha    121.4
_cell_angle_beta     121.4
_cell_angle_gamma    87.5913

_symmetry_space_group_name_H-M    "P 1"
_symmetry_Int_Tables_number       1

loop_
  _symmetry_equiv_pos_as_xyz
  'x, y, z'

loop_
  _atom_site_type_symbol
  _atom_site_label
  _atom_site_symmetry_multiplicity
  _atom_site_fract_x
  _atom_site_fract_y
  _atom_site_fract_z
  _atom_site_occupancy
  _atom_site_charge
Zn  Zn1       1.0  0.60002  0.86458  0.12050  1.0000 0.9242877086
Zn  Zn2       1.0  0.62176  0.88719  0.96229  1.0000 0.9476878514
Zn  Zn3       1.0  0.74408  0.47952  0.87950  1.0000 0.9242877086
Zn  Zn4       1.0  0.92490  0.65947  0.03771  1.0000 0.9476878514
Zn  Zn5       1.0  0.61458  0.99408  0.76456  1.0000 0.9242877086
Zn  Zn6       1.0  0.63719  0.17490  0.76543  1.0000 0.9476878514
Zn  Zn7       1.0  0.22952  0.85002  0.23544  1.0000 0.9242877086
Zn  Zn8       1.0  0.40947  0.87176  0.23457  1.0000 0.9476878514
Zn  Zn9       1.0  0.14998  0.38542  0.37950  1.0000 0.9242877086
Zn  Zn10      1.0  0.12824  0.36281  0.53771  1.0000 0.9476878514
Zn  Zn11      1.0  0.00592  0.77048  0.62050  1.0000 0.9242877086
Zn  Zn12      1.0  0.82510  0.59053  0.46229  1.0000 0.9476878514
Zn  Zn13      1.0  0.13542  0.25592  0.73544  1.0000 0.9242877086
Zn  Zn14      1.0  0.11281  0.07510  0.73457  1.0000 0.9476878514
Zn  Zn15      1.0  0.52048  0.39998  0.26456  1.0000 0.9242877086
Zn  Zn16      1.0  0.34053  0.37824  0.26543  1.0000 0.9476878514
H   H1        1.0  0.89570  0.83740  0.12470  1.0000 0.1379566138
H   H2        1.0  0.87770  0.02630  0.36640  1.0000 0.1379566138
H   H3        1.0  0.19500  0.12000  0.51580  1.0000 0.1269239058
H   H4        1.0  0.15990  0.86750  0.45320  1.0000 0.1206750598
H   H5        1.0  0.31850  0.90400  0.56910  1.0000 0.1206750598
H   H6        1.0  0.35460  0.15480  0.62840  1.0000 0.1206750598
H   H7        1.0  0.71270  0.77100  0.87530  1.0000 0.1379566138
H   H8        1.0  0.65990  0.51130  0.63360  1.0000 0.1379566138
H   H9        1.0  0.60420  0.67920  0.48420  1.0000 0.1269239058
H   H10       1.0  0.41430  0.70670  0.54680  1.0000 0.1206750598
H   H11       1.0  0.33490  0.74940  0.43090  1.0000 0.1206750598
H   H12       1.0  0.52640  0.72620  0.37160  1.0000 0.1206750598
H   H13       1.0  0.58740  0.96270  0.44170  1.0000 0.1379566138
H   H14       1.0  0.77630  0.90990  0.64860  1.0000 0.1379566138
H   H15       1.0  0.87000  0.85420  0.42500  1.0000 0.1269239058
H   H16       1.0  0.61750  0.66430  0.20760  1.0000 0.1206750598
H   H17       1.0  0.65400  0.58490  0.08550  1.0000 0.1206750598
H   H18       1.0  0.90480  0.77640  0.30020  1.0000 0.1206750598
H   H19       1.0  0.52100  0.14570  0.55830  1.0000 0.1379566138
H   H20       1.0  0.26130  0.12770  0.35140  1.0000 0.1379566138
H   H21       1.0  0.42920  0.44500  0.57500  1.0000 0.1269239058
H   H22       1.0  0.45670  0.40990  0.79240  1.0000 0.1206750598
H   H23       1.0  0.49940  0.56850  0.91450  1.0000 0.1206750598
H   H24       1.0  0.47620  0.60460  0.69980  1.0000 0.1206750598
H   H25       1.0  0.85430  0.41260  0.37530  1.0000 0.1379566138
H   H26       1.0  0.87230  0.22370  0.13360  1.0000 0.1379566138
H   H27       1.0  0.55500  0.13000  0.98420  1.0000 0.1269239058
H   H28       1.0  0.59010  0.38250  0.04680  1.0000 0.1206750598
H   H29       1.0  0.43150  0.34600  0.93090  1.0000 0.1206750598
H   H30       1.0  0.39540  0.09520  0.87160  1.0000 0.1206750598
H   H31       1.0  0.03730  0.47900  0.62470  1.0000 0.1379566138
H   H32       1.0  0.09010  0.73870  0.86640  1.0000 0.1379566138
H   H33       1.0  0.14580  0.57080  0.01580  1.0000 0.1269239058
H   H34       1.0  0.33570  0.54330  0.95320  1.0000 0.1206750598
H   H35       1.0  0.41510  0.50060  0.06910  1.0000 0.1206750598
H   H36       1.0  0.22360  0.52380  0.12840  1.0000 0.1206750598
H   H37       1.0  0.16260  0.28730  0.05830  1.0000 0.1379566138
H   H38       1.0  0.97370  0.34010  0.85140  1.0000 0.1379566138
H   H39       1.0  0.88000  0.39580  0.07500  1.0000 0.1269239058
H   H40       1.0  0.13250  0.58570  0.29240  1.0000 0.1206750598
H   H41       1.0  0.09600  0.66510  0.41450  1.0000 0.1206750598
H   H42       1.0  0.84520  0.47360  0.19980  1.0000 0.1206750598
H   H43       1.0  0.22900  0.10430  0.94170  1.0000 0.1379566138
H   H44       1.0  0.48870  0.12230  0.14860  1.0000 0.1379566138
H   H45       1.0  0.32080  0.80500  0.92500  1.0000 0.1269239058
H   H46       1.0  0.29330  0.84010  0.70760  1.0000 0.1206750598
H   H47       1.0  0.25060  0.68150  0.58550  1.0000 0.1206750598
H   H48       1.0  0.27380  0.64540  0.80020  1.0000 0.1206750598
C   C1        1.0  0.45710  0.05249  0.67341  1.0000 0.5959344564
C   C2        1.0  0.35318  0.03191  0.60739  1.0000 -0.0284913986
C   C3        1.0  0.04668  0.07660  0.53788  1.0000 0.5959344564
C   C4        1.0  0.07126  0.84987  0.23385  1.0000 0.5918029865
C   C5        1.0  0.77180  0.91293  0.15013  1.0000 0.5918029865
C   C6        1.0  0.87120  0.92984  0.23210  1.0000 -0.0096565933
C   C7        1.0  0.92296  0.88119  0.19843  1.0000 -0.1100230798
C   C8        1.0  0.01582  0.89773  0.27471  1.0000 -0.0594295742
C   C9        1.0  0.05890  0.96371  0.38623  1.0000 0.0287213555
C   C10       1.0  0.00457  0.01012  0.41843  1.0000 -0.0594295742
C   C11       1.0  0.91233  0.99414  0.34307  1.0000 -0.1100230798
C   C12       1.0  0.16103  0.98853  0.46888  1.0000 0.0796734562
C   C13       1.0  0.21979  0.07560  0.52433  1.0000 -0.1330727458
C   C14       1.0  0.19886  0.92512  0.48754  1.0000 -0.1330727458
C   C15       1.0  0.29386  0.94676  0.55650  1.0000 -0.0917005673
C   C16       1.0  0.31565  0.09670  0.59255  1.0000 -0.0917005673
C   C17       1.0  0.37908  0.78369  0.32659  1.0000 0.5959344564
C   C18       1.0  0.42452  0.74579  0.39261  1.0000 -0.0284913986
C   C19       1.0  0.53872  0.50880  0.46212  1.0000 0.5959344564
C   C20       1.0  0.61602  0.83741  0.76615  1.0000 0.5918029865
C   C21       1.0  0.76280  0.62167  0.84987  1.0000 0.5918029865
C   C22       1.0  0.69774  0.63910  0.76790  1.0000 -0.0096565933
C   C23       1.0  0.68276  0.72453  0.80157  1.0000 -0.1100230798
C   C24       1.0  0.62302  0.74111  0.72529  1.0000 -0.0594295742
C   C25       1.0  0.57748  0.67267  0.61377  1.0000 0.0287213555
C   C26       1.0  0.59169  0.58614  0.58157  1.0000 -0.0594295742
C   C27       1.0  0.65107  0.56926  0.65693  1.0000 -0.1100230798
C   C28       1.0  0.51965  0.69215  0.53112  1.0000 0.0796734562
C   C29       1.0  0.55127  0.69546  0.47567  1.0000 -0.1330727458
C   C30       1.0  0.43758  0.71132  0.51246  1.0000 -0.1330727458
C   C31       1.0  0.39026  0.73736  0.44350  1.0000 -0.0917005673
C   C32       1.0  0.50415  0.72310  0.40745  1.0000 -0.0917005673
C   C33       1.0  0.80249  0.62908  0.09539  1.0000 0.5959344564
C   C34       1.0  0.78191  0.67452  0.17873  1.0000 -0.0284913986
C   C35       1.0  0.82660  0.78872  0.52992  1.0000 0.5959344564
C   C36       1.0  0.59987  0.86602  0.27861  1.0000 0.5918029865
C   C37       1.0  0.66293  0.01280  0.64113  1.0000 0.5918029865
C   C38       1.0  0.67984  0.94774  0.55864  1.0000 -0.0096565933
C   C39       1.0  0.63119  0.93276  0.45823  1.0000 -0.1100230798
C   C40       1.0  0.64773  0.87302  0.38191  1.0000 -0.0594295742
C   C41       1.0  0.71371  0.82748  0.40481  1.0000 0.0287213555
C   C42       1.0  0.76012  0.84169  0.50555  1.0000 -0.0594295742
C   C43       1.0  0.74414  0.90107  0.58181  1.0000 -0.1100230798
C   C44       1.0  0.73853  0.76965  0.32750  1.0000 0.0796734562
C   C45       1.0  0.82560  0.80127  0.35581  1.0000 -0.1330727458
C   C46       1.0  0.67512  0.68758  0.22626  1.0000 -0.1330727458
C   C47       1.0  0.69676  0.64026  0.15290  1.0000 -0.0917005673
C   C48       1.0  0.84670  0.75415  0.28105  1.0000 -0.0917005673
C   C49       1.0  0.53369  0.70710  0.90461  1.0000 0.5959344564
C   C50       1.0  0.49579  0.60318  0.82127  1.0000 -0.0284913986
C   C51       1.0  0.25880  0.29668  0.47008  1.0000 0.5959344564
C   C52       1.0  0.58741  0.32126  0.72139  1.0000 0.5918029865
C   C53       1.0  0.37167  0.02180  0.35887  1.0000 0.5918029865
C   C54       1.0  0.38910  0.12120  0.44136  1.0000 -0.0096565933
C   C55       1.0  0.47453  0.17296  0.54177  1.0000 -0.1100230798
C   C56       1.0  0.49111  0.26582  0.61809  1.0000 -0.0594295742
C   C57       1.0  0.42267  0.30890  0.59519  1.0000 0.0287213555
C   C58       1.0  0.33614  0.25457  0.49445  1.0000 -0.0594295742
C   C59       1.0  0.31926  0.16233  0.41819  1.0000 -0.1100230798
C   C60       1.0  0.44215  0.41103  0.67250  1.0000 0.0796734562
C   C61       1.0  0.44546  0.46979  0.64419  1.0000 -0.1330727458
C   C62       1.0  0.46132  0.44886  0.77374  1.0000 -0.1330727458
C   C63       1.0  0.48736  0.54386  0.84710  1.0000 -0.0917005673
C   C64       1.0  0.47310  0.56565  0.71895  1.0000 -0.0917005673
C   C65       1.0  0.29290  0.19751  0.82659  1.0000 0.5959344564
C   C66       1.0  0.39682  0.21809  0.89261  1.0000 -0.0284913986
C   C67       1.0  0.70332  0.17340  0.96212  1.0000 0.5959344564
C   C68       1.0  0.67874  0.40013  0.26615  1.0000 0.5918029865
C   C69       1.0  0.97820  0.33707  0.34987  1.0000 0.5918029865
C   C70       1.0  0.87880  0.32016  0.26790  1.0000 -0.0096565933
C   C71       1.0  0.82704  0.36881  0.30157  1.0000 -0.1100230798
C   C72       1.0  0.73418  0.35227  0.22529  1.0000 -0.0594295742
C   C73       1.0  0.69110  0.28629  0.11377  1.0000 0.0287213555
C   C74       1.0  0.74543  0.23988  0.08157  1.0000 -0.0594295742
C   C75       1.0  0.83767  0.25586  0.15693  1.0000 -0.1100230798
C   C76       1.0  0.58897  0.26147  0.03112  1.0000 0.0796734562
C   C77       1.0  0.53021  0.17440  0.97567  1.0000 -0.1330727458
C   C78       1.0  0.55114  0.32488  0.01246  1.0000 -0.1330727458
C   C79       1.0  0.45614  0.30324  0.94350  1.0000 -0.0917005673
C   C80       1.0  0.43435  0.15330  0.90745  1.0000 -0.0917005673
C   C81       1.0  0.37092  0.46631  0.17341  1.0000 0.5959344564
C   C82       1.0  0.32548  0.50421  0.10739  1.0000 -0.0284913986
C   C83       1.0  0.21128  0.74120  0.03788  1.0000 0.5959344564
C   C84       1.0  0.13398  0.41259  0.73385  1.0000 0.5918029865
C   C85       1.0  0.98720  0.62833  0.65013  1.0000 0.5918029865
C   C86       1.0  0.05226  0.61090  0.73210  1.0000 -0.0096565933
C   C87       1.0  0.06724  0.52547  0.69843  1.0000 -0.1100230798
C   C88       1.0  0.12698  0.50889  0.77471  1.0000 -0.0594295742
C   C89       1.0  0.17252  0.57733  0.88623  1.0000 0.0287213555
C   C90       1.0  0.15831  0.66386  0.91843  1.0000 -0.0594295742
C   C91       1.0  0.09893  0.68074  0.84307  1.0000 -0.1100230798
C   C92       1.0  0.23035  0.55785  0.96888  1.0000 0.0796734562
C   C93       1.0  0.19873  0.55454  0.02433  1.0000 -0.1330727458
C   C94       1.0  0.31242  0.53868  0.98754  1.0000 -0.1330727458
C   C95       1.0  0.35974  0.51264  0.05650  1.0000 -0.0917005673
C   C96       1.0  0.24585  0.52690  0.09255  1.0000 -0.0917005673
C   C97       1.0  0.94751  0.62092  0.40461  1.0000 0.5959344564
C   C98       1.0  0.96809  0.57548  0.32127  1.0000 -0.0284913986
C   C99       1.0  0.92340  0.46128  0.97008  1.0000 0.5959344564
C   C100      1.0  0.15013  0.38398  0.22139  1.0000 0.5918029865
C   C101      1.0  0.08707  0.23720  0.85887  1.0000 0.5918029865
C   C102      1.0  0.07016  0.30226  0.94136  1.0000 -0.0096565933
C   C103      1.0  0.11881  0.31724  0.04177  1.0000 -0.1100230798
C   C104      1.0  0.10227  0.37698  0.11809  1.0000 -0.0594295742
C   C105      1.0  0.03629  0.42252  0.09519  1.0000 0.0287213555
C   C106      1.0  0.98988  0.40831  0.99445  1.0000 -0.0594295742
C   C107      1.0  0.00586  0.34893  0.91819  1.0000 -0.1100230798
C   C108      1.0  0.01147  0.48035  0.17250  1.0000 0.0796734562
C   C109      1.0  0.92440  0.44873  0.14419  1.0000 -0.1330727458
C   C110      1.0  0.07488  0.56242  0.27374  1.0000 -0.1330727458
C   C111      1.0  0.05324  0.60974  0.34710  1.0000 -0.0917005673
C   C112      1.0  0.90330  0.49585  0.21895  1.0000 -0.0917005673
C   C113      1.0  0.21631  0.54290  0.59539  1.0000 0.5959344564
C   C114      1.0  0.25421  0.64682  0.67873  1.0000 -0.0284913986
C   C115      1.0  0.49120  0.95332  0.02992  1.0000 0.5959344564
C   C116      1.0  0.16259  0.92874  0.77861  1.0000 0.5918029865
C   C117      1.0  0.37833  0.22820  0.14113  1.0000 0.5918029865
C   C118      1.0  0.36090  0.12880  0.05864  1.0000 -0.0096565933
C   C119      1.0  0.27547  0.07704  0.95823  1.0000 -0.1100230798
C   C120      1.0  0.25889  0.98418  0.88191  1.0000 -0.0594295742
C   C121      1.0  0.32733  0.94110  0.90481  1.0000 0.0287213555
C   C122      1.0  0.41386  0.99543  0.00555  1.0000 -0.0594295742
C   C123      1.0  0.43074  0.08767  0.08181  1.0000 -0.1100230798
C   C124      1.0  0.30785  0.83897  0.82750  1.0000 0.0796734562
C   C125      1.0  0.30454  0.78021  0.85581  1.0000 -0.1330727458
C   C126      1.0  0.28868  0.80114  0.72626  1.0000 -0.1330727458
C   C127      1.0  0.26264  0.70614  0.65290  1.0000 -0.0917005673
C   C128      1.0  0.27690  0.68435  0.78105  1.0000 -0.0917005673
O   O1        1.0  0.74361  0.87374  0.05359  1.0000 -0.5312449726
O   O2        1.0  0.50528  0.12728  0.70910  1.0000 -0.5510074178
O   O3        1.0  0.72142  0.94112  0.18294  1.0000 -0.5598892102
O   O4        1.0  0.06045  0.04202  0.58711  1.0000 -0.5424674729
O   O5        1.0  0.06350  0.16214  0.57812  1.0000 -0.5219268332
O   O6        1.0  0.14839  0.89932  0.27723  1.0000 -0.496437555
O   O7        1.0  0.48784  0.99141  0.68587  1.0000 -0.5598892102
O   O8        1.0  0.03989  0.76630  0.15901  1.0000 -0.5312449726
O   O9        1.0  0.82015  0.69002  0.94641  1.0000 -0.5312449726
O   O10       1.0  0.41818  0.79618  0.29090  1.0000 -0.5510074178
O   O11       1.0  0.75818  0.53848  0.81706  1.0000 -0.5598892102
O   O12       1.0  0.45491  0.47334  0.41289  1.0000 -0.5424674729
O   O13       1.0  0.58402  0.48538  0.42188  1.0000 -0.5219268332
O   O14       1.0  0.62209  0.87116  0.72277  1.0000 -0.496437555
O   O15       1.0  0.30554  0.80197  0.31413  1.0000 -0.5598892102
O   O16       1.0  0.60729  0.88088  0.84099  1.0000 -0.5312449726
O   O17       1.0  0.62374  0.07015  0.63013  1.0000 -0.5312449726
O   O18       1.0  0.87728  0.66818  0.12200  1.0000 -0.5510074178
O   O19       1.0  0.69112  0.00818  0.71970  1.0000 -0.5598892102
O   O20       1.0  0.79202  0.70491  0.48157  1.0000 -0.5424674729
O   O21       1.0  0.91214  0.83402  0.59864  1.0000 -0.5219268332
O   O22       1.0  0.64932  0.87209  0.25093  1.0000 -0.496437555
O   O23       1.0  0.74141  0.55554  0.00357  1.0000 -0.5598892102
O   O24       1.0  0.51630  0.85729  0.22641  1.0000 -0.5312449726
O   O25       1.0  0.44002  0.99361  0.36987  1.0000 -0.5312449726
O   O26       1.0  0.54618  0.75528  0.87800  1.0000 -0.5510074178
O   O27       1.0  0.28848  0.97142  0.28030  1.0000 -0.5598892102
O   O28       1.0  0.22334  0.31045  0.51843  1.0000 -0.5424674729
O   O29       1.0  0.23538  0.31350  0.40136  1.0000 -0.5219268332
O   O30       1.0  0.62116  0.39839  0.74907  1.0000 -0.496437555
O   O31       1.0  0.55197  0.73784  0.99643  1.0000 -0.5598892102
O   O32       1.0  0.63088  0.28989  0.77359  1.0000 -0.5312449726
O   O33       1.0  0.00639  0.37626  0.44641  1.0000 -0.5312449726
O   O34       1.0  0.24472  0.12272  0.79090  1.0000 -0.5510074178
O   O35       1.0  0.02858  0.30888  0.31706  1.0000 -0.5598892102
O   O36       1.0  0.68955  0.20798  0.91289  1.0000 -0.5424674729
O   O37       1.0  0.68650  0.08786  0.92188  1.0000 -0.5219268332
O   O38       1.0  0.60161  0.35068  0.22277  1.0000 -0.496437555
O   O39       1.0  0.26216  0.25859  0.81413  1.0000 -0.5598892102
O   O40       1.0  0.71011  0.48370  0.34099  1.0000 -0.5312449726
O   O41       1.0  0.92985  0.55998  0.55359  1.0000 -0.5312449726
O   O42       1.0  0.33182  0.45382  0.20910  1.0000 -0.5510074178
O   O43       1.0  0.99182  0.71152  0.68294  1.0000 -0.5598892102
O   O44       1.0  0.29509  0.77666  0.08711  1.0000 -0.5424674729
O   O45       1.0  0.16598  0.76462  0.07812  1.0000 -0.5219268332
O   O46       1.0  0.12791  0.37884  0.77723  1.0000 -0.496437555
O   O47       1.0  0.44446  0.44803  0.18587  1.0000 -0.5598892102
O   O48       1.0  0.14271  0.36912  0.65901  1.0000 -0.5312449726
O   O49       1.0  0.12626  0.17985  0.86987  1.0000 -0.5312449726
O   O50       1.0  0.87272  0.58182  0.37800  1.0000 -0.5510074178
O   O51       1.0  0.05888  0.24182  0.78030  1.0000 -0.5598892102
O   O52       1.0  0.95798  0.54509  0.01843  1.0000 -0.5424674729
O   O53       1.0  0.83786  0.41598  0.90136  1.0000 -0.5219268332
O   O54       1.0  0.10068  0.37791  0.24907  1.0000 -0.496437555
O   O55       1.0  0.00859  0.69446  0.49643  1.0000 -0.5598892102
O   O56       1.0  0.23370  0.39271  0.27359  1.0000 -0.5312449726
O   O57       1.0  0.30998  0.25639  0.13013  1.0000 -0.5312449726
O   O58       1.0  0.20382  0.49472  0.62200  1.0000 -0.5510074178
O   O59       1.0  0.46152  0.27858  0.21970  1.0000 -0.5598892102
O   O60       1.0  0.52666  0.93955  0.98157  1.0000 -0.5424674729
O   O61       1.0  0.51462  0.93650  0.09864  1.0000 -0.5219268332
O   O62       1.0  0.12884  0.85161  0.75093  1.0000 -0.496437555
O   O63       1.0  0.19803  0.51216  0.50357  1.0000 -0.5598892102
O   O64       1.0  0.11912  0.96011  0.72641  1.0000 -0.5312449726
