# DDEC6 charges by PACMAN v1.1 (https://github.com/mtap-research/PACMAN-charge/)
data_2018[Cd][kgd]2[ASR]2
_chemical_formula_sum              "Cd2 H14 C26 N2 O8"
_cell_length_a       8.634
_cell_length_b       8.822
_cell_length_c       9.885
_cell_angle_alpha    96.41
_cell_angle_beta     101.423
_cell_angle_gamma    102.598

_symmetry_space_group_name_H-M    "P 1"
_symmetry_Int_Tables_number       1

loop_
  _symmetry_equiv_pos_as_xyz
  'x, y, z'

loop_
  _atom_site_type_symbol
  _atom_site_label
  _atom_site_symmetry_multiplicity
  _atom_site_fract_x
  _atom_site_fract_y
  _atom_site_fract_z
  _atom_site_occupancy
  _atom_site_charge
Cd  Cd1       1.0  0.71405  0.61982  0.99219  1.0000 0.9353867498
Cd  Cd2       1.0  0.28595  0.38018  0.00781  1.0000 0.9353867498
H   H1        1.0  0.98390  0.84570  0.87130  1.0000 0.1142606911
H   H2        1.0  0.25530  0.98360  0.92550  1.0000 0.136722925
H   H3        1.0  0.42950  0.95510  0.12850  1.0000 0.1280729599
H   H4        1.0  0.04710  0.66390  0.21780  1.0000 0.1142606911
H   H5        1.0  0.20160  0.83740  0.44920  1.0000 0.1189684001
H   H6        1.0  0.34330  0.80050  0.66040  1.0000 0.1280729599
H   H7        1.0  0.69280  0.69460  0.47780  1.0000 0.1280729599
H   H8        1.0  0.01610  0.15430  0.12870  1.0000 0.1142606911
H   H9        1.0  0.74470  0.01640  0.07450  1.0000 0.136722925
H   H10       1.0  0.57050  0.04490  0.87150  1.0000 0.1280729599
H   H11       1.0  0.95290  0.33610  0.78220  1.0000 0.1142606911
H   H12       1.0  0.79840  0.16260  0.55080  1.0000 0.1189684001
H   H13       1.0  0.65670  0.19950  0.33960  1.0000 0.1280729599
H   H14       1.0  0.30720  0.30540  0.52220  1.0000 0.1280729599
C   C1        1.0  0.05180  0.83480  0.95340  1.0000 0.0760149238
C   C2        1.0  0.21620  0.91810  0.98520  1.0000 -0.119717871
C   C3        1.0  0.31990  0.90190  0.10640  1.0000 -0.0727906647
C   C4        1.0  0.25620  0.80360  0.19570  1.0000 0.0406250832
C   C5        1.0  0.08990  0.72660  0.15780  1.0000 0.0178141043
C   C6        1.0  0.35590  0.78340  0.33080  1.0000 0.0500849438
C   C7        1.0  0.29850  0.80630  0.45380  1.0000 -0.1382673878
C   C8        1.0  0.38320  0.78350  0.58070  1.0000 -0.1068633991
C   C9        1.0  0.52810  0.73540  0.59090  1.0000 -0.0051608776
C   C10       1.0  0.59280  0.72000  0.47090  1.0000 -0.119717871
C   C11       1.0  0.50750  0.74260  0.34190  1.0000 -0.0446955311
C   C12       1.0  0.57590  0.71550  0.21490  1.0000 0.5802429643
C   C13       1.0  0.61070  0.69820  0.72780  1.0000 0.5529579249
C   C14       1.0  0.94820  0.16520  0.04660  1.0000 0.0760149238
C   C15       1.0  0.78380  0.08190  0.01480  1.0000 -0.119717871
C   C16       1.0  0.68010  0.09810  0.89360  1.0000 -0.0727906647
C   C17       1.0  0.74380  0.19640  0.80430  1.0000 0.0406250832
C   C18       1.0  0.91010  0.27340  0.84220  1.0000 0.0178141043
C   C19       1.0  0.64410  0.21660  0.66920  1.0000 0.0500849438
C   C20       1.0  0.70150  0.19370  0.54620  1.0000 -0.1382673878
C   C21       1.0  0.61680  0.21650  0.41930  1.0000 -0.1068633991
C   C22       1.0  0.47190  0.26460  0.40910  1.0000 -0.0051608776
C   C23       1.0  0.40720  0.28000  0.52910  1.0000 -0.119717871
C   C24       1.0  0.49250  0.25740  0.65810  1.0000 -0.0446955311
C   C25       1.0  0.42410  0.28450  0.78510  1.0000 0.5802429643
C   C26       1.0  0.38930  0.30180  0.27220  1.0000 0.5529579249
N   N1        1.0  0.98750  0.73880  0.03720  1.0000 -0.2603864345
N   N2        1.0  0.01250  0.26120  0.96280  1.0000 -0.2603864345
O   O1        1.0  0.48750  0.61700  0.10850  1.0000 -0.5582266125
O   O2        1.0  0.71990  0.78560  0.21640  1.0000 -0.5582266125
O   O3        1.0  0.73070  0.63590  0.73540  1.0000 -0.5792784068
O   O4        1.0  0.55420  0.72820  0.83530  1.0000 -0.5582266125
O   O5        1.0  0.51250  0.38300  0.89150  1.0000 -0.5582266125
O   O6        1.0  0.28010  0.21440  0.78360  1.0000 -0.5582266125
O   O7        1.0  0.26930  0.36410  0.26460  1.0000 -0.5792784068
O   O8        1.0  0.44580  0.27180  0.16470  1.0000 -0.5582266125
