# DDEC6 charges by PACMAN v1.1 (https://github.com/mtap-research/PACMAN-charge/)
data_2018[Zn][hcb]2[ASR]1
_chemical_formula_sum              "Zn4 H64 C80 N8 O16"
_cell_length_a       14.9214
_cell_length_b       14.9214
_cell_length_c       16.9902
_cell_angle_alpha    74.7438
_cell_angle_beta     105.256
_cell_angle_gamma    91.0429

_symmetry_space_group_name_H-M    "P 1"
_symmetry_Int_Tables_number       1

loop_
  _symmetry_equiv_pos_as_xyz
  'x, y, z'

loop_
  _atom_site_type_symbol
  _atom_site_label
  _atom_site_symmetry_multiplicity
  _atom_site_fract_x
  _atom_site_fract_y
  _atom_site_fract_z
  _atom_site_occupancy
  _atom_site_charge
Zn  Zn1       1.0  0.68232  0.02504  0.91832  1.0000 0.7566900672
Zn  Zn2       1.0  0.02504  0.68232  0.58168  1.0000 0.7566900672
Zn  Zn3       1.0  0.31768  0.97496  0.08168  1.0000 0.7566900672
Zn  Zn4       1.0  0.97496  0.31768  0.41832  1.0000 0.7566900672
H   H1        1.0  0.58782  0.18568  0.06271  1.0000 0.1204127069
H   H2        1.0  0.53932  0.35894  0.13378  1.0000 0.1204127069
H   H3        1.0  0.49261  0.26849  0.11074  1.0000 0.1095701955
H   H4        1.0  0.53050  0.26992  0.20768  1.0000 0.1095701955
H   H5        1.0  0.71126  0.30386  0.24727  1.0000 0.1287374915
H   H6        1.0  0.86742  0.15792  0.15779  1.0000 0.1204127069
H   H7        1.0  0.59069  0.95717  0.76933  1.0000 0.1204127069
H   H8        1.0  0.48191  0.06189  0.91495  1.0000 0.1095701955
H   H9        1.0  0.44502  0.94982  0.68129  1.0000 0.1419591925
H   H10       1.0  0.33382  0.06116  0.82928  1.0000 0.1287374915
H   H11       1.0  0.31003  0.90143  0.63796  1.0000 0.1419591925
H   H12       1.0  0.21434  0.10210  0.71793  1.0000 0.1287374915
H   H13       1.0  0.16121  0.89053  0.55826  1.0000 0.1287374915
H   H14       1.0  0.06612  0.08852  0.63680  1.0000 0.1204127069
H   H15       1.0  0.99447  0.90702  0.54921  1.0000 0.1287374915
H   H16       1.0  0.95812  0.99848  0.56713  1.0000 0.1287374915
H   H17       1.0  0.18568  0.58782  0.43729  1.0000 0.1204127069
H   H18       1.0  0.35894  0.53932  0.36622  1.0000 0.1204127069
H   H19       1.0  0.26849  0.49261  0.38926  1.0000 0.1095701955
H   H20       1.0  0.26992  0.53050  0.29232  1.0000 0.1095701955
H   H21       1.0  0.30386  0.71126  0.25273  1.0000 0.1287374915
H   H22       1.0  0.15792  0.86742  0.34221  1.0000 0.1204127069
H   H23       1.0  0.95717  0.59069  0.73067  1.0000 0.1204127069
H   H24       1.0  0.06189  0.48191  0.58505  1.0000 0.1095701955
H   H25       1.0  0.94982  0.44502  0.81871  1.0000 0.1419591925
H   H26       1.0  0.06116  0.33382  0.67072  1.0000 0.1287374915
H   H27       1.0  0.90143  0.31003  0.86204  1.0000 0.1419591925
H   H28       1.0  0.10210  0.21434  0.78207  1.0000 0.1287374915
H   H29       1.0  0.89053  0.16121  0.94174  1.0000 0.1287374915
H   H30       1.0  0.08852  0.06612  0.86320  1.0000 0.1204127069
H   H31       1.0  0.90702  0.99447  0.95079  1.0000 0.1287374915
H   H32       1.0  0.99848  0.95812  0.93287  1.0000 0.1287374915
H   H33       1.0  0.41218  0.81432  0.93729  1.0000 0.1204127069
H   H34       1.0  0.46068  0.64106  0.86622  1.0000 0.1204127069
H   H35       1.0  0.50739  0.73151  0.88926  1.0000 0.1095701955
H   H36       1.0  0.46950  0.73008  0.79232  1.0000 0.1095701955
H   H37       1.0  0.28874  0.69614  0.75273  1.0000 0.1287374915
H   H38       1.0  0.13258  0.84208  0.84221  1.0000 0.1204127069
H   H39       1.0  0.40931  0.04283  0.23067  1.0000 0.1095701955
H   H40       1.0  0.51809  0.93811  0.08505  1.0000 0.1095701955
H   H41       1.0  0.55498  0.05018  0.31871  1.0000 0.1419591925
H   H42       1.0  0.66618  0.93884  0.17072  1.0000 0.1287374915
H   H43       1.0  0.68997  0.09857  0.36204  1.0000 0.1419591925
H   H44       1.0  0.78566  0.89790  0.28207  1.0000 0.1287374915
H   H45       1.0  0.83879  0.10947  0.44174  1.0000 0.1287374915
H   H46       1.0  0.93388  0.91148  0.36320  1.0000 0.1204127069
H   H47       1.0  0.00553  0.09299  0.45079  1.0000 0.1287374915
H   H48       1.0  0.04188  0.00152  0.43287  1.0000 0.1287374915
H   H49       1.0  0.81432  0.41218  0.56271  1.0000 0.1204127069
H   H50       1.0  0.64106  0.46068  0.63378  1.0000 0.1204127069
H   H51       1.0  0.73151  0.50739  0.61074  1.0000 0.1095701955
H   H52       1.0  0.73008  0.46950  0.70768  1.0000 0.1095701955
H   H53       1.0  0.69614  0.28874  0.74727  1.0000 0.1287374915
H   H54       1.0  0.84208  0.13258  0.65779  1.0000 0.1204127069
H   H55       1.0  0.04283  0.40931  0.26933  1.0000 0.1095701955
H   H56       1.0  0.93811  0.51809  0.41495  1.0000 0.1095701955
H   H57       1.0  0.05018  0.55498  0.18129  1.0000 0.1419591925
H   H58       1.0  0.93884  0.66618  0.32928  1.0000 0.1287374915
H   H59       1.0  0.09857  0.68997  0.13796  1.0000 0.1419591925
H   H60       1.0  0.89790  0.78566  0.21793  1.0000 0.1287374915
H   H61       1.0  0.10947  0.83879  0.05826  1.0000 0.1287374915
H   H62       1.0  0.91148  0.93388  0.13680  1.0000 0.1204127069
H   H63       1.0  0.09298  0.00553  0.04921  1.0000 0.1287374915
H   H64       1.0  0.00152  0.04188  0.06713  1.0000 0.1287374915
C   C1        1.0  0.73549  0.10583  0.04357  1.0000 0.5385252209
C   C2        1.0  0.64252  0.19858  0.10070  1.0000 -0.1813141782
C   C3        1.0  0.63530  0.25236  0.15410  1.0000 0.1419591925
C   C4        1.0  0.54120  0.29080  0.15130  1.0000 -0.4245518177
C   C5        1.0  0.71545  0.26829  0.20938  1.0000 -0.1813141782
C   C6        1.0  0.80183  0.23443  0.21185  1.0000 -0.032011618
C   C7        1.0  0.88818  0.25166  0.27441  1.0000 0.5385252209
C   C8        1.0  0.80840  0.18142  0.15713  1.0000 -0.1563619515
C   C9        1.0  0.72842  0.16312  0.10173  1.0000 -0.032011618
C   C10       1.0  0.53750  0.97814  0.78160  1.0000 0.0805097548
C   C11       1.0  0.47411  0.03965  0.86619  1.0000 0.0805097548
C   C12       1.0  0.45088  0.97376  0.72887  1.0000 -0.1859404473
C   C13       1.0  0.38555  0.03863  0.81590  1.0000 -0.1998872338
C   C14       1.0  0.37224  0.00438  0.74532  1.0000 0.1095701955
C   C15       1.0  0.27765  0.00023  0.69012  1.0000 0.1095701955
C   C16       1.0  0.26029  0.93901  0.63977  1.0000 -0.1813141782
C   C17       1.0  0.20406  0.05686  0.68670  1.0000 -0.1998872338
C   C18       1.0  0.17235  0.93243  0.59287  1.0000 0.0202317428
C   C19       1.0  0.11618  0.04876  0.63890  1.0000 -0.0088166595
C   C20       1.0  0.00470  0.97364  0.54510  1.0000 -0.1516136332
C   C21       1.0  0.10583  0.73549  0.45643  1.0000 0.5385252209
C   C22       1.0  0.19858  0.64252  0.39930  1.0000 -0.1813141782
C   C23       1.0  0.25236  0.63530  0.34590  1.0000 0.1419591925
C   C24       1.0  0.29080  0.54120  0.34870  1.0000 -0.4253047733
C   C25       1.0  0.26829  0.71545  0.29062  1.0000 -0.1813141782
C   C26       1.0  0.23443  0.80183  0.28815  1.0000 -0.032011618
C   C27       1.0  0.25166  0.88818  0.22559  1.0000 0.5385252209
C   C28       1.0  0.18142  0.80840  0.34287  1.0000 -0.1563619515
C   C29       1.0  0.16312  0.72842  0.39827  1.0000 -0.032011618
C   C30       1.0  0.97814  0.53750  0.71840  1.0000 0.0805097548
C   C31       1.0  0.03965  0.47411  0.63381  1.0000 0.0805097548
C   C32       1.0  0.97376  0.45088  0.77113  1.0000 -0.1859404473
C   C33       1.0  0.03863  0.38555  0.68410  1.0000 -0.1998872338
C   C34       1.0  0.00438  0.37224  0.75468  1.0000 0.1095701955
C   C35       1.0  0.00023  0.27765  0.80988  1.0000 0.1095701955
C   C36       1.0  0.93901  0.26029  0.86023  1.0000 -0.1813141782
C   C37       1.0  0.05686  0.20406  0.81330  1.0000 -0.1998872338
C   C38       1.0  0.93243  0.17235  0.90713  1.0000 0.0202317428
C   C39       1.0  0.04876  0.11618  0.86110  1.0000 -0.0088166595
C   C40       1.0  0.97364  0.00470  0.95490  1.0000 -0.1516136332
C   C41       1.0  0.26451  0.89417  0.95643  1.0000 0.5385252209
C   C42       1.0  0.35748  0.80142  0.89930  1.0000 -0.1813141782
C   C43       1.0  0.36470  0.74764  0.84590  1.0000 0.1419591925
C   C44       1.0  0.45880  0.70920  0.84870  1.0000 -0.4245518177
C   C45       1.0  0.28455  0.73171  0.79062  1.0000 -0.1813141782
C   C46       1.0  0.19817  0.76557  0.78815  1.0000 -0.032011618
C   C47       1.0  0.11182  0.74834  0.72559  1.0000 0.5385252209
C   C48       1.0  0.19160  0.81858  0.84287  1.0000 -0.1563619515
C   C49       1.0  0.27158  0.83688  0.89827  1.0000 -0.032011618
C   C50       1.0  0.46250  0.02186  0.21840  1.0000 0.0805097548
C   C51       1.0  0.52589  0.96035  0.13381  1.0000 0.0805097548
C   C52       1.0  0.54912  0.02624  0.27113  1.0000 -0.1859404473
C   C53       1.0  0.61445  0.96137  0.18410  1.0000 -0.1998872338
C   C54       1.0  0.62776  0.99562  0.25468  1.0000 0.1095701955
C   C55       1.0  0.72235  0.99977  0.30988  1.0000 0.1095701955
C   C56       1.0  0.73971  0.06099  0.36023  1.0000 -0.1813141782
C   C57       1.0  0.79594  0.94314  0.31330  1.0000 -0.1998872338
C   C58       1.0  0.82765  0.06757  0.40713  1.0000 0.0202317428
C   C59       1.0  0.88382  0.95124  0.36110  1.0000 -0.0088166595
C   C60       1.0  0.99530  0.02636  0.45490  1.0000 -0.1516136332
C   C61       1.0  0.89417  0.26451  0.54357  1.0000 0.5385252209
C   C62       1.0  0.80142  0.35748  0.60070  1.0000 -0.1813141782
C   C63       1.0  0.74764  0.36470  0.65410  1.0000 0.1419591925
C   C64       1.0  0.70920  0.45880  0.65130  1.0000 -0.4245518177
C   C65       1.0  0.73171  0.28455  0.70938  1.0000 -0.1813141782
C   C66       1.0  0.76557  0.19817  0.71185  1.0000 -0.032011618
C   C67       1.0  0.74834  0.11182  0.77441  1.0000 0.5385252209
C   C68       1.0  0.81858  0.19160  0.65713  1.0000 -0.1563619515
C   C69       1.0  0.83688  0.27158  0.60173  1.0000 -0.032011618
C   C70       1.0  0.02186  0.46250  0.28160  1.0000 0.0805097548
C   C71       1.0  0.96035  0.52589  0.36619  1.0000 0.0805097548
C   C72       1.0  0.02624  0.54912  0.22887  1.0000 -0.1859404473
C   C73       1.0  0.96137  0.61445  0.31590  1.0000 -0.1998872338
C   C74       1.0  0.99562  0.62776  0.24532  1.0000 0.1095701955
C   C75       1.0  0.99977  0.72235  0.19012  1.0000 0.1095701955
C   C76       1.0  0.06099  0.73971  0.13977  1.0000 -0.1813141782
C   C77       1.0  0.94314  0.79594  0.18670  1.0000 -0.1998872338
C   C78       1.0  0.06757  0.82765  0.09287  1.0000 0.0202317428
C   C79       1.0  0.95124  0.88382  0.13890  1.0000 -0.0088166595
C   C80       1.0  0.02636  0.99530  0.04510  1.0000 -0.1516136332
N   N1        1.0  0.54946  0.01092  0.84978  1.0000 -0.2399490727
N   N2        1.0  0.10094  0.98486  0.59514  1.0000 0.1026171734
N   N3        1.0  0.01092  0.54946  0.65022  1.0000 -0.2399490727
N   N4        1.0  0.98486  0.10094  0.90486  1.0000 0.1026171734
N   N5        1.0  0.45054  0.98908  0.15022  1.0000 -0.2399490727
N   N6        1.0  0.89906  0.01514  0.40486  1.0000 0.1026171734
N   N7        1.0  0.98908  0.45054  0.34978  1.0000 -0.2399490727
N   N8        1.0  0.01514  0.89906  0.09514  1.0000 0.1026171734
O   O1        1.0  0.65859  0.08943  0.99685  1.0000 -0.5540827839
O   O2        1.0  0.81317  0.07709  0.04193  1.0000 -0.5965362518
O   O3        1.0  0.87445  0.27907  0.33490  1.0000 -0.5589969186
O   O4        1.0  0.96591  0.23957  0.26496  1.0000 -0.575626704
O   O5        1.0  0.08943  0.65859  0.50315  1.0000 -0.5540827839
O   O6        1.0  0.07709  0.81317  0.45807  1.0000 -0.5965362518
O   O7        1.0  0.27907  0.87445  0.16510  1.0000 -0.5589969186
O   O8        1.0  0.23957  0.96591  0.23504  1.0000 -0.575626704
O   O9        1.0  0.34141  0.91057  0.00315  1.0000 -0.5540827839
O   O10       1.0  0.18683  0.92291  0.95807  1.0000 -0.5965362518
O   O11       1.0  0.12555  0.72093  0.66510  1.0000 -0.5589969186
O   O12       1.0  0.03409  0.76043  0.73504  1.0000 -0.575626704
O   O13       1.0  0.91057  0.34141  0.49685  1.0000 -0.5540827839
O   O14       1.0  0.92291  0.18683  0.54193  1.0000 -0.5965362518
O   O15       1.0  0.72093  0.12555  0.83490  1.0000 -0.5589969186
O   O16       1.0  0.76043  0.03409  0.76496  1.0000 -0.575626704
