# DDEC6 charges by PACMAN v1.1 (https://github.com/mtap-research/PACMAN-charge/)
data_2018[Cr][sql]2[ASR]1
_chemical_formula_sum              "Cr4 H32 C68 O16 F24"
_cell_length_a       12.6965
_cell_length_b       6.9713
_cell_length_c       23.843
_cell_angle_alpha    90
_cell_angle_beta     119.058
_cell_angle_gamma    90

_symmetry_space_group_name_H-M    "P 1"
_symmetry_Int_Tables_number       1

loop_
  _symmetry_equiv_pos_as_xyz
  'x, y, z'

loop_
  _atom_site_type_symbol
  _atom_site_label
  _atom_site_symmetry_multiplicity
  _atom_site_fract_x
  _atom_site_fract_y
  _atom_site_fract_z
  _atom_site_occupancy
  _atom_site_charge
Cr  Cr1       1.0  0.44024  0.36300  0.98301  1.0000 0.8270173213
Cr  Cr2       1.0  0.55976  0.36300  0.51699  1.0000 0.8270173213
Cr  Cr3       1.0  0.55976  0.63700  0.01699  1.0000 0.8270173213
Cr  Cr4       1.0  0.44024  0.63700  0.48301  1.0000 0.8270173213
H   H1        1.0  0.16042  0.53856  0.78669  1.0000 0.1291695229
H   H2        1.0  0.03852  0.68444  0.68802  1.0000 0.118518081
H   H3        1.0  0.25993  0.14518  0.74541  1.0000 0.1291695229
H   H4        1.0  0.37934  0.00091  0.84467  1.0000 0.1356585762
H   H5        1.0  0.17809  0.51453  0.55056  1.0000 0.1291695229
H   H6        1.0  0.05427  0.38846  0.58820  1.0000 0.118518081
H   H7        1.0  0.25722  0.90473  0.64265  1.0000 0.118518081
H   H8        1.0  0.38092  0.03259  0.60501  1.0000 0.1291695229
H   H9        1.0  0.83958  0.53856  0.71331  1.0000 0.1291695229
H   H10       1.0  0.96148  0.68444  0.81198  1.0000 0.118518081
H   H11       1.0  0.74007  0.14518  0.75459  1.0000 0.1291695229
H   H12       1.0  0.62066  0.00091  0.65533  1.0000 0.1356585762
H   H13       1.0  0.82191  0.51453  0.94944  1.0000 0.1291695229
H   H14       1.0  0.94573  0.38846  0.91180  1.0000 0.118518081
H   H15       1.0  0.74278  0.90473  0.85735  1.0000 0.118518081
H   H16       1.0  0.61908  0.03259  0.89499  1.0000 0.1291695229
H   H17       1.0  0.83958  0.46144  0.21331  1.0000 0.1291695229
H   H18       1.0  0.96148  0.31556  0.31198  1.0000 0.118518081
H   H19       1.0  0.74007  0.85482  0.25459  1.0000 0.1291695229
H   H20       1.0  0.62066  0.99909  0.15533  1.0000 0.1356585762
H   H21       1.0  0.82191  0.48547  0.44944  1.0000 0.1291695229
H   H22       1.0  0.94573  0.61154  0.41180  1.0000 0.118518081
H   H23       1.0  0.74278  0.09527  0.35735  1.0000 0.118518081
H   H24       1.0  0.61908  0.96741  0.39499  1.0000 0.1291695229
H   H25       1.0  0.16042  0.46144  0.28669  1.0000 0.1291695229
H   H26       1.0  0.03852  0.31556  0.18802  1.0000 0.118518081
H   H27       1.0  0.25993  0.85482  0.24541  1.0000 0.1291695229
H   H28       1.0  0.37934  0.99909  0.34467  1.0000 0.1356585762
H   H29       1.0  0.17809  0.48547  0.05056  1.0000 0.1291695229
H   H30       1.0  0.05427  0.61154  0.08820  1.0000 0.118518081
H   H31       1.0  0.25722  0.09527  0.14265  1.0000 0.118518081
H   H32       1.0  0.38092  0.96741  0.10501  1.0000 0.1291695229
C   C1        1.0  0.35945  0.65950  0.88885  1.0000 0.5869950196
C   C2        1.0  0.28196  0.75450  0.82546  1.0000 -0.0132592182
C   C3        1.0  0.18073  0.66260  0.77843  1.0000 -0.0884333178
C   C4        1.0  0.10832  0.74870  0.71942  1.0000 -0.150163249
C   C5        1.0  0.13763  0.92740  0.70633  1.0000 0.0884011239
C   C6        1.0  0.23946  0.02140  0.75376  1.0000 -0.1358977528
C   C7        1.0  0.31067  0.93550  0.81277  1.0000 -0.0884333178
C   C8        1.0  0.06095  0.03520  0.64195  1.0000 -0.2715436527
C   C9        1.0  0.98034  0.17860  0.65364  1.0000 0.667104303
C   C10       1.0  0.97692  0.89930  0.58682  1.0000 0.6643951377
C   C11       1.0  0.36676  0.36390  0.54646  1.0000 0.5848953268
C   C12       1.0  0.29074  0.28480  0.57334  1.0000 -0.0132592182
C   C13       1.0  0.19387  0.39000  0.56907  1.0000 -0.0884333178
C   C14       1.0  0.12019  0.31530  0.59149  1.0000 -0.150163249
C   C15       1.0  0.14275  0.13110  0.61915  1.0000 0.0884011239
C   C16       1.0  0.24047  0.02880  0.62377  1.0000 -0.1358977528
C   C17       1.0  0.31424  0.10460  0.60124  1.0000 -0.0884333178
C   C18       1.0  0.64055  0.65950  0.61115  1.0000 0.5869950196
C   C19       1.0  0.71804  0.75450  0.67454  1.0000 -0.0132592182
C   C20       1.0  0.81927  0.66260  0.72157  1.0000 -0.0884333178
C   C21       1.0  0.89168  0.74870  0.78058  1.0000 -0.150163249
C   C22       1.0  0.86237  0.92740  0.79367  1.0000 0.0884011239
C   C23       1.0  0.76054  0.02140  0.74624  1.0000 -0.1358977528
C   C24       1.0  0.68933  0.93550  0.68723  1.0000 -0.0884333178
C   C25       1.0  0.93905  0.03520  0.85805  1.0000 -0.2715436527
C   C26       1.0  0.01966  0.17860  0.84636  1.0000 0.667104303
C   C27       1.0  0.02308  0.89930  0.91318  1.0000 0.6643951377
C   C28       1.0  0.63324  0.36390  0.95354  1.0000 0.5848953268
C   C29       1.0  0.70926  0.28480  0.92666  1.0000 -0.0132592182
C   C30       1.0  0.80613  0.39000  0.93093  1.0000 -0.0884333178
C   C31       1.0  0.87981  0.31530  0.90851  1.0000 -0.150163249
C   C32       1.0  0.85725  0.13110  0.88085  1.0000 0.0884011239
C   C33       1.0  0.75953  0.02880  0.87623  1.0000 -0.1358977528
C   C34       1.0  0.68576  0.10460  0.89876  1.0000 -0.0884333178
C   C35       1.0  0.64055  0.34050  0.11115  1.0000 0.5869950196
C   C36       1.0  0.71804  0.24550  0.17454  1.0000 -0.0132592182
C   C37       1.0  0.81927  0.33740  0.22157  1.0000 -0.0884333178
C   C38       1.0  0.89168  0.25130  0.28058  1.0000 -0.150163249
C   C39       1.0  0.86237  0.07260  0.29367  1.0000 0.0884011239
C   C40       1.0  0.76054  0.97860  0.24624  1.0000 -0.1358977528
C   C41       1.0  0.68933  0.06450  0.18723  1.0000 -0.0884333178
C   C42       1.0  0.93905  0.96480  0.35805  1.0000 -0.2715436527
C   C43       1.0  0.01966  0.82140  0.34636  1.0000 0.667104303
C   C44       1.0  0.02308  0.10070  0.41318  1.0000 0.6643951377
C   C45       1.0  0.63324  0.63610  0.45354  1.0000 0.5848953268
C   C46       1.0  0.70926  0.71520  0.42666  1.0000 -0.0132592182
C   C47       1.0  0.80613  0.61000  0.43093  1.0000 -0.0884333178
C   C48       1.0  0.87981  0.68470  0.40851  1.0000 -0.150163249
C   C49       1.0  0.85725  0.86890  0.38085  1.0000 0.0884011239
C   C50       1.0  0.75953  0.97120  0.37623  1.0000 -0.1358977528
C   C51       1.0  0.68576  0.89540  0.39876  1.0000 -0.0884333178
C   C52       1.0  0.35945  0.34050  0.38885  1.0000 0.5869950196
C   C53       1.0  0.28196  0.24550  0.32546  1.0000 -0.0132592182
C   C54       1.0  0.18073  0.33740  0.27843  1.0000 -0.0884333178
C   C55       1.0  0.10832  0.25130  0.21942  1.0000 -0.150163249
C   C56       1.0  0.13763  0.07260  0.20633  1.0000 0.0884011239
C   C57       1.0  0.23946  0.97860  0.25376  1.0000 -0.1358977528
C   C58       1.0  0.31067  0.06450  0.31277  1.0000 -0.0884333178
C   C59       1.0  0.06095  0.96480  0.14195  1.0000 -0.2715436527
C   C60       1.0  0.98034  0.82140  0.15364  1.0000 0.667104303
C   C61       1.0  0.97692  0.10070  0.08682  1.0000 0.6643951377
C   C62       1.0  0.36676  0.63610  0.04646  1.0000 0.5848953268
C   C63       1.0  0.29074  0.71520  0.07334  1.0000 -0.0132592182
C   C64       1.0  0.19387  0.61000  0.06907  1.0000 -0.0884333178
C   C65       1.0  0.12019  0.68470  0.09149  1.0000 -0.150163249
C   C66       1.0  0.14275  0.86890  0.11915  1.0000 0.0884011239
C   C67       1.0  0.24047  0.97120  0.12377  1.0000 -0.1358977528
C   C68       1.0  0.31424  0.89540  0.10124  1.0000 -0.0884333178
O   O1        1.0  0.44637  0.75750  0.93127  1.0000 -0.5410764226
O   O2        1.0  0.33502  0.49100  0.89773  1.0000 -0.5410764226
O   O3        1.0  0.45357  0.26090  0.55134  1.0000 -0.5410764226
O   O4        1.0  0.34218  0.52830  0.52087  1.0000 -0.5410764226
O   O5        1.0  0.55363  0.75750  0.56873  1.0000 -0.5410764226
O   O6        1.0  0.66498  0.49100  0.60227  1.0000 -0.5410764226
O   O7        1.0  0.54643  0.26090  0.94866  1.0000 -0.5410764226
O   O8        1.0  0.65782  0.52830  0.97913  1.0000 -0.5410764226
O   O9        1.0  0.55363  0.24250  0.06873  1.0000 -0.5410764226
O   O10       1.0  0.66498  0.50900  0.10227  1.0000 -0.5410764226
O   O11       1.0  0.54643  0.73910  0.44866  1.0000 -0.5410764226
O   O12       1.0  0.65782  0.47170  0.47913  1.0000 -0.5410764226
O   O13       1.0  0.44637  0.24250  0.43127  1.0000 -0.5410764226
O   O14       1.0  0.33502  0.50900  0.39773  1.0000 -0.5410764226
O   O15       1.0  0.45357  0.73910  0.05134  1.0000 -0.5410764226
O   O16       1.0  0.34218  0.47170  0.02087  1.0000 -0.5410764226
F   F1        1.0  0.04747  0.31770  0.69392  1.0000 -0.1884925084
F   F2        1.0  0.89778  0.26570  0.59987  1.0000 -0.1884925084
F   F3        1.0  0.92121  0.09220  0.67977  1.0000 -0.1884925084
F   F4        1.0  0.03949  0.75310  0.58057  1.0000 -0.1884925084
F   F5        1.0  0.92352  0.99120  0.53072  1.0000 -0.1844146707
F   F6        1.0  0.88825  0.82070  0.59465  1.0000 -0.1884925084
F   F7        1.0  0.95253  0.31770  0.80608  1.0000 -0.1884925084
F   F8        1.0  0.10222  0.26570  0.90013  1.0000 -0.1884925084
F   F9        1.0  0.07879  0.09220  0.82023  1.0000 -0.1884925084
F   F10       1.0  0.96051  0.75310  0.91943  1.0000 -0.1884925084
F   F11       1.0  0.07648  0.99120  0.96928  1.0000 -0.1844146707
F   F12       1.0  0.11175  0.82070  0.90535  1.0000 -0.1884925084
F   F13       1.0  0.95253  0.68230  0.30608  1.0000 -0.1884925084
F   F14       1.0  0.10222  0.73430  0.40013  1.0000 -0.1884925084
F   F15       1.0  0.07879  0.90780  0.32023  1.0000 -0.1884925084
F   F16       1.0  0.96051  0.24690  0.41943  1.0000 -0.1884925084
F   F17       1.0  0.07648  0.00880  0.46928  1.0000 -0.1844146707
F   F18       1.0  0.11175  0.17930  0.40535  1.0000 -0.1884925084
F   F19       1.0  0.04747  0.68230  0.19392  1.0000 -0.1884925084
F   F20       1.0  0.89778  0.73430  0.09987  1.0000 -0.1884925084
F   F21       1.0  0.92121  0.90780  0.17977  1.0000 -0.1884925084
F   F22       1.0  0.03949  0.24690  0.08057  1.0000 -0.1884925084
F   F23       1.0  0.92352  0.00880  0.03072  1.0000 -0.1844146707
F   F24       1.0  0.88825  0.17930  0.09465  1.0000 -0.1884925084
