# DDEC6 charges by PACMAN v1.1 (https://github.com/mtap-research/PACMAN-charge/)
data_2018[Yb][bex]2[ASR]1
_chemical_formula_sum              "Yb2 H16 C32 N2 O14"
_cell_length_a       10.301
_cell_length_b       10.533
_cell_length_c       13.772
_cell_angle_alpha    69.22
_cell_angle_beta     68.58
_cell_angle_gamma    82.14

_symmetry_space_group_name_H-M    "P 1"
_symmetry_Int_Tables_number       1

loop_
  _symmetry_equiv_pos_as_xyz
  'x, y, z'

loop_
  _atom_site_type_symbol
  _atom_site_label
  _atom_site_symmetry_multiplicity
  _atom_site_fract_x
  _atom_site_fract_y
  _atom_site_fract_z
  _atom_site_occupancy
  _atom_site_charge
Yb  Yb1       1.0  0.06376  0.64306  0.30192  1.0000 1.9463930749
Yb  Yb2       1.0  0.93624  0.35694  0.69808  1.0000 1.9463930749
H   H1        1.0  0.42590  0.80330  0.26920  1.0000 0.1205962658
H   H2        1.0  0.56260  0.87800  0.33280  1.0000 0.1037215241
H   H3        1.0  0.25050  0.97720  0.79240  1.0000 0.1291775279
H   H4        1.0  0.23430  0.87720  0.96420  1.0000 0.1205962658
H   H5        1.0  0.67110  0.68980  0.56880  1.0000 0.1145765954
H   H6        1.0  0.76740  0.26900  0.46270  1.0000 0.1291775279
H   H7        1.0  0.69520  0.11570  0.41690  1.0000 0.1145765954
H   H8        1.0  0.52410  0.86840  0.59730  1.0000 0.1037215241
H   H9        1.0  0.57410  0.19670  0.73080  1.0000 0.1205962658
H   H10       1.0  0.43740  0.12200  0.66720  1.0000 0.1037215241
H   H11       1.0  0.74950  0.02280  0.20760  1.0000 0.1291775279
H   H12       1.0  0.76570  0.12280  0.03580  1.0000 0.1205962658
H   H13       1.0  0.32890  0.31020  0.43120  1.0000 0.1145765954
H   H14       1.0  0.23260  0.73100  0.53730  1.0000 0.1291775279
H   H15       1.0  0.30480  0.88430  0.58310  1.0000 0.1145765954
H   H16       1.0  0.47590  0.13160  0.40270  1.0000 0.1037215241
C   C1        1.0  0.27860  0.81030  0.15530  1.0000 0.5755818807
C   C2        1.0  0.39570  0.90330  0.07250  1.0000 -0.1018542699
C   C3        1.0  0.48900  0.93980  0.11250  1.0000 0.0515467687
C   C4        1.0  0.48800  0.87380  0.22220  1.0000 -0.1404241002
C   C5        1.0  0.57400  0.91200  0.25800  1.0000 -0.0885101757
C   C6        1.0  0.31600  0.99500  0.81730  1.0000 -0.0797376312
C   C7        1.0  0.30700  0.93700  0.91710  1.0000 -0.1196180447
C   C8        1.0  0.40420  0.96200  0.95870  1.0000 0.0583686405
C   C9        1.0  0.77830  0.48210  0.51510  1.0000 0.6714818501
C   C10       1.0  0.54670  0.59580  0.52840  1.0000 0.0420519807
C   C11       1.0  0.59080  0.39150  0.47910  1.0000 0.0515467687
C   C12       1.0  0.63470  0.49220  0.50680  1.0000 -0.1196180447
C   C13       1.0  0.58480  0.69600  0.56020  1.0000 -0.1462521679
C   C14       1.0  0.67900  0.27790  0.45740  1.0000 -0.1339161
C   C15       1.0  0.63650  0.18750  0.43030  1.0000 -0.0885101757
C   C16       1.0  0.49570  0.80270  0.57870  1.0000 -0.1018542699
C   C17       1.0  0.72140  0.18970  0.84470  1.0000 0.5755818807
C   C18       1.0  0.60430  0.09670  0.92750  1.0000 -0.1018542699
C   C19       1.0  0.51100  0.06020  0.88750  1.0000 0.0515467687
C   C20       1.0  0.51200  0.12620  0.77780  1.0000 -0.1404241002
C   C21       1.0  0.42600  0.08800  0.74200  1.0000 -0.0885101757
C   C22       1.0  0.68400  0.00500  0.18270  1.0000 -0.0797376312
C   C23       1.0  0.69300  0.06300  0.08290  1.0000 -0.1196180447
C   C24       1.0  0.59580  0.03800  0.04130  1.0000 0.0583686405
C   C25       1.0  0.22170  0.51790  0.48490  1.0000 0.6714818501
C   C26       1.0  0.45330  0.40420  0.47160  1.0000 0.0420519807
C   C27       1.0  0.40920  0.60850  0.52090  1.0000 0.0515467687
C   C28       1.0  0.36530  0.50780  0.49320  1.0000 -0.1196180447
C   C29       1.0  0.41520  0.30400  0.43980  1.0000 -0.1462521679
C   C30       1.0  0.32100  0.72210  0.54260  1.0000 -0.1339161
C   C31       1.0  0.36350  0.81250  0.56970  1.0000 -0.0885101757
C   C32       1.0  0.50430  0.19730  0.42130  1.0000 -0.1018542699
N   N1        1.0  0.91170  0.83000  0.39400  1.0000 0.684670689
N   N2        1.0  0.08830  0.17000  0.60600  1.0000 0.684670689
O   O1        1.0  0.27880  0.69120  0.14880  1.0000 -0.664708016
O   O2        1.0  0.18040  0.84980  0.22110  1.0000 -0.5862852312
O   O3        1.0  0.87620  0.51880  0.42310  1.0000 -0.6915684915
O   O4        1.0  0.79070  0.43310  0.60470  1.0000 -0.6130636609
O   O5        1.0  0.99150  0.75080  0.43770  1.0000 -0.4613048262
O   O6        1.0  0.88980  0.81770  0.31610  1.0000 -0.4808981097
O   O7        1.0  0.84690  0.92100  0.43780  1.0000 -0.3996621645
O   O8        1.0  0.72120  0.30880  0.85120  1.0000 -0.664708016
O   O9        1.0  0.81960  0.15020  0.77890  1.0000 -0.5862852312
O   O10       1.0  0.12380  0.48120  0.57690  1.0000 -0.6915684915
O   O11       1.0  0.20930  0.56690  0.39530  1.0000 -0.6130636609
O   O12       1.0  0.00850  0.24920  0.56230  1.0000 -0.4613048262
O   O13       1.0  0.11020  0.18230  0.68390  1.0000 -0.4808981097
O   O14       1.0  0.15310  0.07900  0.56220  1.0000 -0.3996621645
