# DDEC6 charges by PACMAN v1.1 (https://github.com/mtap-research/PACMAN-charge/)
data_2018[Ho][nan]3[ASR]1
_chemical_formula_sum              "Ho6 H96 C168 O60"
_cell_length_a       15.245
_cell_length_b       15.245
_cell_length_c       26.2121
_cell_angle_alpha    90
_cell_angle_beta     90
_cell_angle_gamma    120

_symmetry_space_group_name_H-M    "P 1"
_symmetry_Int_Tables_number       1

loop_
  _symmetry_equiv_pos_as_xyz
  'x, y, z'

loop_
  _atom_site_type_symbol
  _atom_site_label
  _atom_site_symmetry_multiplicity
  _atom_site_fract_x
  _atom_site_fract_y
  _atom_site_fract_z
  _atom_site_occupancy
  _atom_site_charge
Ho  Ho1       1.0  0.50000  0.00000  0.57893  1.0000 2.0731104346
Ho  Ho2       1.0  0.50000  0.50000  0.91227  1.0000 2.0750318499
Ho  Ho3       1.0  0.00000  0.50000  0.24560  1.0000 2.0750318499
Ho  Ho4       1.0  0.50000  0.00000  0.42107  1.0000 2.0731104346
Ho  Ho5       1.0  0.00000  0.50000  0.08773  1.0000 2.0750318499
Ho  Ho6       1.0  0.50000  0.50000  0.75440  1.0000 2.0750318499
H   H1        1.0  0.04273  0.65420  0.59265  1.0000 0.1377496155
H   H2        1.0  0.64134  0.37635  0.61907  1.0000 0.1377496155
H   H3        1.0  0.20872  0.77838  0.57849  1.0000 0.1318625165
H   H4        1.0  0.99961  0.61260  0.44160  1.0000 0.1475615086
H   H5        1.0  0.16417  0.73588  0.42856  1.0000 0.1377496155
H   H6        1.0  0.79361  0.67626  0.63677  1.0000 0.1318625165
H   H7        1.0  0.90902  0.69117  0.57590  1.0000 0.1318625165
H   H8        1.0  0.75302  0.38995  0.55581  1.0000 0.1475615086
H   H9        1.0  0.61147  0.95727  0.92599  1.0000 0.1377496155
H   H10       1.0  0.73501  0.35866  0.95241  1.0000 0.1377496155
H   H11       1.0  0.56966  0.79128  0.91183  1.0000 0.1318625165
H   H12       1.0  0.61299  0.00039  0.77494  1.0000 0.1475615086
H   H13       1.0  0.57171  0.83583  0.76190  1.0000 0.1377496155
H   H14       1.0  0.88265  0.20639  0.97011  1.0000 0.1318625165
H   H15       1.0  0.78215  0.09098  0.90924  1.0000 0.1318625165
H   H16       1.0  0.63693  0.24698  0.88915  1.0000 0.1475615086
H   H17       1.0  0.34580  0.38853  0.25932  1.0000 0.1377496155
H   H18       1.0  0.62365  0.26499  0.28574  1.0000 0.1377496155
H   H19       1.0  0.22162  0.43034  0.24516  1.0000 0.1318625165
H   H20       1.0  0.38740  0.38701  0.10827  1.0000 0.1475615086
H   H21       1.0  0.26412  0.42829  0.09523  1.0000 0.1377496155
H   H22       1.0  0.32374  0.11735  0.30344  1.0000 0.1318625165
H   H23       1.0  0.30883  0.21785  0.24257  1.0000 0.1318625165
H   H24       1.0  0.61005  0.36307  0.22248  1.0000 0.1475615086
H   H25       1.0  0.95727  0.34580  0.59265  1.0000 0.1377496155
H   H26       1.0  0.35866  0.62365  0.61907  1.0000 0.1377496155
H   H27       1.0  0.79128  0.22162  0.57849  1.0000 0.1318625165
H   H28       1.0  0.00039  0.38740  0.44160  1.0000 0.1475615086
H   H29       1.0  0.83583  0.26412  0.42856  1.0000 0.1377496155
H   H30       1.0  0.20639  0.32374  0.63677  1.0000 0.1318625165
H   H31       1.0  0.09098  0.30883  0.57590  1.0000 0.1318625165
H   H32       1.0  0.24698  0.61005  0.55581  1.0000 0.1475615086
H   H33       1.0  0.38853  0.04273  0.92599  1.0000 0.1377496155
H   H34       1.0  0.26499  0.64134  0.95241  1.0000 0.1377496155
H   H35       1.0  0.43034  0.20872  0.91183  1.0000 0.1318625165
H   H36       1.0  0.38701  0.99961  0.77494  1.0000 0.1475615086
H   H37       1.0  0.42829  0.16417  0.76190  1.0000 0.1377496155
H   H38       1.0  0.11735  0.79361  0.97011  1.0000 0.1318625165
H   H39       1.0  0.21785  0.90902  0.90924  1.0000 0.1318625165
H   H40       1.0  0.36307  0.75302  0.88915  1.0000 0.1475615086
H   H41       1.0  0.65420  0.61147  0.25932  1.0000 0.1377496155
H   H42       1.0  0.37635  0.73501  0.28574  1.0000 0.1377496155
H   H43       1.0  0.77838  0.56966  0.24516  1.0000 0.1318625165
H   H44       1.0  0.61260  0.61299  0.10827  1.0000 0.1475615086
H   H45       1.0  0.73588  0.57171  0.09523  1.0000 0.1377496155
H   H46       1.0  0.67626  0.88265  0.30344  1.0000 0.1318625165
H   H47       1.0  0.69117  0.78215  0.24257  1.0000 0.1318625165
H   H48       1.0  0.38995  0.63693  0.22248  1.0000 0.1475615086
H   H49       1.0  0.38853  0.34580  0.40735  1.0000 0.1377496155
H   H50       1.0  0.26499  0.62365  0.38093  1.0000 0.1377496155
H   H51       1.0  0.43034  0.22162  0.42151  1.0000 0.1318625165
H   H52       1.0  0.38701  0.38740  0.55840  1.0000 0.1475615086
H   H53       1.0  0.42829  0.26412  0.57144  1.0000 0.1377496155
H   H54       1.0  0.11735  0.32374  0.36323  1.0000 0.1318625165
H   H55       1.0  0.21785  0.30883  0.42410  1.0000 0.1318625165
H   H56       1.0  0.36307  0.61005  0.44419  1.0000 0.1475615086
H   H57       1.0  0.65420  0.04273  0.07401  1.0000 0.1377496155
H   H58       1.0  0.37635  0.64134  0.04759  1.0000 0.1377496155
H   H59       1.0  0.77838  0.20872  0.08817  1.0000 0.1318625165
H   H60       1.0  0.61260  0.99961  0.22506  1.0000 0.1475615086
H   H61       1.0  0.73588  0.16417  0.23810  1.0000 0.1377496155
H   H62       1.0  0.67626  0.79361  0.02989  1.0000 0.1318625165
H   H63       1.0  0.69117  0.90902  0.09076  1.0000 0.1318625165
H   H64       1.0  0.38995  0.75302  0.11085  1.0000 0.1475615086
H   H65       1.0  0.95727  0.61147  0.74068  1.0000 0.1377496155
H   H66       1.0  0.35866  0.73501  0.71426  1.0000 0.1377496155
H   H67       1.0  0.79128  0.56966  0.75484  1.0000 0.1318625165
H   H68       1.0  0.00039  0.61299  0.89173  1.0000 0.1475615086
H   H69       1.0  0.83583  0.57171  0.90477  1.0000 0.1377496155
H   H70       1.0  0.20639  0.88265  0.69656  1.0000 0.1318625165
H   H71       1.0  0.09098  0.78215  0.75743  1.0000 0.1318625165
H   H72       1.0  0.24698  0.63693  0.77752  1.0000 0.1475615086
H   H73       1.0  0.61147  0.65420  0.40735  1.0000 0.1377496155
H   H74       1.0  0.73501  0.37635  0.38093  1.0000 0.1377496155
H   H75       1.0  0.56966  0.77838  0.42151  1.0000 0.1318625165
H   H76       1.0  0.61299  0.61260  0.55840  1.0000 0.1475615086
H   H77       1.0  0.57171  0.73588  0.57144  1.0000 0.1377496155
H   H78       1.0  0.88265  0.67626  0.36323  1.0000 0.1318625165
H   H79       1.0  0.78215  0.69117  0.42410  1.0000 0.1318625165
H   H80       1.0  0.63693  0.38995  0.44419  1.0000 0.1475615086
H   H81       1.0  0.34580  0.95727  0.07401  1.0000 0.1377496155
H   H82       1.0  0.62365  0.35866  0.04759  1.0000 0.1377496155
H   H83       1.0  0.22162  0.79128  0.08817  1.0000 0.1318625165
H   H84       1.0  0.38740  0.00039  0.22506  1.0000 0.1475615086
H   H85       1.0  0.26412  0.83583  0.23810  1.0000 0.1377496155
H   H86       1.0  0.32374  0.20639  0.02989  1.0000 0.1318625165
H   H87       1.0  0.30883  0.09098  0.09076  1.0000 0.1318625165
H   H88       1.0  0.61005  0.24698  0.11085  1.0000 0.1475615086
H   H89       1.0  0.04273  0.38853  0.74068  1.0000 0.1377496155
H   H90       1.0  0.64134  0.26499  0.71426  1.0000 0.1377496155
H   H91       1.0  0.20872  0.43034  0.75484  1.0000 0.1318625165
H   H92       1.0  0.99961  0.38701  0.89173  1.0000 0.1475615086
H   H93       1.0  0.16417  0.42829  0.90477  1.0000 0.1377496155
H   H94       1.0  0.79361  0.11735  0.69656  1.0000 0.1318625165
H   H95       1.0  0.90902  0.21785  0.75743  1.0000 0.1318625165
H   H96       1.0  0.75302  0.36307  0.77752  1.0000 0.1475615086
C   C1        1.0  0.63460  0.51690  0.67543  1.0000 0.5627392264
C   C2        1.0  0.20320  0.77340  0.50163  1.0000 -0.0367017431
C   C3        1.0  0.30890  0.85730  0.49273  1.0000 0.6534298392
C   C4        1.0  0.00500  0.62260  0.51873  1.0000 0.249061081
C   C5        1.0  0.06720  0.67140  0.55953  1.0000 -0.2118309183
C   C6        1.0  0.69500  0.43970  0.61023  1.0000 -0.0632089303
C   C7        1.0  0.16630  0.74610  0.55093  1.0000 -0.0632089303
C   C8        1.0  0.04130  0.64640  0.46923  1.0000 -0.1873936367
C   C9        1.0  0.70670  0.52540  0.63483  1.0000 -0.0367017431
C   C10       1.0  0.13940  0.72050  0.46173  1.0000 -0.0632089303
C   C11       1.0  0.78630  0.61830  0.62103  1.0000 -0.0729575871
C   C12       1.0  0.85530  0.62780  0.58453  1.0000 -0.2118309183
C   C13       1.0  0.76230  0.44750  0.57283  1.0000 -0.1873936367
C   C14       1.0  0.84350  0.54150  0.56103  1.0000 0.2619613143
C   C15       1.0  0.88230  0.36540  0.00877  1.0000 0.5627392264
C   C16       1.0  0.57020  0.79680  0.83497  1.0000 -0.0367017431
C   C17       1.0  0.54840  0.69110  0.82607  1.0000 0.6534298392
C   C18       1.0  0.61760  0.99500  0.85207  1.0000 0.249061081
C   C19       1.0  0.60420  0.93280  0.89287  1.0000 -0.2118309183
C   C20       1.0  0.74470  0.30500  0.94357  1.0000 -0.0632089303
C   C21       1.0  0.57980  0.83370  0.88427  1.0000 -0.0632089303
C   C22       1.0  0.60510  0.95870  0.80257  1.0000 -0.1873936367
C   C23       1.0  0.81870  0.29330  0.96817  1.0000 -0.0367017431
C   C24       1.0  0.58110  0.86060  0.79507  1.0000 -0.0632089303
C   C25       1.0  0.83200  0.21370  0.95437  1.0000 -0.0729575871
C   C26       1.0  0.77250  0.14470  0.91787  1.0000 -0.2118309183
C   C27       1.0  0.68520  0.23770  0.90617  1.0000 -0.1873936367
C   C28       1.0  0.69800  0.15650  0.89437  1.0000 0.2619613143
C   C29       1.0  0.48310  0.11770  0.34210  1.0000 0.5627392264
C   C30       1.0  0.22660  0.42980  0.16830  1.0000 -0.0367017431
C   C31       1.0  0.14270  0.45160  0.15940  1.0000 0.6534298392
C   C32       1.0  0.37740  0.38240  0.18540  1.0000 0.249061081
C   C33       1.0  0.32860  0.39580  0.22620  1.0000 -0.2118309183
C   C34       1.0  0.56030  0.25530  0.27690  1.0000 -0.0632089303
C   C35       1.0  0.25390  0.42020  0.21760  1.0000 -0.0632089303
C   C36       1.0  0.35360  0.39490  0.13590  1.0000 -0.1873936367
C   C37       1.0  0.47460  0.18130  0.30150  1.0000 -0.0367017431
C   C38       1.0  0.27950  0.41890  0.12840  1.0000 -0.0632089303
C   C39       1.0  0.38170  0.16800  0.28770  1.0000 -0.0729575871
C   C40       1.0  0.37220  0.22750  0.25120  1.0000 -0.2118309183
C   C41       1.0  0.55250  0.31480  0.23950  1.0000 -0.1873936367
C   C42       1.0  0.45850  0.30200  0.22770  1.0000 0.2619613143
C   C43       1.0  0.36540  0.48310  0.67543  1.0000 0.5627392264
C   C44       1.0  0.79680  0.22660  0.50163  1.0000 -0.0367017431
C   C45       1.0  0.69110  0.14270  0.49273  1.0000 0.6534298392
C   C46       1.0  0.99500  0.37740  0.51873  1.0000 0.249061081
C   C47       1.0  0.93280  0.32860  0.55953  1.0000 -0.2118309183
C   C48       1.0  0.30500  0.56030  0.61023  1.0000 -0.0632089303
C   C49       1.0  0.83370  0.25390  0.55093  1.0000 -0.0632089303
C   C50       1.0  0.95870  0.35360  0.46923  1.0000 -0.1873936367
C   C51       1.0  0.29330  0.47460  0.63483  1.0000 -0.0367017431
C   C52       1.0  0.86060  0.27950  0.46173  1.0000 -0.0632089303
C   C53       1.0  0.21370  0.38170  0.62103  1.0000 -0.0729575871
C   C54       1.0  0.14470  0.37220  0.58453  1.0000 -0.2118309183
C   C55       1.0  0.23770  0.55250  0.57283  1.0000 -0.1873936367
C   C56       1.0  0.15650  0.45850  0.56103  1.0000 0.2619613143
C   C57       1.0  0.11770  0.63460  0.00877  1.0000 0.5627392264
C   C58       1.0  0.42980  0.20320  0.83497  1.0000 -0.0367017431
C   C59       1.0  0.45160  0.30890  0.82607  1.0000 0.6534298392
C   C60       1.0  0.38240  0.00500  0.85207  1.0000 0.249061081
C   C61       1.0  0.39580  0.06720  0.89287  1.0000 -0.2118309183
C   C62       1.0  0.25530  0.69500  0.94357  1.0000 -0.0632089303
C   C63       1.0  0.42020  0.16630  0.88427  1.0000 -0.0632089303
C   C64       1.0  0.39490  0.04130  0.80257  1.0000 -0.1873936367
C   C65       1.0  0.18130  0.70670  0.96817  1.0000 -0.0367017431
C   C66       1.0  0.41890  0.13940  0.79507  1.0000 -0.0632089303
C   C67       1.0  0.16800  0.78630  0.95437  1.0000 -0.0729575871
C   C68       1.0  0.22750  0.85530  0.91787  1.0000 -0.2118309183
C   C69       1.0  0.31480  0.76230  0.90617  1.0000 -0.1873936367
C   C70       1.0  0.30200  0.84350  0.89437  1.0000 0.2619613143
C   C71       1.0  0.51690  0.88230  0.34210  1.0000 0.5627392264
C   C72       1.0  0.77340  0.57020  0.16830  1.0000 -0.0367017431
C   C73       1.0  0.85730  0.54840  0.15940  1.0000 0.6534298392
C   C74       1.0  0.62260  0.61760  0.18540  1.0000 0.249061081
C   C75       1.0  0.67140  0.60420  0.22620  1.0000 -0.2118309183
C   C76       1.0  0.43970  0.74470  0.27690  1.0000 -0.0632089303
C   C77       1.0  0.74610  0.57980  0.21760  1.0000 -0.0632089303
C   C78       1.0  0.64640  0.60510  0.13590  1.0000 -0.1873936367
C   C79       1.0  0.52540  0.81870  0.30150  1.0000 -0.0367017431
C   C80       1.0  0.72050  0.58110  0.12840  1.0000 -0.0632089303
C   C81       1.0  0.61830  0.83200  0.28770  1.0000 -0.0729575871
C   C82       1.0  0.62780  0.77250  0.25120  1.0000 -0.2118309183
C   C83       1.0  0.44750  0.68520  0.23950  1.0000 -0.1873936367
C   C84       1.0  0.54150  0.69800  0.22770  1.0000 0.2619613143
C   C85       1.0  0.11770  0.48310  0.32457  1.0000 0.5627392264
C   C86       1.0  0.42980  0.22660  0.49837  1.0000 -0.0367017431
C   C87       1.0  0.45160  0.14270  0.50727  1.0000 0.6534298392
C   C88       1.0  0.38240  0.37740  0.48127  1.0000 0.249061081
C   C89       1.0  0.39580  0.32860  0.44047  1.0000 -0.2118309183
C   C90       1.0  0.25530  0.56030  0.38977  1.0000 -0.0632089303
C   C91       1.0  0.42020  0.25390  0.44907  1.0000 -0.0632089303
C   C92       1.0  0.39490  0.35360  0.53077  1.0000 -0.1873936367
C   C93       1.0  0.18130  0.47460  0.36517  1.0000 -0.0367017431
C   C94       1.0  0.41890  0.27950  0.53827  1.0000 -0.0632089303
C   C95       1.0  0.16800  0.38170  0.37897  1.0000 -0.0729575871
C   C96       1.0  0.22750  0.37220  0.41547  1.0000 -0.2118309183
C   C97       1.0  0.31480  0.55250  0.42717  1.0000 -0.1873936367
C   C98       1.0  0.30200  0.45850  0.43897  1.0000 0.2619613143
C   C99       1.0  0.51690  0.63460  0.99123  1.0000 0.5627392264
C   C100      1.0  0.77340  0.20320  0.16503  1.0000 -0.0367017431
C   C101      1.0  0.85730  0.30890  0.17393  1.0000 0.6534298392
C   C102      1.0  0.62260  0.00500  0.14793  1.0000 0.249061081
C   C103      1.0  0.67140  0.06720  0.10713  1.0000 -0.2118309183
C   C104      1.0  0.43970  0.69500  0.05643  1.0000 -0.0632089303
C   C105      1.0  0.74610  0.16630  0.11573  1.0000 -0.0632089303
C   C106      1.0  0.64640  0.04130  0.19743  1.0000 -0.1873936367
C   C107      1.0  0.52540  0.70670  0.03183  1.0000 -0.0367017431
C   C108      1.0  0.72050  0.13940  0.20493  1.0000 -0.0632089303
C   C109      1.0  0.61830  0.78630  0.04563  1.0000 -0.0729575871
C   C110      1.0  0.62780  0.85530  0.08213  1.0000 -0.2118309183
C   C111      1.0  0.44750  0.76230  0.09383  1.0000 -0.1873936367
C   C112      1.0  0.54150  0.84350  0.10563  1.0000 0.2619613143
C   C113      1.0  0.36540  0.88230  0.65790  1.0000 0.5627392264
C   C114      1.0  0.79680  0.57020  0.83170  1.0000 -0.0367017431
C   C115      1.0  0.69110  0.54840  0.84060  1.0000 0.6534298392
C   C116      1.0  0.99500  0.61760  0.81460  1.0000 0.249061081
C   C117      1.0  0.93280  0.60420  0.77380  1.0000 -0.2118309183
C   C118      1.0  0.30500  0.74470  0.72310  1.0000 -0.0632089303
C   C119      1.0  0.83370  0.57980  0.78240  1.0000 -0.0632089303
C   C120      1.0  0.95870  0.60510  0.86410  1.0000 -0.1873936367
C   C121      1.0  0.29330  0.81870  0.69850  1.0000 -0.0367017431
C   C122      1.0  0.86060  0.58110  0.87160  1.0000 -0.0632089303
C   C123      1.0  0.21370  0.83200  0.71230  1.0000 -0.0729575871
C   C124      1.0  0.14470  0.77250  0.74880  1.0000 -0.2118309183
C   C125      1.0  0.23770  0.68520  0.76050  1.0000 -0.1873936367
C   C126      1.0  0.15650  0.69800  0.77230  1.0000 0.2619613143
C   C127      1.0  0.88230  0.51690  0.32457  1.0000 0.5627392264
C   C128      1.0  0.57020  0.77340  0.49837  1.0000 -0.0367017431
C   C129      1.0  0.54840  0.85730  0.50727  1.0000 0.6534298392
C   C130      1.0  0.61760  0.62260  0.48127  1.0000 0.249061081
C   C131      1.0  0.60420  0.67140  0.44047  1.0000 -0.2118309183
C   C132      1.0  0.74470  0.43970  0.38977  1.0000 -0.0632089303
C   C133      1.0  0.57980  0.74610  0.44907  1.0000 -0.0632089303
C   C134      1.0  0.60510  0.64640  0.53077  1.0000 -0.1873936367
C   C135      1.0  0.81870  0.52540  0.36517  1.0000 -0.0367017431
C   C136      1.0  0.58110  0.72050  0.53827  1.0000 -0.0632089303
C   C137      1.0  0.83200  0.61830  0.37897  1.0000 -0.0729575871
C   C138      1.0  0.77250  0.62780  0.41547  1.0000 -0.2118309183
C   C139      1.0  0.68520  0.44750  0.42717  1.0000 -0.1873936367
C   C140      1.0  0.69800  0.54150  0.43897  1.0000 0.2619613143
C   C141      1.0  0.48310  0.36540  0.99123  1.0000 0.5627392264
C   C142      1.0  0.22660  0.79680  0.16503  1.0000 -0.0367017431
C   C143      1.0  0.14270  0.69110  0.17393  1.0000 0.6534298392
C   C144      1.0  0.37740  0.99500  0.14793  1.0000 0.249061081
C   C145      1.0  0.32860  0.93280  0.10713  1.0000 -0.2118309183
C   C146      1.0  0.56030  0.30500  0.05643  1.0000 -0.0632089303
C   C147      1.0  0.25390  0.83370  0.11573  1.0000 -0.0632089303
C   C148      1.0  0.35360  0.95870  0.19743  1.0000 -0.1873936367
C   C149      1.0  0.47460  0.29330  0.03183  1.0000 -0.0367017431
C   C150      1.0  0.27950  0.86060  0.20493  1.0000 -0.0632089303
C   C151      1.0  0.38170  0.21370  0.04563  1.0000 -0.0729575871
C   C152      1.0  0.37220  0.14470  0.08213  1.0000 -0.2118309183
C   C153      1.0  0.55250  0.23770  0.09383  1.0000 -0.1873936367
C   C154      1.0  0.45850  0.15650  0.10563  1.0000 0.2619613143
C   C155      1.0  0.63460  0.11770  0.65790  1.0000 0.5627392264
C   C156      1.0  0.20320  0.42980  0.83170  1.0000 -0.0367017431
C   C157      1.0  0.30890  0.45160  0.84060  1.0000 0.6534298392
C   C158      1.0  0.00500  0.38240  0.81460  1.0000 0.249061081
C   C159      1.0  0.06720  0.39580  0.77380  1.0000 -0.2118309183
C   C160      1.0  0.69500  0.25530  0.72310  1.0000 -0.0632089303
C   C161      1.0  0.16630  0.42020  0.78240  1.0000 -0.0632089303
C   C162      1.0  0.04130  0.39490  0.86410  1.0000 -0.1873936367
C   C163      1.0  0.70670  0.18130  0.69850  1.0000 -0.0367017431
C   C164      1.0  0.13940  0.41890  0.87160  1.0000 -0.0632089303
C   C165      1.0  0.78630  0.16800  0.71230  1.0000 -0.0729575871
C   C166      1.0  0.85530  0.22750  0.74880  1.0000 -0.2118309183
C   C167      1.0  0.76230  0.31480  0.76050  1.0000 -0.1873936367
C   C168      1.0  0.84350  0.30200  0.77230  1.0000 0.2619613143
O   O1        1.0  0.56320  0.43160  0.68952  1.0000 -0.6071198253
O   O2        1.0  0.33580  0.88690  0.44716  1.0000 -0.6360327868
O   O3        1.0  0.64350  0.59620  0.69663  1.0000 -0.6071198253
O   O4        1.0  0.36610  0.89480  0.53044  1.0000 -0.6813821265
O   O5        1.0  0.90610  0.54190  0.52313  1.0000 -0.2022550249
O   O6        1.0  0.86840  0.43680  0.02286  1.0000 -0.6071198253
O   O7        1.0  0.55110  0.66420  0.78050  1.0000 -0.6360327868
O   O8        1.0  0.95270  0.35650  0.02997  1.0000 -0.6071198253
O   O9        1.0  0.52870  0.63390  0.86378  1.0000 -0.6813821265
O   O10       1.0  0.63580  0.09390  0.85647  1.0000 -0.2022550249
O   O11       1.0  0.56840  0.13160  0.35619  1.0000 -0.6071198253
O   O12       1.0  0.11310  0.44890  0.11383  1.0000 -0.6360327868
O   O13       1.0  0.40380  0.04730  0.36330  1.0000 -0.6071198253
O   O14       1.0  0.10520  0.47130  0.19711  1.0000 -0.6813821265
O   O15       1.0  0.45810  0.36420  0.18980  1.0000 -0.2022550249
O   O16       1.0  0.43680  0.56840  0.68952  1.0000 -0.6071198253
O   O17       1.0  0.66420  0.11310  0.44716  1.0000 -0.6360327868
O   O18       1.0  0.35650  0.40380  0.69663  1.0000 -0.6071198253
O   O19       1.0  0.63390  0.10520  0.53044  1.0000 -0.6813821265
O   O20       1.0  0.09390  0.45810  0.52313  1.0000 -0.2022550249
O   O21       1.0  0.13160  0.56320  0.02286  1.0000 -0.6071198253
O   O22       1.0  0.44890  0.33580  0.78050  1.0000 -0.6360327868
O   O23       1.0  0.04730  0.64350  0.02997  1.0000 -0.6071198253
O   O24       1.0  0.47130  0.36610  0.86378  1.0000 -0.6813821265
O   O25       1.0  0.36420  0.90610  0.85647  1.0000 -0.2022550249
O   O26       1.0  0.43160  0.86840  0.35619  1.0000 -0.6071198253
O   O27       1.0  0.88690  0.55110  0.11383  1.0000 -0.6360327868
O   O28       1.0  0.59620  0.95270  0.36330  1.0000 -0.6071198253
O   O29       1.0  0.89480  0.52870  0.19711  1.0000 -0.6813821265
O   O30       1.0  0.54190  0.63580  0.18980  1.0000 -0.2022550249
O   O31       1.0  0.13160  0.56840  0.31048  1.0000 -0.6071198253
O   O32       1.0  0.44890  0.11310  0.55284  1.0000 -0.6360327868
O   O33       1.0  0.04730  0.40380  0.30337  1.0000 -0.6071198253
O   O34       1.0  0.47130  0.10520  0.46956  1.0000 -0.6813821265
O   O35       1.0  0.36420  0.45810  0.47687  1.0000 -0.2022550249
O   O36       1.0  0.43160  0.56320  0.97714  1.0000 -0.6071198253
O   O37       1.0  0.88690  0.33580  0.21950  1.0000 -0.6360327868
O   O38       1.0  0.59620  0.64350  0.97003  1.0000 -0.6071198253
O   O39       1.0  0.89480  0.36610  0.13622  1.0000 -0.6813821265
O   O40       1.0  0.54190  0.90610  0.14353  1.0000 -0.2022550249
O   O41       1.0  0.43680  0.86840  0.64381  1.0000 -0.6071198253
O   O42       1.0  0.66420  0.55110  0.88617  1.0000 -0.6360327868
O   O43       1.0  0.35650  0.95270  0.63670  1.0000 -0.6071198253
O   O44       1.0  0.63390  0.52870  0.80289  1.0000 -0.6813821265
O   O45       1.0  0.09390  0.63580  0.81020  1.0000 -0.2022550249
O   O46       1.0  0.86840  0.43160  0.31048  1.0000 -0.6071198253
O   O47       1.0  0.55110  0.88690  0.55284  1.0000 -0.6360327868
O   O48       1.0  0.95270  0.59620  0.30337  1.0000 -0.6071198253
O   O49       1.0  0.52870  0.89480  0.46956  1.0000 -0.6813821265
O   O50       1.0  0.63580  0.54190  0.47687  1.0000 -0.2022550249
O   O51       1.0  0.56840  0.43680  0.97714  1.0000 -0.6071198253
O   O52       1.0  0.11310  0.66420  0.21950  1.0000 -0.6360327868
O   O53       1.0  0.40380  0.35650  0.97003  1.0000 -0.6071198253
O   O54       1.0  0.10520  0.63390  0.13622  1.0000 -0.6813821265
O   O55       1.0  0.45810  0.09390  0.14353  1.0000 -0.2022550249
O   O56       1.0  0.56320  0.13160  0.64381  1.0000 -0.6071198253
O   O57       1.0  0.33580  0.44890  0.88617  1.0000 -0.6360327868
O   O58       1.0  0.64350  0.04730  0.63670  1.0000 -0.6071198253
O   O59       1.0  0.36610  0.47130  0.80289  1.0000 -0.6813821265
O   O60       1.0  0.90610  0.36420  0.81020  1.0000 -0.2022550249
