# DDEC6 charges by PACMAN v1.1 (https://github.com/mtap-research/PACMAN-charge/)
data_2018[Cd][nan]3[ASR]11
_chemical_formula_sum              "Cd6 H48 C88 N16 O24"
_cell_length_a       15.9053
_cell_length_b       15.9053
_cell_length_c       15.689
_cell_angle_alpha    70.1172
_cell_angle_beta     109.883
_cell_angle_gamma    128.66

_symmetry_space_group_name_H-M    "P 1"
_symmetry_Int_Tables_number       1

loop_
  _symmetry_equiv_pos_as_xyz
  'x, y, z'

loop_
  _atom_site_type_symbol
  _atom_site_label
  _atom_site_symmetry_multiplicity
  _atom_site_fract_x
  _atom_site_fract_y
  _atom_site_fract_z
  _atom_site_occupancy
  _atom_site_charge
Cd  Cd1       1.0  0.46147  0.76285  0.14952  1.0000 0.8845237551
Cd  Cd2       1.0  0.76285  0.46147  0.35048  1.0000 0.8853862939
Cd  Cd3       1.0  0.53853  0.23715  0.85048  1.0000 0.8853862939
Cd  Cd4       1.0  0.23715  0.53853  0.64952  1.0000 0.8853862939
Cd  Cd5       1.0  0.50000  0.00000  0.00000  1.0000 1.0960639773
Cd  Cd6       1.0  0.00000  0.50000  0.50000  1.0000 1.0960639773
H   H1        1.0  0.09120  0.96020  0.89440  1.0000 0.290858565
H   H2        1.0  0.94100  0.74120  0.14400  1.0000 0.1303579708
H   H3        1.0  0.62480  0.71380  0.29370  1.0000 0.1303579708
H   H4        1.0  0.75080  0.84660  0.01970  1.0000 0.1196704386
H   H5        1.0  0.17630  0.69010  0.24550  1.0000 0.1303579708
H   H6        1.0  0.55520  0.93320  0.84320  1.0000 0.1303579708
H   H7        1.0  0.17480  0.87920  0.99750  1.0000 0.1196704386
H   H8        1.0  0.80480  0.99340  0.76070  1.0000 0.1140228903
H   H9        1.0  0.65360  0.99680  0.72840  1.0000 0.1196704386
H   H10       1.0  0.33260  0.59260  0.31140  1.0000 0.1196704386
H   H11       1.0  0.34430  0.48430  0.44780  1.0000 0.1303579708
H   H12       1.0  0.64280  0.60960  0.42970  1.0000 0.1411216764
H   H13       1.0  0.96020  0.09120  0.60560  1.0000 0.290858565
H   H14       1.0  0.74120  0.94100  0.35600  1.0000 0.1303579708
H   H15       1.0  0.71380  0.62480  0.20630  1.0000 0.1303579708
H   H16       1.0  0.84660  0.75080  0.48030  1.0000 0.1196704386
H   H17       1.0  0.69010  0.17630  0.25450  1.0000 0.1303579708
H   H18       1.0  0.93320  0.55520  0.65680  1.0000 0.1303579708
H   H19       1.0  0.87920  0.17480  0.50250  1.0000 0.1196704386
H   H20       1.0  0.99340  0.80480  0.73930  1.0000 0.1140228903
H   H21       1.0  0.99680  0.65360  0.77160  1.0000 0.1196704386
H   H22       1.0  0.59260  0.33260  0.18860  1.0000 0.1196704386
H   H23       1.0  0.48430  0.34430  0.05220  1.0000 0.1303579708
H   H24       1.0  0.60960  0.64280  0.07030  1.0000 0.1411216764
H   H25       1.0  0.90880  0.03980  0.10560  1.0000 0.290858565
H   H26       1.0  0.05900  0.25880  0.85600  1.0000 0.1303579708
H   H27       1.0  0.37520  0.28620  0.70630  1.0000 0.1303579708
H   H28       1.0  0.24920  0.15340  0.98030  1.0000 0.1196704386
H   H29       1.0  0.82370  0.30990  0.75450  1.0000 0.1303579708
H   H30       1.0  0.44480  0.06680  0.15680  1.0000 0.1303579708
H   H31       1.0  0.82520  0.12080  0.00250  1.0000 0.1196704386
H   H32       1.0  0.19520  0.00660  0.23930  1.0000 0.1140228903
H   H33       1.0  0.34640  0.00320  0.27160  1.0000 0.1196704386
H   H34       1.0  0.66740  0.40740  0.68860  1.0000 0.1196704386
H   H35       1.0  0.65570  0.51570  0.55220  1.0000 0.1303579708
H   H36       1.0  0.35720  0.39040  0.57030  1.0000 0.1411216764
H   H37       1.0  0.03980  0.90880  0.39440  1.0000 0.290858565
H   H38       1.0  0.25880  0.05900  0.64400  1.0000 0.1303579708
H   H39       1.0  0.28620  0.37520  0.79370  1.0000 0.1303579708
H   H40       1.0  0.15340  0.24920  0.51970  1.0000 0.1196704386
H   H41       1.0  0.30990  0.82370  0.74550  1.0000 0.1303579708
H   H42       1.0  0.06680  0.44480  0.34320  1.0000 0.1303579708
H   H43       1.0  0.12080  0.82520  0.49750  1.0000 0.1196704386
H   H44       1.0  0.00660  0.19520  0.26070  1.0000 0.1140228903
H   H45       1.0  0.00320  0.34640  0.22840  1.0000 0.1196704386
H   H46       1.0  0.40740  0.66740  0.81140  1.0000 0.1196704386
H   H47       1.0  0.51570  0.65570  0.94780  1.0000 0.1303579708
H   H48       1.0  0.39040  0.35720  0.92970  1.0000 0.1411216764
C   C1        1.0  0.00330  0.75210  0.13770  1.0000 -0.116670111
C   C2        1.0  0.04922  0.70278  0.20780  1.0000 -0.0223185083
C   C3        1.0  0.57980  0.83820  0.01690  1.0000 0.5642455278
C   C4        1.0  0.56490  0.66390  0.32370  1.0000 0.0719119517
C   C5        1.0  0.73131  0.87709  0.96120  1.0000 -0.1467441902
C   C6        1.0  0.29520  0.81040  0.11170  1.0000 0.5835717378
C   C7        1.0  0.19212  0.78828  0.12090  1.0000 -0.0139147535
C   C8        1.0  0.14430  0.72190  0.19890  1.0000 -0.1081520373
C   C9        1.0  0.61370  0.92830  0.85590  1.0000 -0.1081520373
C   C10       1.0  0.99461  0.62979  0.29040  1.0000 0.5835717378
C   C11       1.0  0.64226  0.88194  0.94320  1.0000 -0.0446381474
C   C12       1.0  0.14353  0.83567  0.04990  1.0000 -0.1467441902
C   C13       1.0  0.99590  0.86750  0.98710  1.0000 0.2670995352
C   C14       1.0  0.79130  0.91670  0.89380  1.0000 0.0267295099
C   C15       1.0  0.04910  0.81770  0.05800  1.0000 0.0131165936
C   C16       1.0  0.88540  0.91120  0.91660  1.0000 0.2614878772
C   C17       1.0  0.76360  0.96440  0.80600  1.0000 -0.116670111
C   C18       1.0  0.67390  0.96790  0.78730  1.0000 -0.0884438696
C   C19       1.0  0.39550  0.59390  0.33333  1.0000 0.0866778104
C   C20       1.0  0.40340  0.53020  0.41680  1.0000 -0.1913527044
C   C21       1.0  0.49400  0.53280  0.45420  1.0000 0.1196704386
C   C22       1.0  0.57710  0.60270  0.40640  1.0000 -0.1843955012
C   C23       1.0  0.75210  0.00330  0.36230  1.0000 -0.116670111
C   C24       1.0  0.70278  0.04922  0.29220  1.0000 -0.0223185083
C   C25       1.0  0.83820  0.57980  0.48310  1.0000 0.5642455278
C   C26       1.0  0.66390  0.56490  0.17630  1.0000 0.0719119517
C   C27       1.0  0.87709  0.73131  0.53880  1.0000 -0.1467441902
C   C28       1.0  0.81040  0.29520  0.38830  1.0000 0.5835717378
C   C29       1.0  0.78828  0.19212  0.37910  1.0000 -0.0139147535
C   C30       1.0  0.72190  0.14430  0.30110  1.0000 -0.1081520373
C   C31       1.0  0.92830  0.61370  0.64410  1.0000 -0.1081520373
C   C32       1.0  0.62979  0.99461  0.20960  1.0000 0.5835717378
C   C33       1.0  0.88194  0.64226  0.55680  1.0000 -0.0451866591
C   C34       1.0  0.83567  0.14353  0.45010  1.0000 -0.1467441902
C   C35       1.0  0.86750  0.99590  0.51290  1.0000 0.2670995352
C   C36       1.0  0.91670  0.79130  0.60620  1.0000 0.0267295099
C   C37       1.0  0.81770  0.04910  0.44200  1.0000 0.0131165936
C   C38       1.0  0.91120  0.88540  0.58340  1.0000 0.2614878772
C   C39       1.0  0.96440  0.76360  0.69400  1.0000 -0.116670111
C   C40       1.0  0.96790  0.67390  0.71270  1.0000 -0.0884438696
C   C41       1.0  0.59390  0.39550  0.16667  1.0000 0.0866778104
C   C42       1.0  0.53020  0.40340  0.08320  1.0000 -0.1913527044
C   C43       1.0  0.53280  0.49400  0.04580  1.0000 0.1196704386
C   C44       1.0  0.60270  0.57710  0.09360  1.0000 -0.1843955012
C   C45       1.0  0.99670  0.24790  0.86230  1.0000 -0.116670111
C   C46       1.0  0.95078  0.29722  0.79220  1.0000 -0.0223185083
C   C47       1.0  0.42020  0.16180  0.98310  1.0000 0.5642455278
C   C48       1.0  0.43510  0.33610  0.67630  1.0000 0.0719119517
C   C49       1.0  0.26869  0.12291  0.03880  1.0000 -0.1448727491
C   C50       1.0  0.70480  0.18960  0.88830  1.0000 0.5835717378
C   C51       1.0  0.80788  0.21172  0.87910  1.0000 -0.0139147535
C   C52       1.0  0.85570  0.27810  0.80110  1.0000 -0.1081520373
C   C53       1.0  0.38630  0.07170  0.14410  1.0000 -0.1081520373
C   C54       1.0  0.00539  0.37021  0.70960  1.0000 0.5835717378
C   C55       1.0  0.35774  0.11806  0.05680  1.0000 -0.0451866591
C   C56       1.0  0.85647  0.16433  0.95010  1.0000 -0.1467441902
C   C57       1.0  0.00410  0.13250  0.01290  1.0000 0.2670995352
C   C58       1.0  0.20870  0.08330  0.10620  1.0000 0.0267295099
C   C59       1.0  0.95090  0.18230  0.94200  1.0000 0.0131165936
C   C60       1.0  0.11460  0.08880  0.08340  1.0000 0.2614878772
C   C61       1.0  0.23640  0.03560  0.19400  1.0000 -0.116670111
C   C62       1.0  0.32610  0.03210  0.21270  1.0000 -0.0884438696
C   C63       1.0  0.60450  0.40610  0.66667  1.0000 0.0866778104
C   C64       1.0  0.59660  0.46980  0.58320  1.0000 -0.1913527044
C   C65       1.0  0.50600  0.46720  0.54580  1.0000 0.1196704386
C   C66       1.0  0.42290  0.39730  0.59360  1.0000 -0.1843955012
C   C67       1.0  0.24790  0.99670  0.63770  1.0000 -0.116670111
C   C68       1.0  0.29722  0.95078  0.70780  1.0000 -0.0223185083
C   C69       1.0  0.16180  0.42020  0.51690  1.0000 0.5642455278
C   C70       1.0  0.33610  0.43510  0.82370  1.0000 0.0719119517
C   C71       1.0  0.12291  0.26869  0.46120  1.0000 -0.1467441902
C   C72       1.0  0.18960  0.70480  0.61170  1.0000 0.5835717378
C   C73       1.0  0.21172  0.80788  0.62090  1.0000 -0.0139147535
C   C74       1.0  0.27810  0.85570  0.69890  1.0000 -0.1081520373
C   C75       1.0  0.07170  0.38630  0.35590  1.0000 -0.1081520373
C   C76       1.0  0.37021  0.00539  0.79040  1.0000 0.5835717378
C   C77       1.0  0.11806  0.35774  0.44320  1.0000 -0.0451866591
C   C78       1.0  0.16433  0.85647  0.54990  1.0000 -0.1467441902
C   C79       1.0  0.13250  0.00410  0.48710  1.0000 0.2670995352
C   C80       1.0  0.08330  0.20870  0.39380  1.0000 0.0267295099
C   C81       1.0  0.18230  0.95090  0.55800  1.0000 0.0131165936
C   C82       1.0  0.08880  0.11460  0.41660  1.0000 0.2614878772
C   C83       1.0  0.03560  0.23640  0.30600  1.0000 -0.116670111
C   C84       1.0  0.03210  0.32610  0.28730  1.0000 -0.0884438696
C   C85       1.0  0.40610  0.60450  0.83333  1.0000 0.0866778104
C   C86       1.0  0.46980  0.59660  0.91680  1.0000 -0.1913527044
C   C87       1.0  0.46720  0.50600  0.95420  1.0000 0.1196704386
C   C88       1.0  0.39730  0.42290  0.90640  1.0000 -0.1843955012
N   N1        1.0  0.90451  0.85069  0.99370  1.0000 -0.4191242697
N   N2        1.0  0.96280  0.96760  0.86650  1.0000 -0.2760481628
N   N3        1.0  0.03380  0.93780  0.91220  1.0000 -0.158025937
N   N4        1.0  0.47336  0.65604  0.28410  1.0000 -0.2305643948
N   N5        1.0  0.85069  0.90451  0.50630  1.0000 -0.4191242697
N   N6        1.0  0.96760  0.96280  0.63350  1.0000 -0.2760481628
N   N7        1.0  0.93780  0.03380  0.58780  1.0000 -0.158025937
N   N8        1.0  0.65604  0.47336  0.21590  1.0000 -0.2305643948
N   N9        1.0  0.09549  0.14931  0.00630  1.0000 -0.4191242697
N   N10       1.0  0.03720  0.03240  0.13350  1.0000 -0.2760481628
N   N11       1.0  0.96620  0.06220  0.08780  1.0000 -0.158025937
N   N12       1.0  0.52664  0.34396  0.71590  1.0000 -0.2305643948
N   N13       1.0  0.14931  0.09549  0.49370  1.0000 -0.4191242697
N   N14       1.0  0.03240  0.03720  0.36650  1.0000 -0.2760481628
N   N15       1.0  0.06220  0.96620  0.41220  1.0000 -0.158025937
N   N16       1.0  0.34396  0.52664  0.78410  1.0000 -0.2305643948
O   O1        1.0  0.59078  0.77682  0.08720  1.0000 -0.5405037942
O   O2        1.0  0.51205  0.86035  0.00650  1.0000 -0.5608094823
O   O3        1.0  0.33436  0.87084  0.04050  1.0000 -0.5608094823
O   O4        1.0  0.33471  0.76569  0.17600  1.0000 -0.5464627089
O   O5        1.0  0.03630  0.58630  0.35330  1.0000 -0.5464627089
O   O6        1.0  0.90747  0.61573  0.28940  1.0000 -0.5608094823
O   O7        1.0  0.77682  0.59078  0.41280  1.0000 -0.5405037942
O   O8        1.0  0.86035  0.51205  0.49350  1.0000 -0.5608094823
O   O9        1.0  0.87084  0.33436  0.45950  1.0000 -0.5608094823
O   O10       1.0  0.76569  0.33471  0.32400  1.0000 -0.5464627089
O   O11       1.0  0.58630  0.03630  0.14670  1.0000 -0.5464627089
O   O12       1.0  0.61573  0.90747  0.21060  1.0000 -0.5608094823
O   O13       1.0  0.40922  0.22318  0.91280  1.0000 -0.5405037942
O   O14       1.0  0.48795  0.13965  0.99350  1.0000 -0.5608094823
O   O15       1.0  0.66564  0.12916  0.95950  1.0000 -0.5608094823
O   O16       1.0  0.66529  0.23431  0.82400  1.0000 -0.5464627089
O   O17       1.0  0.96370  0.41370  0.64670  1.0000 -0.5464627089
O   O18       1.0  0.09253  0.38427  0.71060  1.0000 -0.5608094823
O   O19       1.0  0.22318  0.40922  0.58720  1.0000 -0.5405037942
O   O20       1.0  0.13965  0.48795  0.50650  1.0000 -0.5608094823
O   O21       1.0  0.12916  0.66564  0.54050  1.0000 -0.5608094823
O   O22       1.0  0.23431  0.66529  0.67600  1.0000 -0.5464627089
O   O23       1.0  0.41370  0.96370  0.85330  1.0000 -0.5464627089
O   O24       1.0  0.38427  0.09253  0.78940  1.0000 -0.5608094823
