# DDEC6 charges by PACMAN v1.1 (https://github.com/mtap-research/PACMAN-charge/)
data_2018[Tb][bcu]3[ASR]1
_chemical_formula_sum              "Tb8 H84 C128 N4 O56"
_cell_length_a       14.307
_cell_length_b       19.2299
_cell_length_c       24.2751
_cell_angle_alpha    90
_cell_angle_beta     90
_cell_angle_gamma    90

_symmetry_space_group_name_H-M    "P 1"
_symmetry_Int_Tables_number       1

loop_
  _symmetry_equiv_pos_as_xyz
  'x, y, z'

loop_
  _atom_site_type_symbol
  _atom_site_label
  _atom_site_symmetry_multiplicity
  _atom_site_fract_x
  _atom_site_fract_y
  _atom_site_fract_z
  _atom_site_occupancy
  _atom_site_charge
Tb  Tb1       1.0  0.72659  0.00000  0.48468  1.0000 2.0575298529
Tb  Tb2       1.0  0.27341  0.00000  0.51532  1.0000 2.0575298529
Tb  Tb3       1.0  0.22659  0.50000  0.01532  1.0000 2.0575298529
Tb  Tb4       1.0  0.77341  0.50000  0.98468  1.0000 2.0575298529
Tb  Tb5       1.0  0.50000  0.10439  0.50000  1.0000 2.0712994795
Tb  Tb6       1.0  0.00000  0.39561  0.00000  1.0000 2.0712994795
Tb  Tb7       1.0  0.50000  0.89561  0.50000  1.0000 2.0712994795
Tb  Tb8       1.0  0.00000  0.60439  0.00000  1.0000 2.0712994795
H   H1        1.0  0.84510  0.85170  0.63490  1.0000 0.1292262573
H   H2        1.0  0.56240  0.79540  0.71640  1.0000 0.1219335084
H   H3        1.0  0.56450  0.85910  0.63550  1.0000 0.1292262573
H   H4        1.0  0.91880  0.70250  0.82830  1.0000 0.1292262573
H   H5        1.0  0.66010  0.66360  0.88410  1.0000 0.1292262573
H   H6        1.0  0.59750  0.72010  0.80860  1.0000 0.1219335084
H   H7        1.0  0.94370  0.69280  0.72500  1.0000 0.1219335084
H   H8        1.0  0.86350  0.69810  0.68120  1.0000 0.1292262573
H   H9        1.0  0.95450  0.74270  0.67430  1.0000 0.1292262573
H   H10       1.0  0.89450  0.86430  0.77330  1.0000 0.3552130919
H   H11       1.0  0.15490  0.85170  0.36510  1.0000 0.1292262573
H   H12       1.0  0.43760  0.79540  0.28360  1.0000 0.1219335084
H   H13       1.0  0.43550  0.85910  0.36450  1.0000 0.1292262573
H   H14       1.0  0.08120  0.70250  0.17170  1.0000 0.1292262573
H   H15       1.0  0.33990  0.66360  0.11590  1.0000 0.1292262573
H   H16       1.0  0.40250  0.72010  0.19140  1.0000 0.1219335084
H   H17       1.0  0.05630  0.69280  0.27500  1.0000 0.1219335084
H   H18       1.0  0.13650  0.69810  0.31880  1.0000 0.1292262573
H   H19       1.0  0.04550  0.74270  0.32570  1.0000 0.1292262573
H   H20       1.0  0.10550  0.86430  0.22670  1.0000 0.3552130919
H   H21       1.0  0.34510  0.64830  0.86510  1.0000 0.1292262573
H   H22       1.0  0.06240  0.70460  0.78360  1.0000 0.1219335084
H   H23       1.0  0.06450  0.64090  0.86450  1.0000 0.1292262573
H   H24       1.0  0.41880  0.79750  0.67170  1.0000 0.1292262573
H   H25       1.0  0.16010  0.83640  0.61590  1.0000 0.1292262573
H   H26       1.0  0.09750  0.77990  0.69140  1.0000 0.1219335084
H   H27       1.0  0.44370  0.80720  0.77500  1.0000 0.1219335084
H   H28       1.0  0.36350  0.80190  0.81880  1.0000 0.1292262573
H   H29       1.0  0.45450  0.75730  0.82570  1.0000 0.1292262573
H   H30       1.0  0.39450  0.63570  0.72670  1.0000 0.3552130919
H   H31       1.0  0.65490  0.64830  0.13490  1.0000 0.1292262573
H   H32       1.0  0.93760  0.70460  0.21640  1.0000 0.1219335084
H   H33       1.0  0.93550  0.64090  0.13550  1.0000 0.1292262573
H   H34       1.0  0.58120  0.79750  0.32830  1.0000 0.1292262573
H   H35       1.0  0.83990  0.83640  0.38410  1.0000 0.1292262573
H   H36       1.0  0.90250  0.77990  0.30860  1.0000 0.1219335084
H   H37       1.0  0.55630  0.80720  0.22500  1.0000 0.1219335084
H   H38       1.0  0.63650  0.80190  0.18120  1.0000 0.1292262573
H   H39       1.0  0.54550  0.75730  0.17430  1.0000 0.1292262573
H   H40       1.0  0.60550  0.63570  0.27330  1.0000 0.3552130919
H   H41       1.0  0.15490  0.14830  0.36510  1.0000 0.1292262573
H   H42       1.0  0.43760  0.20460  0.28360  1.0000 0.1219335084
H   H43       1.0  0.43550  0.14090  0.36450  1.0000 0.1292262573
H   H44       1.0  0.08120  0.29750  0.17170  1.0000 0.1292262573
H   H45       1.0  0.33990  0.33640  0.11590  1.0000 0.1292262573
H   H46       1.0  0.40250  0.27990  0.19140  1.0000 0.1219335084
H   H47       1.0  0.05630  0.30720  0.27500  1.0000 0.1219335084
H   H48       1.0  0.13650  0.30190  0.31880  1.0000 0.1292262573
H   H49       1.0  0.04550  0.25730  0.32570  1.0000 0.1292262573
H   H50       1.0  0.10550  0.13570  0.22670  1.0000 0.3552130919
H   H51       1.0  0.84510  0.14830  0.63490  1.0000 0.1292262573
H   H52       1.0  0.56240  0.20460  0.71640  1.0000 0.1219335084
H   H53       1.0  0.56450  0.14090  0.63550  1.0000 0.1292262573
H   H54       1.0  0.91880  0.29750  0.82830  1.0000 0.1219335084
H   H55       1.0  0.66010  0.33640  0.88410  1.0000 0.1292262573
H   H56       1.0  0.59750  0.27990  0.80860  1.0000 0.1219335084
H   H57       1.0  0.94370  0.30720  0.72500  1.0000 0.1219335084
H   H58       1.0  0.86350  0.30190  0.68120  1.0000 0.1292262573
H   H59       1.0  0.95450  0.25730  0.67430  1.0000 0.1292262573
H   H60       1.0  0.89450  0.13570  0.77330  1.0000 0.3552130919
H   H61       1.0  0.65490  0.35170  0.13490  1.0000 0.1292262573
H   H62       1.0  0.93760  0.29540  0.21640  1.0000 0.1219335084
H   H63       1.0  0.93550  0.35910  0.13550  1.0000 0.1292262573
H   H64       1.0  0.58120  0.20250  0.32830  1.0000 0.1292262573
H   H65       1.0  0.83990  0.16360  0.38410  1.0000 0.1292262573
H   H66       1.0  0.90250  0.22010  0.30860  1.0000 0.1219335084
H   H67       1.0  0.55630  0.19280  0.22500  1.0000 0.1219335084
H   H68       1.0  0.63650  0.19810  0.18120  1.0000 0.1292262573
H   H69       1.0  0.54550  0.24270  0.17430  1.0000 0.1292262573
H   H70       1.0  0.60550  0.36430  0.27330  1.0000 0.3552130919
H   H71       1.0  0.34510  0.35170  0.86510  1.0000 0.1292262573
H   H72       1.0  0.06240  0.29540  0.78360  1.0000 0.1219335084
H   H73       1.0  0.06450  0.35910  0.86450  1.0000 0.1292262573
H   H74       1.0  0.41880  0.20250  0.67170  1.0000 0.1292262573
H   H75       1.0  0.16010  0.16360  0.61590  1.0000 0.1292262573
H   H76       1.0  0.09750  0.22010  0.69140  1.0000 0.1219335084
H   H77       1.0  0.44370  0.19280  0.77500  1.0000 0.1219335084
H   H78       1.0  0.36350  0.19810  0.81880  1.0000 0.1292262573
H   H79       1.0  0.45450  0.24270  0.82570  1.0000 0.1292262573
H   H80       1.0  0.39450  0.36430  0.72670  1.0000 0.3552130919
H   H81       1.0  0.56090  0.00000  0.42550  1.0000 0.3993136745
H   H82       1.0  0.43910  0.00000  0.57450  1.0000 0.3993136745
H   H83       1.0  0.06090  0.50000  0.07450  1.0000 0.3993136745
H   H84       1.0  0.93910  0.50000  0.92550  1.0000 0.3993136745
C   C1        1.0  0.70870  0.90380  0.57730  1.0000 0.6193981629
C   C2        1.0  0.70500  0.86210  0.62730  1.0000 -0.0376414869
C   C3        1.0  0.78830  0.84020  0.65120  1.0000 -0.1201118146
C   C4        1.0  0.78660  0.80130  0.69920  1.0000 -0.0746894542
C   C5        1.0  0.70250  0.78480  0.72360  1.0000 0.0320477818
C   C6        1.0  0.61910  0.80660  0.69980  1.0000 -0.1302108158
C   C7        1.0  0.62030  0.84490  0.65160  1.0000 -0.0760125834
C   C8        1.0  0.86650  0.78220  0.73340  1.0000 0.3362748559
C   C9        1.0  0.81790  0.74050  0.77876  1.0000 -0.045728254
C   C10       1.0  0.85430  0.70610  0.82420  1.0000 -0.1428322483
C   C11       1.0  0.79590  0.67710  0.86350  1.0000 -0.0269678772
C   C12       1.0  0.69950  0.68270  0.85765  1.0000 -0.0957187934
C   C13       1.0  0.66200  0.71680  0.81257  1.0000 -0.1452348668
C   C14       1.0  0.72060  0.74580  0.77340  1.0000 0.0320477818
C   C15       1.0  0.83500  0.63750  0.91087  1.0000 0.6343015294
C   C16       1.0  0.91120  0.72350  0.70050  1.0000 -0.5162374217
C   C17       1.0  0.29130  0.90380  0.42270  1.0000 0.6193981629
C   C18       1.0  0.29500  0.86210  0.37270  1.0000 -0.0376414869
C   C19       1.0  0.21170  0.84020  0.34880  1.0000 -0.1201118146
C   C20       1.0  0.21340  0.80130  0.30080  1.0000 -0.0746894542
C   C21       1.0  0.29750  0.78480  0.27640  1.0000 0.0320477818
C   C22       1.0  0.38090  0.80660  0.30020  1.0000 -0.1302108158
C   C23       1.0  0.37970  0.84490  0.34840  1.0000 -0.0760125834
C   C24       1.0  0.13350  0.78220  0.26660  1.0000 0.3362748559
C   C25       1.0  0.18210  0.74050  0.22124  1.0000 -0.045728254
C   C26       1.0  0.14570  0.70610  0.17580  1.0000 -0.1428322483
C   C27       1.0  0.20410  0.67710  0.13650  1.0000 -0.0269678772
C   C28       1.0  0.30050  0.68270  0.14235  1.0000 -0.0957187934
C   C29       1.0  0.33800  0.71680  0.18743  1.0000 -0.1428322483
C   C30       1.0  0.27940  0.74580  0.22660  1.0000 0.0320477818
C   C31       1.0  0.16500  0.63750  0.08913  1.0000 0.6343015294
C   C32       1.0  0.08880  0.72350  0.29950  1.0000 -0.5162374217
C   C33       1.0  0.20870  0.59620  0.92270  1.0000 0.6193981629
C   C34       1.0  0.20500  0.63790  0.87270  1.0000 -0.0376414869
C   C35       1.0  0.28830  0.65980  0.84880  1.0000 -0.1201118146
C   C36       1.0  0.28660  0.69870  0.80080  1.0000 -0.0760125834
C   C37       1.0  0.20250  0.71520  0.77640  1.0000 0.0320477818
C   C38       1.0  0.11910  0.69340  0.80020  1.0000 -0.1302108158
C   C39       1.0  0.12030  0.65510  0.84840  1.0000 -0.0760125834
C   C40       1.0  0.36650  0.71780  0.76660  1.0000 0.3362748559
C   C41       1.0  0.31790  0.75950  0.72124  1.0000 -0.045728254
C   C42       1.0  0.35430  0.79390  0.67580  1.0000 -0.1428322483
C   C43       1.0  0.29590  0.82290  0.63650  1.0000 -0.0269678772
C   C44       1.0  0.19950  0.81730  0.64235  1.0000 -0.0957187934
C   C45       1.0  0.16200  0.78320  0.68743  1.0000 -0.1428322483
C   C46       1.0  0.22060  0.75420  0.72660  1.0000 0.0320477818
C   C47       1.0  0.33500  0.86250  0.58913  1.0000 0.6343015294
C   C48       1.0  0.41120  0.77650  0.79950  1.0000 -0.5162374217
C   C49       1.0  0.79130  0.59620  0.07730  1.0000 0.6193981629
C   C50       1.0  0.79500  0.63790  0.12730  1.0000 -0.0376414869
C   C51       1.0  0.71170  0.65980  0.15120  1.0000 -0.1201118146
C   C52       1.0  0.71340  0.69870  0.19920  1.0000 -0.0746894542
C   C53       1.0  0.79750  0.71520  0.22360  1.0000 0.0320477818
C   C54       1.0  0.88090  0.69340  0.19980  1.0000 -0.1302108158
C   C55       1.0  0.87970  0.65510  0.15160  1.0000 -0.0760125834
C   C56       1.0  0.63350  0.71780  0.23340  1.0000 0.3362748559
C   C57       1.0  0.68210  0.75950  0.27876  1.0000 -0.045728254
C   C58       1.0  0.64570  0.79390  0.32420  1.0000 -0.1428322483
C   C59       1.0  0.70410  0.82290  0.36350  1.0000 -0.0269678772
C   C60       1.0  0.80050  0.81730  0.35765  1.0000 -0.0957187934
C   C61       1.0  0.83800  0.78320  0.31257  1.0000 -0.1428322483
C   C62       1.0  0.77940  0.75420  0.27340  1.0000 0.0320477818
C   C63       1.0  0.66500  0.86250  0.41087  1.0000 0.6343015294
C   C64       1.0  0.58880  0.77650  0.20050  1.0000 -0.5162374217
C   C65       1.0  0.29130  0.09620  0.42270  1.0000 0.6193981629
C   C66       1.0  0.29500  0.13790  0.37270  1.0000 -0.0376414869
C   C67       1.0  0.21170  0.15980  0.34880  1.0000 -0.1201118146
C   C68       1.0  0.21340  0.19870  0.30080  1.0000 -0.0760125834
C   C69       1.0  0.29750  0.21520  0.27640  1.0000 0.0320477818
C   C70       1.0  0.38090  0.19340  0.30020  1.0000 -0.1302108158
C   C71       1.0  0.37970  0.15510  0.34840  1.0000 -0.0760125834
C   C72       1.0  0.13350  0.21780  0.26660  1.0000 0.3362748559
C   C73       1.0  0.18210  0.25950  0.22124  1.0000 -0.045728254
C   C74       1.0  0.14570  0.29390  0.17580  1.0000 -0.1428322483
C   C75       1.0  0.20410  0.32290  0.13650  1.0000 -0.0269678772
C   C76       1.0  0.30050  0.31730  0.14235  1.0000 -0.0957187934
C   C77       1.0  0.33800  0.28320  0.18743  1.0000 -0.1428322483
C   C78       1.0  0.27940  0.25420  0.22660  1.0000 0.0320477818
C   C79       1.0  0.16500  0.36250  0.08913  1.0000 0.6343015294
C   C80       1.0  0.08880  0.27650  0.29950  1.0000 -0.5162374217
C   C81       1.0  0.70870  0.09620  0.57730  1.0000 0.6193981629
C   C82       1.0  0.70500  0.13790  0.62730  1.0000 -0.0376414869
C   C83       1.0  0.78830  0.15980  0.65120  1.0000 -0.1201118146
C   C84       1.0  0.78660  0.19870  0.69920  1.0000 -0.0760125834
C   C85       1.0  0.70250  0.21520  0.72360  1.0000 0.0320477818
C   C86       1.0  0.61910  0.19340  0.69980  1.0000 -0.1302108158
C   C87       1.0  0.62030  0.15510  0.65160  1.0000 -0.0760125834
C   C88       1.0  0.86650  0.21780  0.73340  1.0000 0.3362748559
C   C89       1.0  0.81790  0.25950  0.77876  1.0000 -0.045728254
C   C90       1.0  0.85430  0.29390  0.82420  1.0000 -0.1428322483
C   C91       1.0  0.79590  0.32290  0.86350  1.0000 -0.0269678772
C   C92       1.0  0.69950  0.31730  0.85765  1.0000 -0.0957187934
C   C93       1.0  0.66200  0.28320  0.81257  1.0000 -0.1428322483
C   C94       1.0  0.72060  0.25420  0.77340  1.0000 0.0320477818
C   C95       1.0  0.83500  0.36250  0.91087  1.0000 0.6343015294
C   C96       1.0  0.91120  0.27650  0.70050  1.0000 -0.5162374217
C   C97       1.0  0.79130  0.40380  0.07730  1.0000 0.6193981629
C   C98       1.0  0.79500  0.36210  0.12730  1.0000 -0.0376414869
C   C99       1.0  0.71170  0.34020  0.15120  1.0000 -0.1201118146
C   C100      1.0  0.71340  0.30130  0.19920  1.0000 -0.0760125834
C   C101      1.0  0.79750  0.28480  0.22360  1.0000 0.0320477818
C   C102      1.0  0.88090  0.30660  0.19980  1.0000 -0.1302108158
C   C103      1.0  0.87970  0.34490  0.15160  1.0000 -0.0760125834
C   C104      1.0  0.63350  0.28220  0.23340  1.0000 0.3362748559
C   C105      1.0  0.68210  0.24050  0.27876  1.0000 -0.045728254
C   C106      1.0  0.64570  0.20610  0.32420  1.0000 -0.1428322483
C   C107      1.0  0.70410  0.17710  0.36350  1.0000 -0.0269678772
C   C108      1.0  0.80050  0.18270  0.35765  1.0000 -0.0957187934
C   C109      1.0  0.83800  0.21680  0.31257  1.0000 -0.1428322483
C   C110      1.0  0.77940  0.24580  0.27340  1.0000 0.0320477818
C   C111      1.0  0.66500  0.13750  0.41087  1.0000 0.6343015294
C   C112      1.0  0.58880  0.22350  0.20050  1.0000 -0.5162374217
C   C113      1.0  0.20870  0.40380  0.92270  1.0000 0.6193981629
C   C114      1.0  0.20500  0.36210  0.87270  1.0000 -0.0376414869
C   C115      1.0  0.28830  0.34020  0.84880  1.0000 -0.1201118146
C   C116      1.0  0.28660  0.30130  0.80080  1.0000 -0.0760125834
C   C117      1.0  0.20250  0.28480  0.77640  1.0000 0.0320477818
C   C118      1.0  0.11910  0.30660  0.80020  1.0000 -0.1302108158
C   C119      1.0  0.12030  0.34490  0.84840  1.0000 -0.0760125834
C   C120      1.0  0.36650  0.28220  0.76660  1.0000 0.3362748559
C   C121      1.0  0.31790  0.24050  0.72124  1.0000 -0.045728254
C   C122      1.0  0.35430  0.20610  0.67580  1.0000 -0.1428322483
C   C123      1.0  0.29590  0.17710  0.63650  1.0000 -0.0269678772
C   C124      1.0  0.19950  0.18270  0.64235  1.0000 -0.0957187934
C   C125      1.0  0.16200  0.21680  0.68743  1.0000 -0.1428322483
C   C126      1.0  0.22060  0.24580  0.72660  1.0000 0.0320477818
C   C127      1.0  0.33500  0.13750  0.58913  1.0000 0.6343015294
C   C128      1.0  0.41120  0.22350  0.79950  1.0000 -0.5162374217
N   N1        1.0  0.50000  0.25530  0.50000  1.0000 0.7274351578
N   N2        1.0  0.00000  0.24470  0.00000  1.0000 0.7274351578
N   N3        1.0  0.50000  0.74470  0.50000  1.0000 0.7274351578
N   N4        1.0  0.00000  0.75530  0.00000  1.0000 0.7274351578
O   O1        1.0  0.63213  0.92496  0.55338  1.0000 -0.7310952087
O   O2        1.0  0.78459  0.92374  0.55662  1.0000 -0.5871599529
O   O3        1.0  0.77920  0.60961  0.94428  1.0000 -0.688329174
O   O4        1.0  0.92190  0.63763  0.91769  1.0000 -0.6176400919
O   O5        1.0  0.92600  0.82970  0.75192  1.0000 -0.4364637424
O   O6        1.0  0.43380  0.22057  0.47704  1.0000 -0.560694671
O   O7        1.0  0.36787  0.92496  0.44662  1.0000 -0.7310952087
O   O8        1.0  0.21541  0.92374  0.44338  1.0000 -0.5871599529
O   O9        1.0  0.22080  0.60961  0.05572  1.0000 -0.688329174
O   O10       1.0  0.07810  0.63763  0.08231  1.0000 -0.6176400919
O   O11       1.0  0.07400  0.82970  0.24808  1.0000 -0.4364637424
O   O12       1.0  0.56620  0.22057  0.52296  1.0000 -0.560694671
O   O13       1.0  0.13213  0.57504  0.94662  1.0000 -0.7310952087
O   O14       1.0  0.28459  0.57626  0.94338  1.0000 -0.5871599529
O   O15       1.0  0.27920  0.89039  0.55572  1.0000 -0.688329174
O   O16       1.0  0.42190  0.86237  0.58231  1.0000 -0.6176400919
O   O17       1.0  0.42600  0.67030  0.74808  1.0000 -0.4364637424
O   O18       1.0  0.93380  0.27943  0.02296  1.0000 -0.560694671
O   O19       1.0  0.86787  0.57504  0.05338  1.0000 -0.7310952087
O   O20       1.0  0.71541  0.57626  0.05662  1.0000 -0.5871599529
O   O21       1.0  0.72080  0.89039  0.44428  1.0000 -0.688329174
O   O22       1.0  0.57810  0.86237  0.41769  1.0000 -0.6176400919
O   O23       1.0  0.57400  0.67030  0.25192  1.0000 -0.4364637424
O   O24       1.0  0.06620  0.27943  0.97704  1.0000 -0.560694671
O   O25       1.0  0.36787  0.07504  0.44662  1.0000 -0.7310952087
O   O26       1.0  0.21541  0.07626  0.44338  1.0000 -0.5871599529
O   O27       1.0  0.22080  0.39039  0.05572  1.0000 -0.688329174
O   O28       1.0  0.07810  0.36237  0.08231  1.0000 -0.6176400919
O   O29       1.0  0.07400  0.17030  0.24808  1.0000 -0.4364637424
O   O30       1.0  0.56620  0.77943  0.52296  1.0000 -0.560694671
O   O31       1.0  0.63213  0.07504  0.55338  1.0000 -0.7310952087
O   O32       1.0  0.78459  0.07626  0.55662  1.0000 -0.5871599529
O   O33       1.0  0.77920  0.39039  0.94428  1.0000 -0.688329174
O   O34       1.0  0.92190  0.36237  0.91769  1.0000 -0.6176400919
O   O35       1.0  0.92600  0.17030  0.75192  1.0000 -0.4364637424
O   O36       1.0  0.43380  0.77943  0.47704  1.0000 -0.560694671
O   O37       1.0  0.86787  0.42496  0.05338  1.0000 -0.7310952087
O   O38       1.0  0.71541  0.42374  0.05662  1.0000 -0.5871599529
O   O39       1.0  0.72080  0.10961  0.44428  1.0000 -0.688329174
O   O40       1.0  0.57810  0.13763  0.41769  1.0000 -0.6176400919
O   O41       1.0  0.57400  0.32970  0.25192  1.0000 -0.4364637424
O   O42       1.0  0.06620  0.72057  0.97704  1.0000 -0.560694671
O   O43       1.0  0.13213  0.42496  0.94662  1.0000 -0.7310952087
O   O44       1.0  0.28459  0.42374  0.94338  1.0000 -0.5871599529
O   O45       1.0  0.27920  0.10961  0.55572  1.0000 -0.688329174
O   O46       1.0  0.42190  0.13763  0.58231  1.0000 -0.6176400919
O   O47       1.0  0.42600  0.32970  0.74808  1.0000 -0.4364637424
O   O48       1.0  0.93380  0.72057  0.02296  1.0000 -0.560694671
O   O49       1.0  0.56770  0.00000  0.46037  1.0000 -1.1330109079
O   O50       1.0  0.43230  0.00000  0.53963  1.0000 -1.1330109079
O   O51       1.0  0.06770  0.50000  0.03963  1.0000 -1.1330109079
O   O52       1.0  0.93230  0.50000  0.96037  1.0000 -1.1330109079
O   O53       1.0  0.50000  0.32100  0.50000  1.0000 -0.3586403717
O   O54       1.0  0.00000  0.17900  0.00000  1.0000 -0.3586403717
O   O55       1.0  0.50000  0.67900  0.50000  1.0000 -0.3586403717
O   O56       1.0  0.00000  0.82100  0.00000  1.0000 -0.3586403717
