# DDEC6 charges by PACMAN v1.1 (https://github.com/mtap-research/PACMAN-charge/)
data_2018[Zn][pcu]3[ASR]18
_chemical_formula_sum              "Zn16 H96 C168 O52"
_cell_length_a       23.502
_cell_length_b       17.1296
_cell_length_c       34.1211
_cell_angle_alpha    90
_cell_angle_beta     132.905
_cell_angle_gamma    90

_symmetry_space_group_name_H-M    "P 1"
_symmetry_Int_Tables_number       1

loop_
  _symmetry_equiv_pos_as_xyz
  'x, y, z'

loop_
  _atom_site_type_symbol
  _atom_site_label
  _atom_site_symmetry_multiplicity
  _atom_site_fract_x
  _atom_site_fract_y
  _atom_site_fract_z
  _atom_site_occupancy
  _atom_site_charge
Zn  Zn1       1.0  0.41002  0.16073  0.04550  1.0000 0.940092053
Zn  Zn2       1.0  0.27689  0.28663  0.97981  1.0000 0.940092053
Zn  Zn3       1.0  0.41319  0.29494  0.98349  1.0000 0.9348321815
Zn  Zn4       1.0  0.27964  0.16079  0.91523  1.0000 0.9692965855
Zn  Zn5       1.0  0.41002  0.33927  0.54550  1.0000 0.940092053
Zn  Zn6       1.0  0.27689  0.21337  0.47981  1.0000 0.940092053
Zn  Zn7       1.0  0.41319  0.20506  0.48349  1.0000 0.9348321815
Zn  Zn8       1.0  0.27964  0.33921  0.41523  1.0000 0.9692965855
Zn  Zn9       1.0  0.58998  0.66073  0.45450  1.0000 0.940092053
Zn  Zn10      1.0  0.72311  0.78663  0.52019  1.0000 0.940092053
Zn  Zn11      1.0  0.58681  0.79494  0.51651  1.0000 0.9348321815
Zn  Zn12      1.0  0.72036  0.66079  0.58477  1.0000 0.9692965855
Zn  Zn13      1.0  0.58998  0.83927  0.95450  1.0000 0.940092053
Zn  Zn14      1.0  0.72311  0.71337  0.02019  1.0000 0.940092053
Zn  Zn15      1.0  0.58681  0.70506  0.01651  1.0000 0.9348321815
Zn  Zn16      1.0  0.72036  0.83921  0.08477  1.0000 0.9692965855
H   H1        1.0  0.44860  0.17800  0.37570  1.0000 0.1128517627
H   H2        1.0  0.44770  0.53870  0.01500  1.0000 0.1212078126
H   H3        1.0  0.22250  0.66650  0.94780  1.0000 0.1212078126
H   H4        1.0  0.26720  0.31970  0.09970  1.0000 0.1280118792
H   H5        1.0  0.44160  0.17660  0.30420  1.0000 0.1128517627
H   H6        1.0  0.26870  0.32170  0.16790  1.0000 0.1212078126
H   H7        1.0  0.44590  0.67320  0.01850  1.0000 0.1212078126
H   H8        1.0  0.39470  0.12930  0.15830  1.0000 0.1280118792
H   H9        1.0  0.39440  0.12270  0.22580  1.0000 0.1128517627
H   H10       1.0  0.23380  0.26640  0.27990  1.0000 0.1280118792
H   H11       1.0  0.22410  0.53120  0.94480  1.0000 0.1212078126
H   H12       1.0  0.22890  0.27150  0.20930  1.0000 0.1128517627
H   H13       1.0  0.78570  0.15840  0.66740  1.0000 0.1128517627
H   H14       1.0  0.65120  0.17020  0.59780  1.0000 0.1128517627
H   H15       1.0  0.65400  0.34560  0.67740  1.0000 0.1212078126
H   H16       1.0  0.89880  0.28970  0.81400  1.0000 0.1128517627
H   H17       1.0  0.03390  0.28700  0.87870  1.0000 0.1280118792
H   H18       1.0  0.78860  0.33333  0.74590  1.0000 0.1128517627
H   H19       1.0  0.90430  0.19580  0.71070  1.0000 0.1128517627
H   H20       1.0  0.03740  0.17640  0.77890  1.0000 0.1212078126
H   H21       1.0  0.43820  0.78090  0.05990  1.0000 0.1212078126
H   H22       1.0  0.43840  0.91610  0.06140  1.0000 0.1212078126
H   H23       1.0  0.22810  0.92220  0.91220  1.0000 0.1212078126
H   H24       1.0  0.22680  0.78540  0.91000  1.0000 0.1128517627
H   H25       1.0  0.44860  0.32200  0.87570  1.0000 0.1128517627
H   H26       1.0  0.44770  0.96130  0.51500  1.0000 0.1212078126
H   H27       1.0  0.22250  0.83350  0.44780  1.0000 0.1212078126
H   H28       1.0  0.26720  0.18030  0.59970  1.0000 0.1280118792
H   H29       1.0  0.44160  0.32340  0.80420  1.0000 0.1128517627
H   H30       1.0  0.26870  0.17830  0.66790  1.0000 0.1212078126
H   H31       1.0  0.44590  0.82680  0.51850  1.0000 0.1212078126
H   H32       1.0  0.39470  0.37070  0.65830  1.0000 0.1280118792
H   H33       1.0  0.39440  0.37730  0.72580  1.0000 0.1128517627
H   H34       1.0  0.23380  0.23360  0.77990  1.0000 0.1280118792
H   H35       1.0  0.22410  0.96880  0.44480  1.0000 0.1212078126
H   H36       1.0  0.22890  0.22850  0.70930  1.0000 0.1128517627
H   H37       1.0  0.78570  0.34160  0.16740  1.0000 0.1128517627
H   H38       1.0  0.65120  0.32980  0.09780  1.0000 0.1128517627
H   H39       1.0  0.65400  0.15440  0.17740  1.0000 0.1212078126
H   H40       1.0  0.89880  0.21030  0.31400  1.0000 0.1128517627
H   H41       1.0  0.03390  0.21300  0.37870  1.0000 0.1280118792
H   H42       1.0  0.78860  0.16670  0.24590  1.0000 0.1128517627
H   H43       1.0  0.90430  0.30420  0.21070  1.0000 0.1128517627
H   H44       1.0  0.03740  0.32360  0.27890  1.0000 0.1212078126
H   H45       1.0  0.43820  0.71910  0.55990  1.0000 0.1212078126
H   H46       1.0  0.43840  0.58390  0.56140  1.0000 0.1212078126
H   H47       1.0  0.22810  0.57780  0.41220  1.0000 0.1212078126
H   H48       1.0  0.22680  0.71460  0.41000  1.0000 0.1128517627
H   H49       1.0  0.55140  0.67800  0.12430  1.0000 0.1128517627
H   H50       1.0  0.55230  0.03870  0.48500  1.0000 0.1212078126
H   H51       1.0  0.77750  0.16650  0.55220  1.0000 0.1212078126
H   H52       1.0  0.73280  0.81970  0.40030  1.0000 0.1280118792
H   H53       1.0  0.55840  0.67660  0.19580  1.0000 0.1128517627
H   H54       1.0  0.73130  0.82170  0.33210  1.0000 0.1212078126
H   H55       1.0  0.55410  0.17320  0.48150  1.0000 0.1212078126
H   H56       1.0  0.60530  0.62930  0.34170  1.0000 0.1280118792
H   H57       1.0  0.60560  0.62270  0.27420  1.0000 0.1128517627
H   H58       1.0  0.76620  0.76640  0.22010  1.0000 0.1280118792
H   H59       1.0  0.77590  0.03120  0.55520  1.0000 0.1212078126
H   H60       1.0  0.77110  0.77150  0.29070  1.0000 0.1128517627
H   H61       1.0  0.21430  0.65840  0.83260  1.0000 0.1128517627
H   H62       1.0  0.34880  0.67020  0.90220  1.0000 0.1128517627
H   H63       1.0  0.34600  0.84560  0.82260  1.0000 0.1212078126
H   H64       1.0  0.10120  0.78970  0.68600  1.0000 0.1128517627
H   H65       1.0  0.96610  0.78700  0.62130  1.0000 0.1280118792
H   H66       1.0  0.21140  0.83330  0.75410  1.0000 0.1128517627
H   H67       1.0  0.09570  0.69580  0.78930  1.0000 0.1128517627
H   H68       1.0  0.96260  0.67640  0.72110  1.0000 0.1212078126
H   H69       1.0  0.56180  0.28090  0.44010  1.0000 0.1212078126
H   H70       1.0  0.56160  0.41610  0.43860  1.0000 0.1212078126
H   H71       1.0  0.77190  0.42220  0.58780  1.0000 0.1212078126
H   H72       1.0  0.77320  0.28540  0.59000  1.0000 0.1128517627
H   H73       1.0  0.55140  0.82200  0.62430  1.0000 0.1128517627
H   H74       1.0  0.55230  0.46130  0.98500  1.0000 0.1212078126
H   H75       1.0  0.77750  0.33350  0.05220  1.0000 0.1212078126
H   H76       1.0  0.73280  0.68030  0.90030  1.0000 0.1280118792
H   H77       1.0  0.55840  0.82340  0.69580  1.0000 0.1128517627
H   H78       1.0  0.73130  0.67830  0.83210  1.0000 0.1212078126
H   H79       1.0  0.55410  0.32680  0.98150  1.0000 0.1212078126
H   H80       1.0  0.60530  0.87070  0.84170  1.0000 0.1280118792
H   H81       1.0  0.60560  0.87730  0.77420  1.0000 0.1128517627
H   H82       1.0  0.76620  0.73360  0.72010  1.0000 0.1280118792
H   H83       1.0  0.77590  0.46880  0.05520  1.0000 0.1212078126
H   H84       1.0  0.77110  0.72850  0.79070  1.0000 0.1128517627
H   H85       1.0  0.21430  0.84160  0.33260  1.0000 0.1128517627
H   H86       1.0  0.34880  0.82980  0.40220  1.0000 0.1128517627
H   H87       1.0  0.34600  0.65440  0.32260  1.0000 0.1212078126
H   H88       1.0  0.10120  0.71030  0.18600  1.0000 0.1128517627
H   H89       1.0  0.96610  0.71300  0.12130  1.0000 0.1280118792
H   H90       1.0  0.21140  0.66667  0.25410  1.0000 0.1128517627
H   H91       1.0  0.09570  0.80420  0.28930  1.0000 0.1128517627
H   H92       1.0  0.96260  0.82360  0.22110  1.0000 0.1212078126
H   H93       1.0  0.56180  0.21910  0.94010  1.0000 0.1212078126
H   H94       1.0  0.56160  0.08390  0.93860  1.0000 0.1212078126
H   H95       1.0  0.77190  0.07780  0.08780  1.0000 0.1212078126
H   H96       1.0  0.77320  0.21460  0.09000  1.0000 0.1128517627
C   C1        1.0  0.33916  0.43330  0.98071  1.0000 0.5898086637
C   C2        1.0  0.55452  0.26830  0.58751  1.0000 0.5898086637
C   C3        1.0  0.40380  0.19660  0.34200  1.0000 -0.0994631228
C   C4        1.0  0.33364  0.22590  0.12369  1.0000 -0.0517312398
C   C5        1.0  0.33390  0.68380  0.98210  1.0000 0.0716168516
C   C6        1.0  0.33671  0.52080  0.98048  1.0000 -0.0414040471
C   C7        1.0  0.33847  0.01990  0.98970  1.0000 0.5898086637
C   C8        1.0  0.33686  0.22630  0.08163  1.0000 0.5991577689
C   C9        1.0  0.40206  0.56430  0.00160  1.0000 -0.0828368314
C   C10       1.0  0.34666  0.22390  0.38062  1.0000 0.5642433872
C   C11       1.0  0.13516  0.22470  0.87725  1.0000 0.5991577689
C   C12       1.0  0.26800  0.64060  0.96110  1.0000 -0.157572648
C   C13       1.0  0.29490  0.28090  0.12620  1.0000 -0.0994631228
C   C14       1.0  0.39990  0.19650  0.29940  1.0000 -0.157572648
C   C15       1.0  0.34146  0.22410  0.33446  1.0000 -0.0414040471
C   C16       1.0  0.33270  0.22390  0.20530  1.0000 0.0716168516
C   C17       1.0  0.29477  0.28160  0.16667  1.0000 -0.1508612732
C   C18       1.0  0.33510  0.22550  0.25010  1.0000 0.0716168516
C   C19       1.0  0.40060  0.64470  0.00300  1.0000 -0.1435288827
C   C20       1.0  0.36910  0.16860  0.16050  1.0000 -0.0994631228
C   C21       1.0  0.36970  0.16430  0.20130  1.0000 -0.1508612732
C   C22       1.0  0.33400  0.93240  0.98710  1.0000 -0.0414040471
C   C23       1.0  0.33240  0.77010  0.98380  1.0000 0.0788261813
C   C24       1.0  0.27690  0.24980  0.28540  1.0000 -0.0906943823
C   C25       1.0  0.26900  0.55980  0.95970  1.0000 -0.0906943823
C   C26       1.0  0.27340  0.25200  0.24280  1.0000 -0.157572648
C   C27       1.0  0.64046  0.26010  0.63172  1.0000 -0.0414040471
C   C28       1.0  0.80146  0.24480  0.71329  1.0000 0.0788261813
C   C29       1.0  0.04900  0.22740  0.83578  1.0000 -0.0517312398
C   C30       1.0  0.88740  0.23750  0.75670  1.0000 0.0716168516
C   C31       1.0  0.75940  0.19700  0.66950  1.0000 -0.157572648
C   C32       1.0  0.67880  0.20330  0.62770  1.0000 -0.0906943823
C   C33       1.0  0.68030  0.30770  0.67490  1.0000 -0.0906943823
C   C34       1.0  0.92630  0.26700  0.80600  1.0000 -0.1508612732
C   C35       1.0  0.00740  0.26370  0.84520  1.0000 -0.0906943823
C   C36       1.0  0.76120  0.30020  0.71600  1.0000 -0.157572648
C   C37       1.0  0.92970  0.20960  0.74600  1.0000 -0.157572648
C   C38       1.0  0.01030  0.20110  0.78660  1.0000 -0.0906943823
C   C39       1.0  0.39600  0.80900  0.02990  1.0000 -0.1508612732
C   C40       1.0  0.39560  0.88960  0.03060  1.0000 -0.0828368314
C   C41       1.0  0.27060  0.89380  0.94190  1.0000 -0.0828368314
C   C42       1.0  0.27010  0.81190  0.94060  1.0000 -0.157572648
C   C43       1.0  0.33916  0.06670  0.48071  1.0000 0.5898086637
C   C44       1.0  0.55452  0.23170  0.08751  1.0000 0.5898086637
C   C45       1.0  0.40380  0.30340  0.84200  1.0000 -0.0994631228
C   C46       1.0  0.33364  0.27410  0.62369  1.0000 -0.0517312398
C   C47       1.0  0.33390  0.81620  0.48210  1.0000 0.0716168516
C   C48       1.0  0.33671  0.97920  0.48048  1.0000 -0.0414040471
C   C49       1.0  0.33847  0.48010  0.48970  1.0000 0.5898086637
C   C50       1.0  0.33686  0.27370  0.58163  1.0000 0.5991577689
C   C51       1.0  0.40206  0.93570  0.50160  1.0000 -0.0828368314
C   C52       1.0  0.34666  0.27610  0.88062  1.0000 0.5642433872
C   C53       1.0  0.13516  0.27530  0.37725  1.0000 0.5991577689
C   C54       1.0  0.26800  0.85940  0.46110  1.0000 -0.157572648
C   C55       1.0  0.29490  0.21910  0.62620  1.0000 -0.0994631228
C   C56       1.0  0.39990  0.30350  0.79940  1.0000 -0.157572648
C   C57       1.0  0.34146  0.27590  0.83446  1.0000 -0.0414040471
C   C58       1.0  0.33270  0.27610  0.70530  1.0000 0.0716168516
C   C59       1.0  0.29477  0.21840  0.66667  1.0000 -0.1508612732
C   C60       1.0  0.33510  0.27450  0.75010  1.0000 0.0716168516
C   C61       1.0  0.40060  0.85530  0.50300  1.0000 -0.1435288827
C   C62       1.0  0.36910  0.33140  0.66050  1.0000 -0.0994631228
C   C63       1.0  0.36970  0.33570  0.70130  1.0000 -0.1508612732
C   C64       1.0  0.33400  0.56760  0.48710  1.0000 -0.0414040471
C   C65       1.0  0.33240  0.72990  0.48380  1.0000 0.0788261813
C   C66       1.0  0.27690  0.25020  0.78540  1.0000 -0.0906943823
C   C67       1.0  0.26900  0.94020  0.45970  1.0000 -0.0906943823
C   C68       1.0  0.27340  0.24800  0.74280  1.0000 -0.157572648
C   C69       1.0  0.64046  0.23990  0.13172  1.0000 -0.0414040471
C   C70       1.0  0.80146  0.25520  0.21329  1.0000 0.0788261813
C   C71       1.0  0.04900  0.27260  0.33578  1.0000 -0.0517312398
C   C72       1.0  0.88740  0.26250  0.25670  1.0000 0.0716168516
C   C73       1.0  0.75940  0.30300  0.16950  1.0000 -0.157572648
C   C74       1.0  0.67880  0.29670  0.12770  1.0000 -0.0906943823
C   C75       1.0  0.68030  0.19230  0.17490  1.0000 -0.0906943823
C   C76       1.0  0.92630  0.23300  0.30600  1.0000 -0.1508612732
C   C77       1.0  0.00740  0.23630  0.34520  1.0000 -0.0906943823
C   C78       1.0  0.76120  0.19980  0.21600  1.0000 -0.157572648
C   C79       1.0  0.92970  0.29040  0.24600  1.0000 -0.157572648
C   C80       1.0  0.01030  0.29890  0.28660  1.0000 -0.0906943823
C   C81       1.0  0.39600  0.69100  0.52990  1.0000 -0.1508612732
C   C82       1.0  0.39560  0.61040  0.53060  1.0000 -0.0828368314
C   C83       1.0  0.27060  0.60620  0.44190  1.0000 -0.0828368314
C   C84       1.0  0.27010  0.68810  0.44060  1.0000 -0.157572648
C   C85       1.0  0.66084  0.93330  0.51929  1.0000 0.5898086637
C   C86       1.0  0.44548  0.76830  0.91249  1.0000 0.5898086637
C   C87       1.0  0.59620  0.69660  0.15800  1.0000 -0.0994631228
C   C88       1.0  0.66636  0.72590  0.37631  1.0000 -0.0517312398
C   C89       1.0  0.66610  0.18380  0.51790  1.0000 0.0716168516
C   C90       1.0  0.66329  0.02080  0.51952  1.0000 -0.0414040471
C   C91       1.0  0.66153  0.51990  0.51030  1.0000 0.5898086637
C   C92       1.0  0.66314  0.72630  0.41837  1.0000 0.5991577689
C   C93       1.0  0.59794  0.06430  0.49840  1.0000 -0.0828368314
C   C94       1.0  0.65334  0.72390  0.11938  1.0000 0.5642433872
C   C95       1.0  0.86484  0.72470  0.62275  1.0000 0.5991577689
C   C96       1.0  0.73200  0.14060  0.53890  1.0000 -0.157572648
C   C97       1.0  0.70510  0.78090  0.37380  1.0000 -0.0994631228
C   C98       1.0  0.60010  0.69650  0.20060  1.0000 -0.157572648
C   C99       1.0  0.65854  0.72410  0.16554  1.0000 -0.0414040471
C   C100      1.0  0.66730  0.72390  0.29470  1.0000 0.0788261813
C   C101      1.0  0.70523  0.78160  0.33333  1.0000 -0.1508612732
C   C102      1.0  0.66490  0.72550  0.24990  1.0000 0.0716168516
C   C103      1.0  0.59940  0.14470  0.49700  1.0000 -0.1435288827
C   C104      1.0  0.63090  0.66860  0.33950  1.0000 -0.0994631228
C   C105      1.0  0.63030  0.66430  0.29870  1.0000 -0.1508612732
C   C106      1.0  0.66600  0.43240  0.51290  1.0000 -0.0414040471
C   C107      1.0  0.66760  0.27010  0.51620  1.0000 0.0788261813
C   C108      1.0  0.72310  0.74980  0.21460  1.0000 -0.0906943823
C   C109      1.0  0.73100  0.05980  0.54030  1.0000 -0.0906943823
C   C110      1.0  0.72660  0.75200  0.25720  1.0000 -0.157572648
C   C111      1.0  0.35954  0.76010  0.86828  1.0000 -0.0414040471
C   C112      1.0  0.19854  0.74480  0.78671  1.0000 0.0788261813
C   C113      1.0  0.95100  0.72740  0.66422  1.0000 -0.0517312398
C   C114      1.0  0.11260  0.73750  0.74330  1.0000 0.0716168516
C   C115      1.0  0.24060  0.69700  0.83050  1.0000 -0.157572648
C   C116      1.0  0.32120  0.70330  0.87230  1.0000 -0.0906943823
C   C117      1.0  0.31970  0.80770  0.82510  1.0000 -0.0906943823
C   C118      1.0  0.07370  0.76700  0.69400  1.0000 -0.1508612732
C   C119      1.0  0.99260  0.76370  0.65480  1.0000 -0.0906943823
C   C120      1.0  0.23880  0.80020  0.78400  1.0000 -0.157572648
C   C121      1.0  0.07030  0.70960  0.75400  1.0000 -0.157572648
C   C122      1.0  0.98970  0.70110  0.71340  1.0000 -0.0828368314
C   C123      1.0  0.60400  0.30900  0.47010  1.0000 -0.1508612732
C   C124      1.0  0.60440  0.38960  0.46940  1.0000 -0.0828368314
C   C125      1.0  0.72940  0.39380  0.55810  1.0000 -0.0828368314
C   C126      1.0  0.72990  0.31190  0.55940  1.0000 -0.157572648
C   C127      1.0  0.66084  0.56670  0.01929  1.0000 0.5898086637
C   C128      1.0  0.44548  0.73170  0.41249  1.0000 0.5898086637
C   C129      1.0  0.59620  0.80340  0.65800  1.0000 -0.0994631228
C   C130      1.0  0.66636  0.77410  0.87631  1.0000 -0.0517312398
C   C131      1.0  0.66610  0.31620  0.01790  1.0000 0.0716168516
C   C132      1.0  0.66329  0.47920  0.01952  1.0000 -0.0414040471
C   C133      1.0  0.66153  0.98010  0.01030  1.0000 0.5898086637
C   C134      1.0  0.66314  0.77370  0.91837  1.0000 0.5991577689
C   C135      1.0  0.59794  0.43570  0.99840  1.0000 -0.0828368314
C   C136      1.0  0.65334  0.77610  0.61938  1.0000 0.5642433872
C   C137      1.0  0.86484  0.77530  0.12275  1.0000 0.5991577689
C   C138      1.0  0.73200  0.35940  0.03890  1.0000 -0.157572648
C   C139      1.0  0.70510  0.71910  0.87380  1.0000 -0.0994631228
C   C140      1.0  0.60010  0.80350  0.70060  1.0000 -0.157572648
C   C141      1.0  0.65854  0.77590  0.66554  1.0000 -0.0414040471
C   C142      1.0  0.66730  0.77610  0.79470  1.0000 0.0788261813
C   C143      1.0  0.70523  0.71840  0.83333  1.0000 -0.1508612732
C   C144      1.0  0.66490  0.77450  0.74990  1.0000 0.0716168516
C   C145      1.0  0.59940  0.35530  0.99700  1.0000 -0.1435288827
C   C146      1.0  0.63090  0.83140  0.83950  1.0000 -0.0994631228
C   C147      1.0  0.63030  0.83570  0.79870  1.0000 -0.157572648
C   C148      1.0  0.66600  0.06760  0.01290  1.0000 -0.0414040471
C   C149      1.0  0.66760  0.22990  0.01620  1.0000 0.0788261813
C   C150      1.0  0.72310  0.75020  0.71460  1.0000 -0.0906943823
C   C151      1.0  0.73100  0.44020  0.04030  1.0000 -0.0906943823
C   C152      1.0  0.72660  0.74800  0.75720  1.0000 -0.157572648
C   C153      1.0  0.35954  0.73990  0.36828  1.0000 -0.0414040471
C   C154      1.0  0.19854  0.75520  0.28671  1.0000 0.0788261813
C   C155      1.0  0.95100  0.77260  0.16422  1.0000 -0.0517312398
C   C156      1.0  0.11260  0.76250  0.24330  1.0000 0.0716168516
C   C157      1.0  0.24060  0.80300  0.33050  1.0000 -0.157572648
C   C158      1.0  0.32120  0.79670  0.37230  1.0000 -0.0906943823
C   C159      1.0  0.31970  0.69230  0.32510  1.0000 -0.0906943823
C   C160      1.0  0.07370  0.73300  0.19400  1.0000 -0.1508612732
C   C161      1.0  0.99260  0.73630  0.15480  1.0000 -0.0906943823
C   C162      1.0  0.23880  0.69980  0.28400  1.0000 -0.157572648
C   C163      1.0  0.07030  0.79040  0.25400  1.0000 -0.157572648
C   C164      1.0  0.98970  0.79890  0.21340  1.0000 -0.0906943823
C   C165      1.0  0.60400  0.19100  0.97010  1.0000 -0.1508612732
C   C166      1.0  0.60440  0.11040  0.96940  1.0000 -0.0828368314
C   C167      1.0  0.72940  0.10620  0.05810  1.0000 -0.0828368314
C   C168      1.0  0.72990  0.18810  0.05940  1.0000 -0.157572648
O   O1        1.0  0.34644  0.22308  0.98064  1.0000 -1.0193606357
O   O2        1.0  0.52085  0.22090  0.54822  1.0000 -0.5486700873
O   O3        1.0  0.29357  0.27420  0.04374  1.0000 -0.530355336
O   O4        1.0  0.41161  0.21010  0.42587  1.0000 -0.530355336
O   O5        1.0  0.39490  0.40399  0.98925  1.0000 -0.530355336
O   O6        1.0  0.38176  0.17910  0.08603  1.0000 -0.5376383139
O   O7        1.0  0.16931  0.18330  0.86898  1.0000 -0.5072771052
O   O8        1.0  0.16906  0.26240  0.92023  1.0000 -0.5376383139
O   O9        1.0  0.52046  0.31750  0.59175  1.0000 -0.5072771052
O   O10       1.0  0.28623  0.39780  0.97330  1.0000 -0.5200372279
O   O11       1.0  0.28789  0.23550  0.37341  1.0000 -0.5554214383
O   O12       1.0  0.39905  0.04993  0.03268  1.0000 -0.5376383139
O   O13       1.0  0.28470  0.05656  0.94847  1.0000 -0.5554214383
O   O14       1.0  0.34644  0.27692  0.48064  1.0000 -1.0193606357
O   O15       1.0  0.52085  0.27910  0.04822  1.0000 -0.5486700873
O   O16       1.0  0.29357  0.22580  0.54374  1.0000 -0.530355336
O   O17       1.0  0.41161  0.28990  0.92587  1.0000 -0.5200372279
O   O18       1.0  0.39490  0.09601  0.48925  1.0000 -0.530355336
O   O19       1.0  0.38176  0.32090  0.58603  1.0000 -0.5376383139
O   O20       1.0  0.16931  0.31670  0.36898  1.0000 -0.5072771052
O   O21       1.0  0.16906  0.23760  0.42023  1.0000 -0.5376383139
O   O22       1.0  0.52046  0.18250  0.09175  1.0000 -0.5072771052
O   O23       1.0  0.28623  0.10220  0.47330  1.0000 -0.5200372279
O   O24       1.0  0.28789  0.26450  0.87341  1.0000 -0.5554214383
O   O25       1.0  0.39905  0.45007  0.53268  1.0000 -0.530355336
O   O26       1.0  0.28470  0.44344  0.44847  1.0000 -0.5554214383
O   O27       1.0  0.65356  0.72308  0.51936  1.0000 -1.0193606357
O   O28       1.0  0.47915  0.72090  0.95178  1.0000 -0.5486700873
O   O29       1.0  0.70643  0.77420  0.45626  1.0000 -0.530355336
O   O30       1.0  0.58839  0.71010  0.07413  1.0000 -0.5200372279
O   O31       1.0  0.60510  0.90399  0.51075  1.0000 -0.530355336
O   O32       1.0  0.61824  0.67910  0.41397  1.0000 -0.5376383139
O   O33       1.0  0.83069  0.68330  0.63102  1.0000 -0.5072771052
O   O34       1.0  0.83094  0.76240  0.57977  1.0000 -0.5376383139
O   O35       1.0  0.47954  0.81750  0.90825  1.0000 -0.5072771052
O   O36       1.0  0.71377  0.89780  0.52670  1.0000 -0.5200372279
O   O37       1.0  0.71211  0.73550  0.12659  1.0000 -0.5554214383
O   O38       1.0  0.60095  0.54993  0.46732  1.0000 -0.530355336
O   O39       1.0  0.71530  0.55656  0.55153  1.0000 -0.5554214383
O   O40       1.0  0.65356  0.77692  0.01936  1.0000 -1.0193606357
O   O41       1.0  0.47915  0.77910  0.45178  1.0000 -0.5486700873
O   O42       1.0  0.70643  0.72580  0.95626  1.0000 -0.530355336
O   O43       1.0  0.58839  0.78990  0.57413  1.0000 -0.530355336
O   O44       1.0  0.60510  0.59601  0.01075  1.0000 -0.530355336
O   O45       1.0  0.61824  0.82090  0.91397  1.0000 -0.5376383139
O   O46       1.0  0.83069  0.81670  0.13102  1.0000 -0.5072771052
O   O47       1.0  0.83094  0.73760  0.07977  1.0000 -0.5376383139
O   O48       1.0  0.47954  0.68250  0.40825  1.0000 -0.5072771052
O   O49       1.0  0.71377  0.60220  0.02670  1.0000 -0.5200372279
O   O50       1.0  0.71211  0.76450  0.62659  1.0000 -0.5554214383
O   O51       1.0  0.60095  0.95007  0.96732  1.0000 -0.530355336
O   O52       1.0  0.71530  0.94344  0.05153  1.0000 -0.5554214383
