# DDEC6 charges by PACMAN v1.1 (https://github.com/mtap-research/PACMAN-charge/)
data_2018[Eu][flu]3[ASR]2
_chemical_formula_sum              "Eu8 H34 C58 N4 O36"
_cell_length_a       13.9428
_cell_length_b       13.9428
_cell_length_c       22.042
_cell_angle_alpha    70.3591
_cell_angle_beta     109.641
_cell_angle_gamma    135.508

_symmetry_space_group_name_H-M    "P 1"
_symmetry_Int_Tables_number       1

loop_
  _symmetry_equiv_pos_as_xyz
  'x, y, z'

loop_
  _atom_site_type_symbol
  _atom_site_label
  _atom_site_symmetry_multiplicity
  _atom_site_fract_x
  _atom_site_fract_y
  _atom_site_fract_z
  _atom_site_occupancy
  _atom_site_charge
Eu  Eu1       1.0  0.75197  0.60077  0.81683  1.0000 2.2038286905
Eu  Eu2       1.0  0.89774  0.96174  0.81756  1.0000 2.0460696201
Eu  Eu3       1.0  0.60077  0.75197  0.68317  1.0000 2.2038286905
Eu  Eu4       1.0  0.96174  0.89774  0.68244  1.0000 2.0460696201
Eu  Eu5       1.0  0.24803  0.39923  0.18317  1.0000 2.2038286905
Eu  Eu6       1.0  0.10226  0.03826  0.18244  1.0000 2.0460696201
Eu  Eu7       1.0  0.39923  0.24803  0.31683  1.0000 2.2038286905
Eu  Eu8       1.0  0.03826  0.10226  0.31756  1.0000 2.0460696201
H   H1        1.0  0.61630  0.68230  0.82400  1.0000 0.3985926788
H   H2        1.0  0.06020  0.97700  0.53420  1.0000 0.0902475695
H   H3        1.0  0.82820  0.23860  0.78830  1.0000 0.1064161751
H   H4        1.0  0.77700  0.36980  0.78030  1.0000 0.1028616906
H   H5        1.0  0.50750  0.03110  0.64650  1.0000 0.1064161751
H   H6        1.0  0.30120  0.07640  0.69790  1.0000 0.0902475695
H   H7        1.0  0.45200  0.17400  0.53870  1.0000 0.1192987542
H   H8        1.0  0.86700  0.02320  0.68160  1.0000 0.4056374859
H   H9        1.0  0.68230  0.61630  0.67600  1.0000 0.3985926788
H   H10       1.0  0.97700  0.06020  0.96580  1.0000 0.0902475695
H   H11       1.0  0.23860  0.82820  0.71170  1.0000 0.1064161751
H   H12       1.0  0.36980  0.77700  0.71970  1.0000 0.1028616906
H   H13       1.0  0.03110  0.50750  0.85350  1.0000 0.1064161751
H   H14       1.0  0.07640  0.30120  0.80210  1.0000 0.0902475695
H   H15       1.0  0.17400  0.45200  0.96130  1.0000 0.1192987542
H   H16       1.0  0.02320  0.86700  0.81840  1.0000 0.4056374859
H   H17       1.0  0.38370  0.31770  0.17600  1.0000 0.3985926788
H   H18       1.0  0.93980  0.02300  0.46580  1.0000 0.0902475695
H   H19       1.0  0.17180  0.76140  0.21170  1.0000 0.1064161751
H   H20       1.0  0.22300  0.63020  0.21970  1.0000 0.1028616906
H   H21       1.0  0.49250  0.96890  0.35350  1.0000 0.1064161751
H   H22       1.0  0.69880  0.92360  0.30210  1.0000 0.0902475695
H   H23       1.0  0.54800  0.82600  0.46130  1.0000 0.1192987542
H   H24       1.0  0.13300  0.97680  0.31840  1.0000 0.4056374859
H   H25       1.0  0.31770  0.38370  0.32400  1.0000 0.3985926788
H   H26       1.0  0.02300  0.93980  0.03420  1.0000 0.0902475695
H   H27       1.0  0.76140  0.17180  0.28830  1.0000 0.1064161751
H   H28       1.0  0.63020  0.22300  0.28030  1.0000 0.1028616906
H   H29       1.0  0.96890  0.49250  0.14650  1.0000 0.1064161751
H   H30       1.0  0.92360  0.69880  0.19790  1.0000 0.0902475695
H   H31       1.0  0.82600  0.54800  0.03870  1.0000 0.1192987542
H   H32       1.0  0.97680  0.13300  0.18160  1.0000 0.4056374859
H   H33       1.0  0.27910  0.27910  0.75000  1.0000 0.1028616906
H   H34       1.0  0.72090  0.72090  0.25000  1.0000 0.1028616906
C   C1        1.0  0.69940  0.03060  0.72680  1.0000 0.6207437496
C   C2        1.0  0.15030  0.02170  0.55820  1.0000 0.0575360487
C   C3        1.0  0.67220  0.12180  0.71800  1.0000 -0.0223925012
C   C4        1.0  0.75190  0.22210  0.75810  1.0000 -0.1231665463
C   C5        1.0  0.72090  0.29910  0.75370  1.0000 -0.1143232678
C   C6        1.0  0.60720  0.27280  0.70980  1.0000 -0.0593484287
C   C7        1.0  0.52920  0.17520  0.67010  1.0000 0.0327229229
C   C8        1.0  0.56220  0.09980  0.67410  1.0000 -0.1633202453
C   C9        1.0  0.58620  0.36780  0.70910  1.0000 0.6025719027
C   C10       1.0  0.28790  0.07610  0.65280  1.0000 0.0394986699
C   C11       1.0  0.24990  0.08010  0.52350  1.0000 -0.0937856008
C   C12       1.0  0.37910  0.13550  0.55950  1.0000 -0.0981670414
C   C13       1.0  0.40110  0.13430  0.62600  1.0000 0.0327229229
C   C14       1.0  0.22910  0.09290  0.45170  1.0000 0.6262814383
C   C15       1.0  0.03060  0.69940  0.77320  1.0000 0.6207437496
C   C16       1.0  0.02170  0.15030  0.94180  1.0000 0.0575360487
C   C17       1.0  0.12180  0.67220  0.78200  1.0000 -0.0223925012
C   C18       1.0  0.22210  0.75190  0.74190  1.0000 -0.1231665463
C   C19       1.0  0.29910  0.72090  0.74630  1.0000 -0.1143232678
C   C20       1.0  0.27280  0.60720  0.79020  1.0000 -0.0593484287
C   C21       1.0  0.17520  0.52920  0.82990  1.0000 0.0327229229
C   C22       1.0  0.09980  0.56220  0.82590  1.0000 -0.1633202453
C   C23       1.0  0.36780  0.58620  0.79090  1.0000 0.6025719027
C   C24       1.0  0.07610  0.28790  0.84720  1.0000 0.0394986699
C   C25       1.0  0.08010  0.24990  0.97650  1.0000 -0.0937856008
C   C26       1.0  0.13550  0.37910  0.94050  1.0000 -0.0981670414
C   C27       1.0  0.13430  0.40110  0.87400  1.0000 0.0327229229
C   C28       1.0  0.09290  0.22910  0.04830  1.0000 0.6262814383
C   C29       1.0  0.30060  0.96940  0.27320  1.0000 0.6207437496
C   C30       1.0  0.84970  0.97830  0.44180  1.0000 0.0575360487
C   C31       1.0  0.32780  0.87820  0.28200  1.0000 -0.0223925012
C   C32       1.0  0.24810  0.77790  0.24190  1.0000 -0.1231665463
C   C33       1.0  0.27910  0.70090  0.24630  1.0000 -0.1143232678
C   C34       1.0  0.39280  0.72720  0.29020  1.0000 -0.0593484287
C   C35       1.0  0.47080  0.82480  0.32990  1.0000 0.0327229229
C   C36       1.0  0.43780  0.90020  0.32590  1.0000 -0.1633202453
C   C37       1.0  0.41380  0.63220  0.29090  1.0000 0.6025719027
C   C38       1.0  0.71210  0.92390  0.34720  1.0000 0.0394986699
C   C39       1.0  0.75010  0.91990  0.47650  1.0000 -0.0937856008
C   C40       1.0  0.62090  0.86450  0.44050  1.0000 -0.0981670414
C   C41       1.0  0.59890  0.86570  0.37400  1.0000 0.0327229229
C   C42       1.0  0.77090  0.90710  0.54830  1.0000 0.6262814383
C   C43       1.0  0.96940  0.30060  0.22680  1.0000 0.6207437496
C   C44       1.0  0.97830  0.84970  0.05820  1.0000 0.0575360487
C   C45       1.0  0.87820  0.32780  0.21800  1.0000 -0.0223925012
C   C46       1.0  0.77790  0.24810  0.25810  1.0000 -0.1231665463
C   C47       1.0  0.70090  0.27910  0.25370  1.0000 -0.1143232678
C   C48       1.0  0.72720  0.39280  0.20980  1.0000 -0.0593484287
C   C49       1.0  0.82480  0.47080  0.17010  1.0000 0.0327229229
C   C50       1.0  0.90020  0.43780  0.17410  1.0000 -0.1633202453
C   C51       1.0  0.63220  0.41380  0.20910  1.0000 0.6025719027
C   C52       1.0  0.92390  0.71210  0.15280  1.0000 0.0394986699
C   C53       1.0  0.91990  0.75010  0.02350  1.0000 -0.0937856008
C   C54       1.0  0.86450  0.62090  0.05950  1.0000 -0.0981670414
C   C55       1.0  0.86570  0.59890  0.12600  1.0000 0.0327229229
C   C56       1.0  0.90710  0.77090  0.95170  1.0000 0.6262814383
C   C57       1.0  0.18900  0.18900  0.75000  1.0000 0.5237226765
C   C58       1.0  0.81100  0.81100  0.25000  1.0000 0.5237226765
N   N1        1.0  0.16230  0.01930  0.61940  1.0000 -0.3482881804
N   N2        1.0  0.01930  0.16230  0.88060  1.0000 -0.3482881804
N   N3        1.0  0.83770  0.98070  0.38060  1.0000 -0.3482881804
N   N4        1.0  0.98070  0.83770  0.11940  1.0000 -0.3482881804
O   O1        1.0  0.53790  0.40010  0.65680  1.0000 -0.5491311569
O   O2        1.0  0.11960  0.16060  0.78820  1.0000 -0.6327307244
O   O3        1.0  0.62640  0.41420  0.76050  1.0000 -0.7245158573
O   O4        1.0  0.62290  0.93770  0.69170  1.0000 -0.668487968
O   O5        1.0  0.32850  0.16090  0.42310  1.0000 -0.6885295455
O   O6        1.0  0.10450  0.02670  0.42240  1.0000 -0.6885295455
O   O7        1.0  0.80030  0.05830  0.76780  1.0000 -0.656802388
O   O8        1.0  0.84170  0.95110  0.70200  1.0000 -1.139663728
O   O9        1.0  0.68560  0.72580  0.79580  1.0000 -1.2238035221
O   O10       1.0  0.40010  0.53790  0.84320  1.0000 -0.5491311569
O   O11       1.0  0.16060  0.11960  0.71180  1.0000 -0.6327307244
O   O12       1.0  0.41420  0.62640  0.73950  1.0000 -0.7245158573
O   O13       1.0  0.93770  0.62290  0.80830  1.0000 -0.668487968
O   O14       1.0  0.16090  0.32850  0.07690  1.0000 -0.6885295455
O   O15       1.0  0.02670  0.10450  0.07760  1.0000 -0.6885295455
O   O16       1.0  0.05830  0.80030  0.73220  1.0000 -0.656802388
O   O17       1.0  0.95110  0.84170  0.79800  1.0000 -1.139663728
O   O18       1.0  0.72580  0.68560  0.70420  1.0000 -1.2238035221
O   O19       1.0  0.46210  0.59990  0.34320  1.0000 -0.5491311569
O   O20       1.0  0.88040  0.83940  0.21180  1.0000 -0.6327307244
O   O21       1.0  0.37360  0.58580  0.23950  1.0000 -0.7245158573
O   O22       1.0  0.37710  0.06230  0.30830  1.0000 -0.668487968
O   O23       1.0  0.67150  0.83910  0.57690  1.0000 -0.6885295455
O   O24       1.0  0.89550  0.97330  0.57760  1.0000 -0.6885295455
O   O25       1.0  0.19970  0.94170  0.23220  1.0000 -0.656802388
O   O26       1.0  0.15830  0.04890  0.29800  1.0000 -1.139663728
O   O27       1.0  0.31440  0.27420  0.20420  1.0000 -1.2238035221
O   O28       1.0  0.59990  0.46210  0.15680  1.0000 -0.5491311569
O   O29       1.0  0.83940  0.88040  0.28820  1.0000 -0.6327307244
O   O30       1.0  0.58580  0.37360  0.26050  1.0000 -0.7245158573
O   O31       1.0  0.06230  0.37710  0.19170  1.0000 -0.668487968
O   O32       1.0  0.83910  0.67150  0.92310  1.0000 -0.6885295455
O   O33       1.0  0.97330  0.89550  0.92240  1.0000 -0.6885295455
O   O34       1.0  0.94170  0.19970  0.26780  1.0000 -0.656802388
O   O35       1.0  0.04890  0.15830  0.20200  1.0000 -1.139663728
O   O36       1.0  0.27420  0.31440  0.29580  1.0000 -1.2238035221
