# DDEC6 charges by PACMAN v1.1 (https://github.com/mtap-research/PACMAN-charge/)
data_2018[Cu][sql]2[ASR]4
_chemical_formula_sum              "Cu8 P12 H60 C68 N8 O44"
_cell_length_a       11.822
_cell_length_b       12.914
_cell_length_c       18.9901
_cell_angle_alpha    90
_cell_angle_beta     111.221
_cell_angle_gamma    90

_symmetry_space_group_name_H-M    "P 1"
_symmetry_Int_Tables_number       1

loop_
  _symmetry_equiv_pos_as_xyz
  'x, y, z'

loop_
  _atom_site_type_symbol
  _atom_site_label
  _atom_site_symmetry_multiplicity
  _atom_site_fract_x
  _atom_site_fract_y
  _atom_site_fract_z
  _atom_site_occupancy
  _atom_site_charge
Cu  Cu1       1.0  0.55777  0.60146  0.05267  1.0000 0.9276036289
Cu  Cu2       1.0  0.40304  0.82062  0.98380  1.0000 0.8909982112
Cu  Cu3       1.0  0.44223  0.10146  0.44733  1.0000 0.9276036289
Cu  Cu4       1.0  0.59696  0.32062  0.51620  1.0000 0.8909982112
Cu  Cu5       1.0  0.44223  0.39854  0.94733  1.0000 0.9276036289
Cu  Cu6       1.0  0.59696  0.17938  0.01620  1.0000 0.8909982112
Cu  Cu7       1.0  0.55777  0.89854  0.55267  1.0000 0.9276036289
Cu  Cu8       1.0  0.40304  0.67938  0.48380  1.0000 0.8909982112
P   P1        1.0  0.36075  0.69176  0.11107  1.0000 1.2400346068
P   P2        1.0  0.77462  0.88438  0.29857  1.0000 1.2270569471
P   P3        1.0  0.35444  0.88289  0.36915  1.0000 1.2400346068
P   P4        1.0  0.63925  0.19176  0.38893  1.0000 1.2400346068
P   P5        1.0  0.22538  0.38438  0.20143  1.0000 1.2270569471
P   P6        1.0  0.64556  0.38289  0.13085  1.0000 1.2400346068
P   P7        1.0  0.63925  0.30824  0.88893  1.0000 1.2400346068
P   P8        1.0  0.22538  0.11562  0.70143  1.0000 1.2270569471
P   P9        1.0  0.64556  0.11711  0.63085  1.0000 1.2400346068
P   P10       1.0  0.36075  0.80824  0.61107  1.0000 1.2400346068
P   P11       1.0  0.77462  0.61562  0.79857  1.0000 1.2270569471
P   P12       1.0  0.35444  0.61711  0.86915  1.0000 1.2400346068
H   H1        1.0  0.72013  0.85737  0.13469  1.0000 0.3741366533
H   H2        1.0  0.25945  0.60703  0.15213  1.0000 0.3822862026
H   H3        1.0  0.20980  0.91850  0.27850  1.0000 0.3822862026
H   H4        1.0  0.92134  0.85612  0.38898  1.0000 0.3741366533
H   H5        1.0  0.76860  0.47469  0.03489  1.0000 0.1222203006
H   H6        1.0  0.96906  0.50955  0.06019  1.0000 0.1291092892
H   H7        1.0  0.03956  0.67652  0.08559  1.0000 0.1291092892
H   H8        1.0  0.90338  0.80963  0.07734  1.0000 0.1399096516
H   H9        1.0  0.78684  0.85787  0.95047  1.0000 0.1291092892
H   H10       1.0  0.71647  0.94396  0.83396  1.0000 0.1222203006
H   H11       1.0  0.51315  0.98517  0.78024  1.0000 0.1291092892
H   H12       1.0  0.38551  0.94043  0.84119  1.0000 0.1222203006
H   H13       1.0  0.29866  0.77050  0.23383  1.0000 0.1110271779
H   H14       1.0  0.60121  0.90875  0.37287  1.0000 0.1291092892
H   H15       1.0  0.60240  0.76205  0.18736  1.0000 0.1110271779
H   H16       1.0  0.27987  0.35737  0.36531  1.0000 0.3741366533
H   H17       1.0  0.74055  0.10703  0.34787  1.0000 0.3822862026
H   H18       1.0  0.79020  0.41850  0.22150  1.0000 0.3822862026
H   H19       1.0  0.07866  0.35612  0.11102  1.0000 0.3741366533
H   H20       1.0  0.23140  0.97469  0.46511  1.0000 0.1222203006
H   H21       1.0  0.03094  0.00955  0.43981  1.0000 0.1291092892
H   H22       1.0  0.96044  0.17652  0.41441  1.0000 0.1291092892
H   H23       1.0  0.09662  0.30963  0.42266  1.0000 0.1399096516
H   H24       1.0  0.21316  0.35787  0.54953  1.0000 0.1291092892
H   H25       1.0  0.28353  0.44396  0.66604  1.0000 0.1222203006
H   H26       1.0  0.48685  0.48517  0.71976  1.0000 0.1291092892
H   H27       1.0  0.61449  0.44043  0.65881  1.0000 0.1222203006
H   H28       1.0  0.70134  0.27050  0.26617  1.0000 0.1110271779
H   H29       1.0  0.39879  0.40875  0.12713  1.0000 0.1291092892
H   H30       1.0  0.39760  0.26205  0.31264  1.0000 0.1110271779
H   H31       1.0  0.27987  0.14263  0.86531  1.0000 0.3741366533
H   H32       1.0  0.74055  0.39297  0.84787  1.0000 0.3822862026
H   H33       1.0  0.79020  0.08150  0.72150  1.0000 0.3822862026
H   H34       1.0  0.07866  0.14388  0.61102  1.0000 0.3741366533
H   H35       1.0  0.23140  0.52531  0.96511  1.0000 0.1222203006
H   H36       1.0  0.03094  0.49045  0.93981  1.0000 0.1291092892
H   H37       1.0  0.96044  0.32348  0.91441  1.0000 0.1291092892
H   H38       1.0  0.09662  0.19037  0.92266  1.0000 0.1399096516
H   H39       1.0  0.21316  0.14213  0.04953  1.0000 0.1291092892
H   H40       1.0  0.28353  0.05604  0.16604  1.0000 0.1222203006
H   H41       1.0  0.48685  0.01483  0.21976  1.0000 0.1291092892
H   H42       1.0  0.61449  0.05957  0.15881  1.0000 0.1222203006
H   H43       1.0  0.70134  0.22950  0.76617  1.0000 0.1110271779
H   H44       1.0  0.39879  0.09125  0.62713  1.0000 0.1291092892
H   H45       1.0  0.39760  0.23795  0.81264  1.0000 0.1110271779
H   H46       1.0  0.72013  0.64263  0.63469  1.0000 0.3741366533
H   H47       1.0  0.25945  0.89297  0.65213  1.0000 0.3822862026
H   H48       1.0  0.20980  0.58150  0.77850  1.0000 0.3822862026
H   H49       1.0  0.92134  0.64388  0.88898  1.0000 0.3741366533
H   H50       1.0  0.76860  0.02531  0.53489  1.0000 0.1222203006
H   H51       1.0  0.96906  0.99045  0.56019  1.0000 0.1291092892
H   H52       1.0  0.03956  0.82348  0.58559  1.0000 0.1291092892
H   H53       1.0  0.90338  0.69037  0.57734  1.0000 0.1399096516
H   H54       1.0  0.78684  0.64213  0.45047  1.0000 0.1291092892
H   H55       1.0  0.71647  0.55604  0.33396  1.0000 0.1222203006
H   H56       1.0  0.51315  0.51483  0.28024  1.0000 0.1291092892
H   H57       1.0  0.38551  0.55957  0.34119  1.0000 0.1222203006
H   H58       1.0  0.29866  0.72950  0.73383  1.0000 0.1110271779
H   H59       1.0  0.60121  0.59125  0.87287  1.0000 0.1291092892
H   H60       1.0  0.60240  0.73795  0.68736  1.0000 0.1110271779
C   C1        1.0  0.79590  0.54280  0.04360  1.0000 0.1110271779
C   C2        1.0  0.91590  0.56310  0.05910  1.0000 -0.1415503505
C   C3        1.0  0.95750  0.66230  0.07310  1.0000 -0.0262851152
C   C4        1.0  0.87700  0.74140  0.06860  1.0000 -0.1415503505
C   C5        1.0  0.75620  0.71700  0.05080  1.0000 0.1222203006
C   C6        1.0  0.65790  0.79900  0.03900  1.0000 0.351482239
C   C7        1.0  0.62450  0.85290  0.96180  1.0000 0.1399096516
C   C8        1.0  0.70550  0.87580  0.92780  1.0000 -0.1469020988
C   C9        1.0  0.66340  0.92680  0.85820  1.0000 -0.0149381613
C   C10       1.0  0.54320  0.95110  0.82650  1.0000 -0.1177133951
C   C11       1.0  0.46760  0.92470  0.86350  1.0000 0.0875362497
C   C12       1.0  0.43930  0.75620  0.19940  1.0000 -0.1815739456
C   C13       1.0  0.38010  0.78720  0.24620  1.0000 -0.0904033515
C   C14       1.0  0.44080  0.84370  0.31260  1.0000 -0.1958369422
C   C15       1.0  0.56090  0.87030  0.32960  1.0000 -0.0482516024
C   C16       1.0  0.62260  0.84020  0.28270  1.0000 -0.1815739456
C   C17       1.0  0.56140  0.78300  0.21850  1.0000 -0.0579074058
C   C18       1.0  0.20410  0.04280  0.45640  1.0000 0.1110271779
C   C19       1.0  0.08410  0.06310  0.44090  1.0000 -0.1415503505
C   C20       1.0  0.04250  0.16230  0.42690  1.0000 -0.0262851152
C   C21       1.0  0.12300  0.24140  0.43140  1.0000 -0.1415503505
C   C22       1.0  0.24380  0.21700  0.44920  1.0000 0.1222203006
C   C23       1.0  0.34210  0.29900  0.46100  1.0000 0.351482239
C   C24       1.0  0.37550  0.35290  0.53820  1.0000 0.1399096516
C   C25       1.0  0.29450  0.37580  0.57220  1.0000 -0.1469020988
C   C26       1.0  0.33660  0.42680  0.64180  1.0000 -0.0151922447
C   C27       1.0  0.45680  0.45110  0.67350  1.0000 -0.1177133951
C   C28       1.0  0.53240  0.42470  0.63650  1.0000 0.0875362497
C   C29       1.0  0.56070  0.25620  0.30060  1.0000 -0.1815739456
C   C30       1.0  0.61990  0.28720  0.25380  1.0000 -0.0904033515
C   C31       1.0  0.55920  0.34370  0.18740  1.0000 -0.1958369422
C   C32       1.0  0.43910  0.37030  0.17040  1.0000 -0.0482516024
C   C33       1.0  0.37740  0.34020  0.21730  1.0000 -0.1815739456
C   C34       1.0  0.43860  0.28300  0.28150  1.0000 -0.0579074058
C   C35       1.0  0.20410  0.45720  0.95640  1.0000 0.1110271779
C   C36       1.0  0.08410  0.43690  0.94090  1.0000 -0.1415503505
C   C37       1.0  0.04250  0.33770  0.92690  1.0000 -0.0262851152
C   C38       1.0  0.12300  0.25860  0.93140  1.0000 -0.1415503505
C   C39       1.0  0.24380  0.28300  0.94920  1.0000 0.1222203006
C   C40       1.0  0.34210  0.20100  0.96100  1.0000 0.351482239
C   C41       1.0  0.37550  0.14710  0.03820  1.0000 0.1399096516
C   C42       1.0  0.29450  0.12420  0.07220  1.0000 -0.1469020988
C   C43       1.0  0.33660  0.07320  0.14180  1.0000 -0.0149381613
C   C44       1.0  0.45680  0.04890  0.17350  1.0000 -0.1177133951
C   C45       1.0  0.53240  0.07530  0.13650  1.0000 0.0875362497
C   C46       1.0  0.56070  0.24380  0.80060  1.0000 -0.1815739456
C   C47       1.0  0.61990  0.21280  0.75380  1.0000 -0.0904033515
C   C48       1.0  0.55920  0.15630  0.68740  1.0000 -0.1958369422
C   C49       1.0  0.43910  0.12970  0.67040  1.0000 -0.0482516024
C   C50       1.0  0.37740  0.15980  0.71730  1.0000 -0.1815739456
C   C51       1.0  0.43860  0.21700  0.78150  1.0000 -0.0579074058
C   C52       1.0  0.79590  0.95720  0.54360  1.0000 0.1110271779
C   C53       1.0  0.91590  0.93690  0.55910  1.0000 -0.1415503505
C   C54       1.0  0.95750  0.83770  0.57310  1.0000 -0.0262851152
C   C55       1.0  0.87700  0.75860  0.56860  1.0000 -0.1415503505
C   C56       1.0  0.75620  0.78300  0.55080  1.0000 0.1222203006
C   C57       1.0  0.65790  0.70100  0.53900  1.0000 0.351482239
C   C58       1.0  0.62450  0.64710  0.46180  1.0000 0.1399096516
C   C59       1.0  0.70550  0.62420  0.42780  1.0000 -0.1469020988
C   C60       1.0  0.66340  0.57320  0.35820  1.0000 -0.0151922447
C   C61       1.0  0.54320  0.54890  0.32650  1.0000 -0.1177133951
C   C62       1.0  0.46760  0.57530  0.36350  1.0000 0.0875362497
C   C63       1.0  0.43930  0.74380  0.69940  1.0000 -0.1815739456
C   C64       1.0  0.38010  0.71280  0.74620  1.0000 -0.0904033515
C   C65       1.0  0.44080  0.65630  0.81260  1.0000 -0.1958369422
C   C66       1.0  0.56090  0.62970  0.82960  1.0000 -0.0482516024
C   C67       1.0  0.62260  0.65980  0.78270  1.0000 -0.1815739456
C   C68       1.0  0.56140  0.71700  0.71850  1.0000 -0.0579074058
N   N1        1.0  0.71600  0.61820  0.04040  1.0000 -0.2657449079
N   N2        1.0  0.50710  0.87670  0.93100  1.0000 -0.2778083715
N   N3        1.0  0.28400  0.11820  0.45960  1.0000 -0.2648274037
N   N4        1.0  0.49290  0.37670  0.56900  1.0000 -0.2778083715
N   N5        1.0  0.28400  0.38180  0.95960  1.0000 -0.2657449079
N   N6        1.0  0.49290  0.12330  0.06900  1.0000 -0.2778083715
N   N7        1.0  0.71600  0.88180  0.54040  1.0000 -0.2657449079
N   N8        1.0  0.50710  0.62330  0.43100  1.0000 -0.2778083715
O   O1        1.0  0.55524  0.75170  0.04384  1.0000 -0.611706275
O   O2        1.0  0.70091  0.88040  0.09171  1.0000 -0.479169685
O   O3        1.0  0.43904  0.60630  0.09974  1.0000 -0.7306754138
O   O4        1.0  0.32144  0.77350  0.04954  1.0000 -0.7306754138
O   O5        1.0  0.24257  0.64710  0.11627  1.0000 -0.5980106029
O   O6        1.0  0.24935  0.95170  0.31615  1.0000 -0.5980106029
O   O7        1.0  0.30336  0.78940  0.39336  1.0000 -0.7578389901
O   O8        1.0  0.43244  0.95070  0.43324  1.0000 -0.7578389901
O   O9        1.0  0.84950  0.84160  0.37830  1.0000 -0.611706275
O   O10       1.0  0.81645  0.83770  0.23945  1.0000 -0.7306754138
O   O11       1.0  0.77330  0.00060  0.29890  1.0000 -0.7306754138
O   O12       1.0  0.44476  0.25170  0.45616  1.0000 -0.611706275
O   O13       1.0  0.29909  0.38040  0.40829  1.0000 -0.479169685
O   O14       1.0  0.56096  0.10630  0.40026  1.0000 -0.7306754138
O   O15       1.0  0.67856  0.27350  0.45046  1.0000 -0.7306754138
O   O16       1.0  0.75743  0.14710  0.38373  1.0000 -0.5980106029
O   O17       1.0  0.75065  0.45170  0.18385  1.0000 -0.5980106029
O   O18       1.0  0.69664  0.28940  0.10664  1.0000 -0.7578389901
O   O19       1.0  0.56756  0.45070  0.06676  1.0000 -0.7578389901
O   O20       1.0  0.15050  0.34160  0.12170  1.0000 -0.611706275
O   O21       1.0  0.18355  0.33770  0.26055  1.0000 -0.7306754138
O   O22       1.0  0.22670  0.50060  0.20110  1.0000 -0.7306754138
O   O23       1.0  0.44476  0.24830  0.95616  1.0000 -0.611706275
O   O24       1.0  0.29909  0.11960  0.90829  1.0000 -0.479169685
O   O25       1.0  0.56096  0.39370  0.90026  1.0000 -0.7306754138
O   O26       1.0  0.67856  0.22650  0.95046  1.0000 -0.7306754138
O   O27       1.0  0.75743  0.35290  0.88373  1.0000 -0.5980106029
O   O28       1.0  0.75065  0.04830  0.68385  1.0000 -0.5980106029
O   O29       1.0  0.69664  0.21060  0.60664  1.0000 -0.7578389901
O   O30       1.0  0.56756  0.04930  0.56676  1.0000 -0.7578389901
O   O31       1.0  0.15050  0.15840  0.62170  1.0000 -0.611706275
O   O32       1.0  0.18355  0.16230  0.76055  1.0000 -0.7306754138
O   O33       1.0  0.22670  0.99940  0.70110  1.0000 -0.7306754138
O   O34       1.0  0.55524  0.74830  0.54384  1.0000 -0.611706275
O   O35       1.0  0.70091  0.61960  0.59171  1.0000 -0.479169685
O   O36       1.0  0.43904  0.89370  0.59974  1.0000 -0.7306754138
O   O37       1.0  0.32144  0.72650  0.54954  1.0000 -0.7306754138
O   O38       1.0  0.24257  0.85290  0.61627  1.0000 -0.5980106029
O   O39       1.0  0.24935  0.54830  0.81615  1.0000 -0.5980106029
O   O40       1.0  0.30336  0.71060  0.89336  1.0000 -0.7578389901
O   O41       1.0  0.43244  0.54930  0.93324  1.0000 -0.7578389901
O   O42       1.0  0.84950  0.65840  0.87830  1.0000 -0.611706275
O   O43       1.0  0.81645  0.66230  0.73945  1.0000 -0.7306754138
O   O44       1.0  0.77330  0.49940  0.79890  1.0000 -0.7306754138
