# DDEC6 charges by PACMAN v1.1 (https://github.com/mtap-research/PACMAN-charge/)
data_2018[Co][scu]3[ASR]1
_chemical_formula_sum              "Co4 H36 C56 N16 O18"
_cell_length_a       12.5866
_cell_length_b       12.5866
_cell_length_c       13.6685
_cell_angle_alpha    66.5404
_cell_angle_beta     113.46
_cell_angle_gamma    115.596

_symmetry_space_group_name_H-M    "P 1"
_symmetry_Int_Tables_number       1

loop_
  _symmetry_equiv_pos_as_xyz
  'x, y, z'

loop_
  _atom_site_type_symbol
  _atom_site_label
  _atom_site_symmetry_multiplicity
  _atom_site_fract_x
  _atom_site_fract_y
  _atom_site_fract_z
  _atom_site_occupancy
  _atom_site_charge
Co  Co1       1.0  0.28836  0.25276  0.89533  1.0000 0.8919935514
Co  Co2       1.0  0.25276  0.28836  0.60467  1.0000 0.8919935514
Co  Co3       1.0  0.71164  0.74724  0.10467  1.0000 0.8919935514
Co  Co4       1.0  0.74724  0.71164  0.39533  1.0000 0.8919935514
H   H1        1.0  0.20000  0.12380  0.78350  1.0000 0.3512541045
H   H2        1.0  0.56980  0.11200  0.95440  1.0000 0.1314180334
H   H3        1.0  0.87880  0.37800  0.78990  1.0000 0.1415101577
H   H4        1.0  0.60460  0.51680  0.74910  1.0000 0.1194875159
H   H5        1.0  0.75600  0.45960  0.57910  1.0000 0.1194875159
H   H6        1.0  0.61310  0.68070  0.57650  1.0000 0.1194875159
H   H7        1.0  0.97930  0.11610  0.11390  1.0000 0.1314180334
H   H8        1.0  0.00670  0.27270  0.80550  1.0000 0.1194875159
H   H9        1.0  0.17340  0.12260  0.10650  1.0000 0.1194875159
H   H10       1.0  0.12380  0.20000  0.71650  1.0000 0.3512541045
H   H11       1.0  0.11200  0.56980  0.54560  1.0000 0.1314180334
H   H12       1.0  0.37800  0.87880  0.71010  1.0000 0.1415101577
H   H13       1.0  0.51680  0.60460  0.75090  1.0000 0.1194875159
H   H14       1.0  0.45960  0.75600  0.92090  1.0000 0.1194875159
H   H15       1.0  0.68070  0.61310  0.92350  1.0000 0.1194875159
H   H16       1.0  0.11610  0.97930  0.38610  1.0000 0.1314180334
H   H17       1.0  0.27270  0.00670  0.69450  1.0000 0.1194875159
H   H18       1.0  0.12260  0.17340  0.39350  1.0000 0.1194875159
H   H19       1.0  0.80000  0.87620  0.21650  1.0000 0.3512541045
H   H20       1.0  0.43020  0.88800  0.04560  1.0000 0.1314180334
H   H21       1.0  0.12120  0.62200  0.21010  1.0000 0.1415101577
H   H22       1.0  0.39540  0.48320  0.25090  1.0000 0.1194875159
H   H23       1.0  0.24400  0.54040  0.42090  1.0000 0.1194875159
H   H24       1.0  0.38690  0.31930  0.42350  1.0000 0.1194875159
H   H25       1.0  0.02070  0.88390  0.88610  1.0000 0.1314180334
H   H26       1.0  0.99330  0.72730  0.19450  1.0000 0.1194875159
H   H27       1.0  0.82660  0.87740  0.89350  1.0000 0.1194875159
H   H28       1.0  0.87620  0.80000  0.28350  1.0000 0.3512541045
H   H29       1.0  0.88800  0.43020  0.45440  1.0000 0.1314180334
H   H30       1.0  0.62200  0.12120  0.28990  1.0000 0.1415101577
H   H31       1.0  0.48320  0.39540  0.24910  1.0000 0.1194875159
H   H32       1.0  0.54040  0.24400  0.07910  1.0000 0.1194875159
H   H33       1.0  0.31930  0.38690  0.07650  1.0000 0.1194875159
H   H34       1.0  0.88390  0.02070  0.61390  1.0000 0.1314180334
H   H35       1.0  0.72730  0.99330  0.30550  1.0000 0.1194875159
H   H36       1.0  0.87740  0.82660  0.60650  1.0000 0.1194875159
C   C1        1.0  0.48309  0.27331  0.79190  1.0000 0.5874966224
C   C2        1.0  0.60914  0.26146  0.83010  1.0000 -0.0888664248
C   C3        1.0  0.63075  0.16305  0.91850  1.0000 -0.1273293356
C   C4        1.0  0.70305  0.34055  0.78200  1.0000 0.1497404528
C   C5        1.0  0.73922  0.13658  0.95650  1.0000 -0.0888664248
C   C6        1.0  0.81526  0.32174  0.82100  1.0000 -0.2644548799
C   C7        1.0  0.74441  0.01899  0.04440  1.0000 0.5692451884
C   C8        1.0  0.83260  0.21860  0.90690  1.0000 0.1555771072
C   C9        1.0  0.63656  0.52524  0.69460  1.0000 -0.1068115394
C   C10       1.0  0.71997  0.49503  0.60000  1.0000 0.1194875159
C   C11       1.0  0.64156  0.61544  0.59880  1.0000 -0.0247173897
C   C12       1.0  0.00771  0.14769  0.05140  1.0000 -0.1068115394
C   C13       1.0  0.02427  0.23453  0.88130  1.0000 0.114907964
C   C14       1.0  0.11529  0.15251  0.04650  1.0000 -0.0275762166
C   C15       1.0  0.27331  0.48309  0.70810  1.0000 0.5874966224
C   C16       1.0  0.26146  0.60914  0.66990  1.0000 -0.0888664248
C   C17       1.0  0.16305  0.63075  0.58150  1.0000 -0.1273293356
C   C18       1.0  0.34055  0.70305  0.71800  1.0000 0.1497404528
C   C19       1.0  0.13658  0.73922  0.54350  1.0000 -0.0888664248
C   C20       1.0  0.32174  0.81526  0.67900  1.0000 -0.2644548799
C   C21       1.0  0.01899  0.74441  0.45560  1.0000 0.5692451884
C   C22       1.0  0.21860  0.83260  0.59310  1.0000 0.1555771072
C   C23       1.0  0.52524  0.63656  0.80540  1.0000 -0.1068115394
C   C24       1.0  0.49503  0.71997  0.90000  1.0000 0.1194875159
C   C25       1.0  0.61544  0.64156  0.90120  1.0000 -0.0247173897
C   C26       1.0  0.14769  0.00771  0.44860  1.0000 -0.1068115394
C   C27       1.0  0.23453  0.02427  0.61870  1.0000 0.114907964
C   C28       1.0  0.15251  0.11529  0.45350  1.0000 -0.0275762166
C   C29       1.0  0.51691  0.72669  0.20810  1.0000 0.5874966224
C   C30       1.0  0.39086  0.73854  0.16990  1.0000 -0.0888664248
C   C31       1.0  0.36925  0.83695  0.08150  1.0000 -0.1273293356
C   C32       1.0  0.29695  0.65945  0.21800  1.0000 0.1497404528
C   C33       1.0  0.26078  0.86342  0.04350  1.0000 -0.0888664248
C   C34       1.0  0.18474  0.67826  0.17900  1.0000 -0.2644548799
C   C35       1.0  0.25559  0.98101  0.95560  1.0000 0.5692451884
C   C36       1.0  0.16740  0.78140  0.09310  1.0000 0.1555771072
C   C37       1.0  0.36344  0.47476  0.30540  1.0000 -0.1068115394
C   C38       1.0  0.28003  0.50497  0.40000  1.0000 0.1194875159
C   C39       1.0  0.35844  0.38456  0.40120  1.0000 -0.0247173897
C   C40       1.0  0.99229  0.85231  0.94860  1.0000 -0.1068115394
C   C41       1.0  0.97573  0.76547  0.11870  1.0000 0.114907964
C   C42       1.0  0.88471  0.84749  0.95350  1.0000 -0.0275762166
C   C43       1.0  0.72669  0.51691  0.29190  1.0000 0.5874966224
C   C44       1.0  0.73854  0.39086  0.33010  1.0000 -0.0888664248
C   C45       1.0  0.83695  0.36925  0.41850  1.0000 -0.1273293356
C   C46       1.0  0.65945  0.29695  0.28200  1.0000 0.1497404528
C   C47       1.0  0.86342  0.26078  0.45650  1.0000 -0.0888664248
C   C48       1.0  0.67826  0.18474  0.32100  1.0000 -0.2644548799
C   C49       1.0  0.98101  0.25559  0.54440  1.0000 0.5692451884
C   C50       1.0  0.78140  0.16740  0.40690  1.0000 0.1555771072
C   C51       1.0  0.47476  0.36344  0.19460  1.0000 -0.1068115394
C   C52       1.0  0.50497  0.28003  0.10000  1.0000 0.1194875159
C   C53       1.0  0.38456  0.35844  0.09880  1.0000 -0.0247173897
C   C54       1.0  0.85231  0.99229  0.55140  1.0000 -0.1068115394
C   C55       1.0  0.76547  0.97573  0.38130  1.0000 0.114907964
C   C56       1.0  0.84749  0.88471  0.54650  1.0000 -0.0275762166
N   N1        1.0  0.12602  0.20778  0.94060  1.0000 -0.302779765
N   N2        1.0  0.40286  0.30614  0.03970  1.0000 -0.2823513458
N   N3        1.0  0.68810  0.44870  0.69500  1.0000 0.006240365
N   N4        1.0  0.94911  0.19969  0.94400  1.0000 0.006240365
N   N5        1.0  0.20778  0.12602  0.55940  1.0000 -0.302779765
N   N6        1.0  0.30614  0.40286  0.46030  1.0000 -0.2823513458
N   N7        1.0  0.44870  0.68810  0.80500  1.0000 0.006240365
N   N8        1.0  0.19969  0.94911  0.55600  1.0000 0.006240365
N   N9        1.0  0.87398  0.79222  0.05940  1.0000 -0.302779765
N   N10       1.0  0.59714  0.69386  0.96030  1.0000 -0.2823513458
N   N11       1.0  0.31190  0.55130  0.30500  1.0000 0.006240365
N   N12       1.0  0.05089  0.80031  0.05600  1.0000 0.006240365
N   N13       1.0  0.79222  0.87398  0.44060  1.0000 -0.302779765
N   N14       1.0  0.69386  0.59714  0.53970  1.0000 -0.2823513458
N   N15       1.0  0.55130  0.31190  0.19500  1.0000 0.006240365
N   N16       1.0  0.80031  0.05089  0.44400  1.0000 0.006240365
O   O1        1.0  0.28598  0.07086  0.99029  1.0000 -0.549383681
O   O2        1.0  0.44803  0.27735  0.86296  1.0000 -0.549383681
O   O3        1.0  0.27450  0.42534  0.80749  1.0000 -0.549383681
O   O4        1.0  0.77571  0.01929  0.14265  1.0000 -0.5422231863
O   O5        1.0  0.07086  0.28598  0.50971  1.0000 -0.549383681
O   O6        1.0  0.27735  0.44803  0.63704  1.0000 -0.549383681
O   O7        1.0  0.42534  0.27450  0.69251  1.0000 -0.549383681
O   O8        1.0  0.01929  0.77571  0.35735  1.0000 -0.5422231863
O   O9        1.0  0.71402  0.92914  0.00971  1.0000 -0.549383681
O   O10       1.0  0.55197  0.72265  0.13704  1.0000 -0.549383681
O   O11       1.0  0.72550  0.57466  0.19251  1.0000 -0.549383681
O   O12       1.0  0.22429  0.98071  0.85735  1.0000 -0.5422231863
O   O13       1.0  0.92914  0.71402  0.49029  1.0000 -0.549383681
O   O14       1.0  0.72265  0.55197  0.36296  1.0000 -0.549383681
O   O15       1.0  0.57466  0.72550  0.30749  1.0000 -0.549383681
O   O16       1.0  0.98071  0.22429  0.64265  1.0000 -0.5422231863
O   O17       1.0  0.18880  0.18880  0.75000  1.0000 -0.6860558997
O   O18       1.0  0.81120  0.81120  0.25000  1.0000 -0.6860558997
