# DDEC6 charges by PACMAN v1.1 (https://github.com/mtap-research/PACMAN-charge/)
data_2018[Zn][nan]3[ASR]8
_chemical_formula_sum              "Zn8 H32 C44 O28"
_cell_length_a       10.3263
_cell_length_b       11.8565
_cell_length_c       20.3153
_cell_angle_alpha    90
_cell_angle_beta     90
_cell_angle_gamma    90

_symmetry_space_group_name_H-M    "P 1"
_symmetry_Int_Tables_number       1

loop_
  _symmetry_equiv_pos_as_xyz
  'x, y, z'

loop_
  _atom_site_type_symbol
  _atom_site_label
  _atom_site_symmetry_multiplicity
  _atom_site_fract_x
  _atom_site_fract_y
  _atom_site_fract_z
  _atom_site_occupancy
  _atom_site_charge
Zn  Zn1       1.0  0.53898  0.41826  0.49114  1.0000 0.9711458628
Zn  Zn2       1.0  0.35201  0.17482  0.50768  1.0000 0.9350004141
Zn  Zn3       1.0  0.96102  0.58174  0.99114  1.0000 0.9711458628
Zn  Zn4       1.0  0.14799  0.82518  0.00768  1.0000 0.9350004141
Zn  Zn5       1.0  0.46102  0.91826  0.00886  1.0000 0.9711458628
Zn  Zn6       1.0  0.64799  0.67482  0.99232  1.0000 0.9350004141
Zn  Zn7       1.0  0.03898  0.08174  0.50886  1.0000 0.9711458628
Zn  Zn8       1.0  0.85201  0.32518  0.49232  1.0000 0.9350004141
H   H1        1.0  0.26091  0.47129  0.48897  1.0000 0.0849378724
H   H2        1.0  0.33820  0.45814  0.38196  1.0000 0.1306041815
H   H3        1.0  0.18525  0.43713  0.37864  1.0000 0.1405121032
H   H4        1.0  0.28305  0.33271  0.37416  1.0000 0.1306041815
H   H5        1.0  0.92460  0.43124  0.30017  1.0000 0.1306041815
H   H6        1.0  0.94733  0.47345  0.18877  1.0000 0.1230811868
H   H7        1.0  0.57180  0.56570  0.18292  1.0000 0.1306041815
H   H8        1.0  0.54863  0.50785  0.29122  1.0000 0.1230811868
H   H9        1.0  0.23909  0.52871  0.98897  1.0000 0.0849378724
H   H10       1.0  0.16180  0.54186  0.88196  1.0000 0.1306041815
H   H11       1.0  0.31475  0.56287  0.87864  1.0000 0.1405121032
H   H12       1.0  0.21695  0.66729  0.87416  1.0000 0.1306041815
H   H13       1.0  0.57540  0.56876  0.80017  1.0000 0.1306041815
H   H14       1.0  0.55267  0.52655  0.68877  1.0000 0.1230811868
H   H15       1.0  0.92820  0.43430  0.68292  1.0000 0.1306041815
H   H16       1.0  0.95137  0.49215  0.79122  1.0000 0.1230811868
H   H17       1.0  0.73909  0.97129  0.01103  1.0000 0.0849378724
H   H18       1.0  0.66180  0.95814  0.11804  1.0000 0.1306041815
H   H19       1.0  0.81475  0.93713  0.12136  1.0000 0.1405121032
H   H20       1.0  0.71695  0.83271  0.12584  1.0000 0.1306041815
H   H21       1.0  0.07540  0.93124  0.19983  1.0000 0.1306041815
H   H22       1.0  0.05267  0.97345  0.31123  1.0000 0.1230811868
H   H23       1.0  0.42820  0.06570  0.31708  1.0000 0.1306041815
H   H24       1.0  0.45137  0.00785  0.20878  1.0000 0.1230811868
H   H25       1.0  0.76091  0.02871  0.51103  1.0000 0.0849378724
H   H26       1.0  0.83820  0.04186  0.61804  1.0000 0.1306041815
H   H27       1.0  0.68525  0.06287  0.62136  1.0000 0.1405121032
H   H28       1.0  0.78305  0.16729  0.62584  1.0000 0.1306041815
H   H29       1.0  0.42460  0.06876  0.69983  1.0000 0.1306041815
H   H30       1.0  0.44733  0.02655  0.81123  1.0000 0.1230811868
H   H31       1.0  0.07180  0.93430  0.81708  1.0000 0.1306041815
H   H32       1.0  0.04863  0.99215  0.70878  1.0000 0.1230811868
C   C1        1.0  0.14100  0.32980  0.48840  1.0000 0.5911791866
C   C2        1.0  0.26390  0.39440  0.46880  1.0000 0.0954317842
C   C3        1.0  0.26800  0.40670  0.39430  1.0000 -0.4655376803
C   C4        1.0  0.72000  0.43850  0.37760  1.0000 0.5982590262
C   C5        1.0  0.73350  0.46700  0.30650  1.0000 -0.0290666353
C   C6        1.0  0.85180  0.45680  0.27580  1.0000 -0.1066654119
C   C7        1.0  0.86600  0.48340  0.20990  1.0000 -0.10176942
C   C8        1.0  0.76150  0.52430  0.17510  1.0000 -0.0180145437
C   C9        1.0  0.64400  0.53580  0.20610  1.0000 -0.10176942
C   C10       1.0  0.63140  0.50390  0.27090  1.0000 -0.10176942
C   C11       1.0  0.77590  0.55590  0.10300  1.0000 0.5911791866
C   C12       1.0  0.35900  0.67020  0.98840  1.0000 0.5911791866
C   C13       1.0  0.23610  0.60560  0.96880  1.0000 0.0949719195
C   C14       1.0  0.23200  0.59330  0.89430  1.0000 -0.4655376803
C   C15       1.0  0.78000  0.56150  0.87760  1.0000 0.5982590262
C   C16       1.0  0.76650  0.53300  0.80650  1.0000 -0.0290666353
C   C17       1.0  0.64820  0.54320  0.77580  1.0000 -0.1066654119
C   C18       1.0  0.63400  0.51660  0.70990  1.0000 -0.10176942
C   C19       1.0  0.73850  0.47570  0.67510  1.0000 -0.0180145437
C   C20       1.0  0.85600  0.46420  0.70610  1.0000 -0.10176942
C   C21       1.0  0.86860  0.49610  0.77090  1.0000 -0.10176942
C   C22       1.0  0.72410  0.44410  0.60300  1.0000 0.5911791866
C   C23       1.0  0.85900  0.82980  0.01160  1.0000 0.5911791866
C   C24       1.0  0.73610  0.89440  0.03120  1.0000 0.0954317842
C   C25       1.0  0.73200  0.90670  0.10570  1.0000 -0.4655376803
C   C26       1.0  0.28000  0.93850  0.12240  1.0000 0.5982590262
C   C27       1.0  0.26650  0.96700  0.19350  1.0000 -0.0290666353
C   C28       1.0  0.14820  0.95680  0.22420  1.0000 -0.1066654119
C   C29       1.0  0.13400  0.98340  0.29010  1.0000 -0.10176942
C   C30       1.0  0.23850  0.02430  0.32490  1.0000 -0.0180145437
C   C31       1.0  0.35600  0.03580  0.29390  1.0000 -0.10176942
C   C32       1.0  0.36860  0.00390  0.22910  1.0000 -0.10176942
C   C33       1.0  0.22410  0.05590  0.39700  1.0000 0.5911791866
C   C34       1.0  0.64100  0.17020  0.51160  1.0000 0.5911791866
C   C35       1.0  0.76390  0.10560  0.53120  1.0000 0.0954317842
C   C36       1.0  0.76800  0.09330  0.60570  1.0000 -0.4655376803
C   C37       1.0  0.22000  0.06150  0.62240  1.0000 0.5982590262
C   C38       1.0  0.23350  0.03300  0.69350  1.0000 -0.0290666353
C   C39       1.0  0.35180  0.04320  0.72420  1.0000 -0.1066654119
C   C40       1.0  0.36600  0.01660  0.79010  1.0000 -0.10176942
C   C41       1.0  0.26150  0.97570  0.82490  1.0000 -0.0180145437
C   C42       1.0  0.14400  0.96420  0.79390  1.0000 -0.10176942
C   C43       1.0  0.13140  0.99610  0.72910  1.0000 -0.10176942
C   C44       1.0  0.27590  0.94410  0.89700  1.0000 0.5911791866
O   O1        1.0  0.15490  0.23020  0.50821  1.0000 -0.5663343724
O   O2        1.0  0.03630  0.37980  0.48140  1.0000 -0.485954551
O   O3        1.0  0.37570  0.33740  0.49216  1.0000 -0.6098411139
O   O4        1.0  0.61170  0.45420  0.40373  1.0000 -0.5594787653
O   O5        1.0  0.81810  0.39800  0.40609  1.0000 -0.5293197091
O   O6        1.0  0.88870  0.54590  0.07893  1.0000 -0.5767158474
O   O7        1.0  0.67600  0.58370  0.07317  1.0000 -0.523872679
O   O8        1.0  0.34510  0.76980  0.00821  1.0000 -0.5663343724
O   O9        1.0  0.46370  0.62020  0.98140  1.0000 -0.485954551
O   O10       1.0  0.12430  0.66260  0.99216  1.0000 -0.6098411139
O   O11       1.0  0.88830  0.54580  0.90373  1.0000 -0.5594787653
O   O12       1.0  0.68190  0.60200  0.90609  1.0000 -0.5293197091
O   O13       1.0  0.61130  0.45410  0.57893  1.0000 -0.5767158474
O   O14       1.0  0.82400  0.41630  0.57317  1.0000 -0.523872679
O   O15       1.0  0.84510  0.73020  0.99179  1.0000 -0.5663343724
O   O16       1.0  0.96370  0.87980  0.01860  1.0000 -0.485954551
O   O17       1.0  0.62430  0.83740  0.00784  1.0000 -0.6098411139
O   O18       1.0  0.38830  0.95420  0.09627  1.0000 -0.5594787653
O   O19       1.0  0.18190  0.89800  0.09391  1.0000 -0.5293197091
O   O20       1.0  0.11130  0.04590  0.42107  1.0000 -0.5767158474
O   O21       1.0  0.32400  0.08370  0.42683  1.0000 -0.523872679
O   O22       1.0  0.65490  0.26980  0.49179  1.0000 -0.5663343724
O   O23       1.0  0.53630  0.12020  0.51860  1.0000 -0.485954551
O   O24       1.0  0.87570  0.16260  0.50784  1.0000 -0.6098411139
O   O25       1.0  0.11170  0.04580  0.59627  1.0000 -0.5594787653
O   O26       1.0  0.31810  0.10200  0.59391  1.0000 -0.5293197091
O   O27       1.0  0.38870  0.95410  0.92107  1.0000 -0.5767158474
O   O28       1.0  0.17600  0.91630  0.92683  1.0000 -0.523872679
