# DDEC6 charges by PACMAN v1.1 (https://github.com/mtap-research/PACMAN-charge/)
data_2018[Gd][nan]3[ASR]1
_chemical_formula_sum              "Gd4 H44 C84 O24"
_cell_length_a       17.9192
_cell_length_b       17.9192
_cell_length_c       13.9738
_cell_angle_alpha    78.9043
_cell_angle_beta     101.096
_cell_angle_gamma    135

_symmetry_space_group_name_H-M    "P 1"
_symmetry_Int_Tables_number       1

loop_
  _symmetry_equiv_pos_as_xyz
  'x, y, z'

loop_
  _atom_site_type_symbol
  _atom_site_label
  _atom_site_symmetry_multiplicity
  _atom_site_fract_x
  _atom_site_fract_y
  _atom_site_fract_z
  _atom_site_occupancy
  _atom_site_charge
Gd  Gd1       1.0  0.01729  0.40009  0.54629  1.0000 2.0197208693
Gd  Gd2       1.0  0.40009  0.01729  0.95371  1.0000 2.0197208693
Gd  Gd3       1.0  0.98271  0.59991  0.45371  1.0000 2.0197208693
Gd  Gd4       1.0  0.59991  0.98271  0.04629  1.0000 2.0197208693
H   H1        1.0  0.81600  0.28180  0.79810  1.0000 0.131935062
H   H2        1.0  0.63780  0.29880  0.91470  1.0000 0.131935062
H   H3        1.0  0.83780  0.52420  0.71090  1.0000 0.1121719399
H   H4        1.0  0.85620  0.63120  0.79470  1.0000 0.120200989
H   H5        1.0  0.82730  0.73070  0.82730  1.0000 0.1121719399
H   H6        1.0  0.53370  0.46310  0.89980  1.0000 0.1121719399
H   H7        1.0  0.56200  0.36220  0.86820  1.0000 0.120200989
H   H8        1.0  0.81840  0.80060  0.92960  1.0000 0.1121719399
H   H9        1.0  0.79640  0.90120  0.97700  1.0000 0.120200989
H   H10       1.0  0.48060  0.66180  0.93040  1.0000 0.120200989
H   H11       1.0  0.50280  0.56400  0.87960  1.0000 0.1121719399
H   H12       1.0  0.28180  0.81600  0.70190  1.0000 0.131935062
H   H13       1.0  0.29880  0.63780  0.58530  1.0000 0.131935062
H   H14       1.0  0.52420  0.83780  0.78910  1.0000 0.1121719399
H   H15       1.0  0.63120  0.85620  0.70530  1.0000 0.120200989
H   H16       1.0  0.73070  0.82730  0.67270  1.0000 0.1121719399
H   H17       1.0  0.46310  0.53370  0.60020  1.0000 0.1121719399
H   H18       1.0  0.36220  0.56200  0.63180  1.0000 0.120200989
H   H19       1.0  0.80060  0.81840  0.57040  1.0000 0.1121719399
H   H20       1.0  0.90120  0.79640  0.52300  1.0000 0.120200989
H   H21       1.0  0.66180  0.48060  0.56960  1.0000 0.120200989
H   H22       1.0  0.56400  0.50280  0.62040  1.0000 0.1121719399
H   H23       1.0  0.18400  0.71820  0.20190  1.0000 0.131935062
H   H24       1.0  0.36220  0.70120  0.08530  1.0000 0.131935062
H   H25       1.0  0.16220  0.47580  0.28910  1.0000 0.1121719399
H   H26       1.0  0.14380  0.36880  0.20530  1.0000 0.120200989
H   H27       1.0  0.17270  0.26930  0.17270  1.0000 0.1121719399
H   H28       1.0  0.46630  0.53690  0.10020  1.0000 0.1121719399
H   H29       1.0  0.43800  0.63780  0.13180  1.0000 0.120200989
H   H30       1.0  0.18160  0.19940  0.07040  1.0000 0.1121719399
H   H31       1.0  0.20360  0.09880  0.02300  1.0000 0.120200989
H   H32       1.0  0.51940  0.33820  0.06960  1.0000 0.120200989
H   H33       1.0  0.49720  0.43600  0.12040  1.0000 0.1121719399
H   H34       1.0  0.71820  0.18400  0.29810  1.0000 0.131935062
H   H35       1.0  0.70120  0.36220  0.41470  1.0000 0.131935062
H   H36       1.0  0.47580  0.16220  0.21090  1.0000 0.1121719399
H   H37       1.0  0.36880  0.14380  0.29470  1.0000 0.120200989
H   H38       1.0  0.26930  0.17270  0.32730  1.0000 0.1121719399
H   H39       1.0  0.53690  0.46630  0.39980  1.0000 0.1121719399
H   H40       1.0  0.63780  0.43800  0.36820  1.0000 0.120200989
H   H41       1.0  0.19940  0.18160  0.42960  1.0000 0.1121719399
H   H42       1.0  0.09880  0.20360  0.47700  1.0000 0.120200989
H   H43       1.0  0.33820  0.51940  0.43040  1.0000 0.120200989
H   H44       1.0  0.43600  0.49720  0.37960  1.0000 0.1121719399
C   C1        1.0  0.91215  0.45085  0.66910  1.0000 0.6500138512
C   C2        1.0  0.83626  0.40794  0.74230  1.0000 -0.0254201869
C   C3        1.0  0.79421  0.31659  0.80140  1.0000 -0.0972334412
C   C4        1.0  0.71934  0.27486  0.86620  1.0000 -0.0224112573
C   C5        1.0  0.69007  0.32813  0.87230  1.0000 -0.1489821205
C   C6        1.0  0.73633  0.42327  0.81760  1.0000 0.0686543226
C   C7        1.0  0.80791  0.46089  0.75110  1.0000 -0.1379842266
C   C8        1.0  0.67342  0.17558  0.92870  1.0000 0.6233452727
C   C9        1.0  0.71402  0.48618  0.83140  1.0000 0.0686543226
C   C10       1.0  0.79065  0.59615  0.81780  1.0000 -0.1379842266
C   C11       1.0  0.77347  0.65573  0.83720  1.0000 -0.1489821205
C   C12       1.0  0.67865  0.60755  0.87100  1.0000 0.0608051067
C   C13       1.0  0.60049  0.49791  0.88010  1.0000 -0.1489821205
C   C14       1.0  0.61708  0.43732  0.86100  1.0000 -0.1379842266
C   C15       1.0  0.66436  0.67184  0.89990  1.0000 0.0686543226
C   C16       1.0  0.74902  0.77158  0.92920  1.0000 -0.1584448869
C   C17       1.0  0.73591  0.83169  0.95830  1.0000 -0.0972334412
C   C18       1.0  0.63639  0.79141  0.96030  1.0000 -0.0224112573
C   C19       1.0  0.55000  0.69080  0.93030  1.0000 -0.0972334412
C   C20       1.0  0.56335  0.63265  0.90040  1.0000 -0.1584448869
C   C21       1.0  0.62099  0.85401  0.99460  1.0000 0.562122496
C   C22       1.0  0.45085  0.91215  0.83090  1.0000 0.6500138512
C   C23       1.0  0.40794  0.83626  0.75770  1.0000 -0.0254201869
C   C24       1.0  0.31659  0.79421  0.69860  1.0000 -0.0972334412
C   C25       1.0  0.27486  0.71934  0.63380  1.0000 -0.0224112573
C   C26       1.0  0.32813  0.69007  0.62770  1.0000 -0.1489821205
C   C27       1.0  0.42327  0.73633  0.68240  1.0000 0.0686543226
C   C28       1.0  0.46089  0.80791  0.74890  1.0000 -0.1379842266
C   C29       1.0  0.17558  0.67342  0.57130  1.0000 0.6233452727
C   C30       1.0  0.48618  0.71402  0.66860  1.0000 0.0686543226
C   C31       1.0  0.59615  0.79065  0.68220  1.0000 -0.1379842266
C   C32       1.0  0.65573  0.77347  0.66280  1.0000 -0.1489821205
C   C33       1.0  0.60755  0.67865  0.62900  1.0000 0.0608051067
C   C34       1.0  0.49791  0.60049  0.61990  1.0000 -0.1489821205
C   C35       1.0  0.43732  0.61708  0.63900  1.0000 -0.1379842266
C   C36       1.0  0.67184  0.66436  0.60010  1.0000 0.0686543226
C   C37       1.0  0.77158  0.74902  0.57080  1.0000 -0.1584448869
C   C38       1.0  0.83169  0.73591  0.54170  1.0000 -0.0972334412
C   C39       1.0  0.79141  0.63639  0.53970  1.0000 -0.0224112573
C   C40       1.0  0.69080  0.55000  0.56970  1.0000 -0.0972334412
C   C41       1.0  0.63265  0.56335  0.59960  1.0000 -0.1584448869
C   C42       1.0  0.85401  0.62099  0.50540  1.0000 0.562122496
C   C43       1.0  0.08785  0.54915  0.33090  1.0000 0.6500138512
C   C44       1.0  0.16374  0.59206  0.25770  1.0000 -0.0254201869
C   C45       1.0  0.20579  0.68341  0.19860  1.0000 -0.0972334412
C   C46       1.0  0.28066  0.72514  0.13380  1.0000 -0.0224112573
C   C47       1.0  0.30993  0.67187  0.12770  1.0000 -0.1489821205
C   C48       1.0  0.26367  0.57673  0.18240  1.0000 0.0686543226
C   C49       1.0  0.19209  0.53911  0.24890  1.0000 -0.1379842266
C   C50       1.0  0.32658  0.82442  0.07130  1.0000 0.6233452727
C   C51       1.0  0.28598  0.51382  0.16860  1.0000 0.0686543226
C   C52       1.0  0.20935  0.40385  0.18220  1.0000 -0.1379842266
C   C53       1.0  0.22653  0.34427  0.16280  1.0000 -0.1489821205
C   C54       1.0  0.32135  0.39245  0.12900  1.0000 0.0608051067
C   C55       1.0  0.39951  0.50209  0.11990  1.0000 -0.1489821205
C   C56       1.0  0.38292  0.56268  0.13900  1.0000 -0.1379842266
C   C57       1.0  0.33564  0.32816  0.10010  1.0000 0.0686543226
C   C58       1.0  0.25098  0.22842  0.07080  1.0000 -0.1584448869
C   C59       1.0  0.26409  0.16831  0.04170  1.0000 -0.0972334412
C   C60       1.0  0.36361  0.20859  0.03970  1.0000 -0.0224112573
C   C61       1.0  0.45000  0.30920  0.06970  1.0000 -0.0972334412
C   C62       1.0  0.43665  0.36735  0.09960  1.0000 -0.1584448869
C   C63       1.0  0.37901  0.14599  0.00540  1.0000 0.562122496
C   C64       1.0  0.54915  0.08785  0.16910  1.0000 0.6500138512
C   C65       1.0  0.59206  0.16374  0.24230  1.0000 -0.0254201869
C   C66       1.0  0.68341  0.20579  0.30140  1.0000 -0.0972334412
C   C67       1.0  0.72514  0.28066  0.36620  1.0000 -0.0224112573
C   C68       1.0  0.67187  0.30993  0.37230  1.0000 -0.1489821205
C   C69       1.0  0.57673  0.26367  0.31760  1.0000 0.0686543226
C   C70       1.0  0.53911  0.19209  0.25110  1.0000 -0.1379842266
C   C71       1.0  0.82442  0.32658  0.42870  1.0000 0.6233452727
C   C72       1.0  0.51382  0.28598  0.33140  1.0000 0.0686543226
C   C73       1.0  0.40385  0.20935  0.31780  1.0000 -0.1379842266
C   C74       1.0  0.34427  0.22653  0.33720  1.0000 -0.1489821205
C   C75       1.0  0.39245  0.32135  0.37100  1.0000 0.0608051067
C   C76       1.0  0.50209  0.39951  0.38010  1.0000 -0.1489821205
C   C77       1.0  0.56268  0.38292  0.36100  1.0000 -0.1379842266
C   C78       1.0  0.32816  0.33564  0.39990  1.0000 0.0686543226
C   C79       1.0  0.22842  0.25098  0.42920  1.0000 -0.1584448869
C   C80       1.0  0.16831  0.26409  0.45830  1.0000 -0.0972334412
C   C81       1.0  0.20859  0.36361  0.46030  1.0000 -0.0224112573
C   C82       1.0  0.30920  0.45000  0.43030  1.0000 -0.0972334412
C   C83       1.0  0.36735  0.43665  0.40040  1.0000 -0.1584448869
C   C84       1.0  0.14599  0.37901  0.49460  1.0000 0.562122496
O   O1        1.0  0.93157  0.39603  0.66086  1.0000 -0.6818271259
O   O2        1.0  0.95035  0.53585  0.62028  1.0000 -0.6239806045
O   O3        1.0  0.72475  0.15055  0.95150  1.0000 -0.5870112608
O   O4        1.0  0.58183  0.11703  0.95883  1.0000 -0.7463414649
O   O5        1.0  0.53188  0.80896  0.01595  1.0000 -0.6138988862
O   O6        1.0  0.70024  0.95216  0.00190  1.0000 -0.6325666497
O   O7        1.0  0.39603  0.93157  0.83914  1.0000 -0.6818271259
O   O8        1.0  0.53585  0.95035  0.87972  1.0000 -0.6239806045
O   O9        1.0  0.15055  0.72475  0.54850  1.0000 -0.5870112608
O   O10       1.0  0.11703  0.58183  0.54117  1.0000 -0.7463414649
O   O11       1.0  0.80896  0.53188  0.48405  1.0000 -0.6138988862
O   O12       1.0  0.95216  0.70024  0.49810  1.0000 -0.6325666497
O   O13       1.0  0.06843  0.60397  0.33914  1.0000 -0.6818271259
O   O14       1.0  0.04965  0.46415  0.37972  1.0000 -0.6325666497
O   O15       1.0  0.27525  0.84945  0.04850  1.0000 -0.5870112608
O   O16       1.0  0.41817  0.88297  0.04117  1.0000 -0.7463414649
O   O17       1.0  0.46812  0.19104  0.98405  1.0000 -0.6138988862
O   O18       1.0  0.29976  0.04784  0.99810  1.0000 -0.6325666497
O   O19       1.0  0.60397  0.06843  0.16086  1.0000 -0.6818271259
O   O20       1.0  0.46415  0.04965  0.12028  1.0000 -0.6239806045
O   O21       1.0  0.84945  0.27525  0.45150  1.0000 -0.5870112608
O   O22       1.0  0.88297  0.41817  0.45883  1.0000 -0.7463414649
O   O23       1.0  0.19104  0.46812  0.51595  1.0000 -0.6138988862
O   O24       1.0  0.04784  0.29976  0.50190  1.0000 -0.6325666497
