# DDEC6 charges by PACMAN v1.1 (https://github.com/mtap-research/PACMAN-charge/)
data_2018[Dy][flu]3[ASR]2
_chemical_formula_sum              "Dy8 H30 C58 N4 O36"
_cell_length_a       13.8439
_cell_length_b       13.8439
_cell_length_c       21.7893
_cell_angle_alpha    71.1369
_cell_angle_beta     108.863
_cell_angle_gamma    135.6

_symmetry_space_group_name_H-M    "P 1"
_symmetry_Int_Tables_number       1

loop_
  _symmetry_equiv_pos_as_xyz
  'x, y, z'

loop_
  _atom_site_type_symbol
  _atom_site_label
  _atom_site_symmetry_multiplicity
  _atom_site_fract_x
  _atom_site_fract_y
  _atom_site_fract_z
  _atom_site_occupancy
  _atom_site_charge
Dy  Dy1       1.0  0.75026  0.60174  0.31587  1.0000 2.11470513
Dy  Dy2       1.0  0.95845  0.89387  0.18278  1.0000 2.0212361063
Dy  Dy3       1.0  0.60174  0.75026  0.18413  1.0000 2.11470513
Dy  Dy4       1.0  0.89387  0.95845  0.31722  1.0000 2.0212361063
Dy  Dy5       1.0  0.24974  0.39826  0.68413  1.0000 2.11470513
Dy  Dy6       1.0  0.04155  0.10613  0.81722  1.0000 2.0212361063
Dy  Dy7       1.0  0.39826  0.24974  0.81587  1.0000 2.1169329132
Dy  Dy8       1.0  0.10613  0.04155  0.68278  1.0000 2.0212361063
H   H1        1.0  0.29850  0.07090  0.19830  1.0000 0.0992584439
H   H2        1.0  0.05340  0.97180  0.03220  1.0000 0.0903058941
H   H3        1.0  0.50510  0.02610  0.14750  1.0000 0.1085962229
H   H4        1.0  0.45090  0.17430  0.03740  1.0000 0.1224667723
H   H5        1.0  0.82700  0.23880  0.28610  1.0000 0.0992584439
H   H6        1.0  0.77700  0.36880  0.27970  1.0000 0.1085962229
H   H7        1.0  0.69100  0.62700  0.18800  1.0000 0.3825645963
H   H8        1.0  0.07090  0.29850  0.30170  1.0000 0.0992584439
H   H9        1.0  0.97180  0.05340  0.46780  1.0000 0.0903058941
H   H10       1.0  0.02610  0.50510  0.35250  1.0000 0.1085962229
H   H11       1.0  0.17430  0.45090  0.46260  1.0000 0.1224667723
H   H12       1.0  0.23880  0.82700  0.21390  1.0000 0.0992584439
H   H13       1.0  0.36880  0.77700  0.22030  1.0000 0.1085962229
H   H14       1.0  0.62700  0.69100  0.31200  1.0000 0.3825645963
H   H15       1.0  0.70150  0.92910  0.80170  1.0000 0.0992584439
H   H16       1.0  0.94660  0.02820  0.96780  1.0000 0.0903058941
H   H17       1.0  0.49490  0.97390  0.85250  1.0000 0.1085962229
H   H18       1.0  0.54910  0.82570  0.96260  1.0000 0.1224667723
H   H19       1.0  0.17300  0.76120  0.71390  1.0000 0.0992584439
H   H20       1.0  0.22300  0.63120  0.72030  1.0000 0.1085962229
H   H21       1.0  0.30900  0.37300  0.81200  1.0000 0.3825645963
H   H22       1.0  0.92910  0.70150  0.69830  1.0000 0.0992584439
H   H23       1.0  0.02820  0.94660  0.53220  1.0000 0.0903058941
H   H24       1.0  0.97390  0.49490  0.64750  1.0000 0.1085962229
H   H25       1.0  0.82570  0.54910  0.53740  1.0000 0.1224667723
H   H26       1.0  0.76120  0.17300  0.78610  1.0000 0.0992584439
H   H27       1.0  0.63120  0.22300  0.77970  1.0000 0.1085962229
H   H28       1.0  0.37300  0.30900  0.68800  1.0000 0.3825645963
H   H29       1.0  0.27640  0.27640  0.25000  1.0000 0.0992584439
H   H30       1.0  0.72360  0.72360  0.75000  1.0000 0.0992584439
C   C1        1.0  0.28520  0.07080  0.15370  1.0000 0.0583608145
C   C2        1.0  0.58660  0.37020  0.20820  1.0000 0.595530574
C   C3        1.0  0.14180  0.01540  0.05580  1.0000 0.0709793562
C   C4        1.0  0.39655  0.12905  0.12580  1.0000 0.0157629786
C   C5        1.0  0.24950  0.07870  0.02280  1.0000 -0.0709588207
C   C6        1.0  0.61020  0.27820  0.20950  1.0000 -0.0709588207
C   C7        1.0  0.55960  0.09520  0.17410  1.0000 -0.162713938
C   C8        1.0  0.52668  0.17332  0.16910  1.0000 0.0370457298
C   C9        1.0  0.69760  0.02800  0.22540  1.0000 0.6187419141
C   C10       1.0  0.37780  0.13420  0.05810  1.0000 -0.0941717444
C   C11       1.0  0.75170  0.22170  0.25680  1.0000 -0.1158741206
C   C12       1.0  0.67070  0.11830  0.21760  1.0000 -0.0323917102
C   C13       1.0  0.72160  0.30000  0.25280  1.0000 -0.1158741206
C   C14       1.0  0.22540  0.09040  0.94930  1.0000 0.6187419141
C   C15       1.0  0.07080  0.28520  0.34630  1.0000 0.0583608145
C   C16       1.0  0.37020  0.58660  0.29180  1.0000 0.595530574
C   C17       1.0  0.01540  0.14180  0.44420  1.0000 0.0709793562
C   C18       1.0  0.12905  0.39655  0.37420  1.0000 0.0157629786
C   C19       1.0  0.07870  0.24950  0.47720  1.0000 -0.0709588207
C   C20       1.0  0.27820  0.61020  0.29050  1.0000 -0.0709588207
C   C21       1.0  0.09520  0.55960  0.32590  1.0000 -0.162713938
C   C22       1.0  0.17332  0.52668  0.33090  1.0000 0.0370457298
C   C23       1.0  0.02800  0.69760  0.27460  1.0000 0.6187419141
C   C24       1.0  0.13420  0.37780  0.44190  1.0000 -0.0941717444
C   C25       1.0  0.22170  0.75170  0.24320  1.0000 -0.1158741206
C   C26       1.0  0.11830  0.67070  0.28240  1.0000 -0.0323917102
C   C27       1.0  0.30000  0.72160  0.24720  1.0000 -0.1158741206
C   C28       1.0  0.09040  0.22540  0.55070  1.0000 0.6187419141
C   C29       1.0  0.71480  0.92920  0.84630  1.0000 0.0583608145
C   C30       1.0  0.41340  0.62980  0.79180  1.0000 0.5949697936
C   C31       1.0  0.85820  0.98460  0.94420  1.0000 0.0709793562
C   C32       1.0  0.60345  0.87095  0.87420  1.0000 0.0157629786
C   C33       1.0  0.75050  0.92130  0.97720  1.0000 -0.0709588207
C   C34       1.0  0.38980  0.72180  0.79050  1.0000 -0.0709588207
C   C35       1.0  0.44040  0.90480  0.82590  1.0000 -0.162713938
C   C36       1.0  0.47332  0.82668  0.83090  1.0000 0.0370457298
C   C37       1.0  0.30240  0.97200  0.77460  1.0000 0.6187419141
C   C38       1.0  0.62220  0.86580  0.94190  1.0000 -0.0941717444
C   C39       1.0  0.24830  0.77830  0.74320  1.0000 -0.1158741206
C   C40       1.0  0.32930  0.88170  0.78240  1.0000 -0.0323917102
C   C41       1.0  0.27840  0.70000  0.74720  1.0000 -0.1158741206
C   C42       1.0  0.77460  0.90960  0.05070  1.0000 0.6187419141
C   C43       1.0  0.92920  0.71480  0.65370  1.0000 0.0583608145
C   C44       1.0  0.62980  0.41340  0.70820  1.0000 0.595530574
C   C45       1.0  0.98460  0.85820  0.55580  1.0000 0.0709793562
C   C46       1.0  0.87095  0.60345  0.62580  1.0000 0.0157629786
C   C47       1.0  0.92130  0.75050  0.52280  1.0000 -0.0709588207
C   C48       1.0  0.72180  0.38980  0.70950  1.0000 -0.0709588207
C   C49       1.0  0.90480  0.44040  0.67410  1.0000 -0.162713938
C   C50       1.0  0.82668  0.47332  0.66910  1.0000 0.0370457298
C   C51       1.0  0.97200  0.30240  0.72540  1.0000 0.6187419141
C   C52       1.0  0.86580  0.62220  0.55810  1.0000 -0.0941717444
C   C53       1.0  0.77830  0.24830  0.75680  1.0000 -0.1158741206
C   C54       1.0  0.88170  0.32930  0.71760  1.0000 -0.0323917102
C   C55       1.0  0.70000  0.27840  0.75280  1.0000 -0.1158741206
C   C56       1.0  0.90960  0.77460  0.44930  1.0000 0.6187419141
C   C57       1.0  0.18750  0.18750  0.25000  1.0000 0.5202852035
C   C58       1.0  0.81250  0.81250  0.75000  1.0000 0.5202852035
N   N1        1.0  0.15956  0.01444  0.11990  1.0000 -0.3412575652
N   N2        1.0  0.01444  0.15956  0.38010  1.0000 -0.3412575652
N   N3        1.0  0.84044  0.98556  0.88010  1.0000 -0.3412575652
N   N4        1.0  0.98556  0.84044  0.61990  1.0000 -0.3412575652
O   O1        1.0  0.73231  0.68709  0.20301  1.0000 -1.0370149568
O   O2        1.0  0.53254  0.39626  0.15680  1.0000 -0.5182669019
O   O3        1.0  0.62140  0.93340  0.19090  1.0000 -0.6212265794
O   O4        1.0  0.79678  0.05302  0.26860  1.0000 -0.630947203
O   O5        1.0  0.62737  0.41603  0.26022  1.0000 -0.68643947
O   O6        1.0  0.15258  0.11502  0.21140  1.0000 -0.5696596657
O   O7        1.0  0.32898  0.16322  0.92105  1.0000 -0.6540498292
O   O8        1.0  0.94786  0.84574  0.29665  1.0000 -1.1071407353
O   O9        1.0  0.10232  0.02688  0.92121  1.0000 -0.630947203
O   O10       1.0  0.68709  0.73231  0.29699  1.0000 -1.0370149568
O   O11       1.0  0.39626  0.53254  0.34320  1.0000 -0.5182669019
O   O12       1.0  0.93340  0.62140  0.30910  1.0000 -0.6212265794
O   O13       1.0  0.05302  0.79678  0.23140  1.0000 -0.630947203
O   O14       1.0  0.41603  0.62737  0.23978  1.0000 -0.68643947
O   O15       1.0  0.11502  0.15258  0.28860  1.0000 -0.5696596657
O   O16       1.0  0.16322  0.32898  0.57895  1.0000 -0.6564968382
O   O17       1.0  0.84574  0.94786  0.20335  1.0000 -1.1226427908
O   O18       1.0  0.02688  0.10232  0.57879  1.0000 -0.630947203
O   O19       1.0  0.26769  0.31291  0.79699  1.0000 -1.0348956143
O   O20       1.0  0.46746  0.60374  0.84320  1.0000 -0.5182669019
O   O21       1.0  0.37860  0.06660  0.80910  1.0000 -0.6212265794
O   O22       1.0  0.20322  0.94698  0.73140  1.0000 -0.630947203
O   O23       1.0  0.37263  0.58397  0.73978  1.0000 -0.68643947
O   O24       1.0  0.84742  0.88498  0.78860  1.0000 -0.5696596657
O   O25       1.0  0.67102  0.83678  0.07895  1.0000 -0.6564968382
O   O26       1.0  0.05214  0.15426  0.70335  1.0000 -1.1226427908
O   O27       1.0  0.89768  0.97312  0.07879  1.0000 -0.630947203
O   O28       1.0  0.31291  0.26769  0.70301  1.0000 -1.0370149568
O   O29       1.0  0.60374  0.46746  0.65680  1.0000 -0.5182669019
O   O30       1.0  0.06660  0.37860  0.69090  1.0000 -0.6212265794
O   O31       1.0  0.94698  0.20322  0.76860  1.0000 -0.630947203
O   O32       1.0  0.58397  0.37263  0.76022  1.0000 -0.6844968354
O   O33       1.0  0.88498  0.84742  0.71140  1.0000 -0.5696596657
O   O34       1.0  0.83678  0.67102  0.42105  1.0000 -0.6564968382
O   O35       1.0  0.15426  0.05214  0.79665  1.0000 -1.1226427908
O   O36       1.0  0.97312  0.89768  0.42121  1.0000 -0.630947203
