# DDEC6 charges by PACMAN v1.1 (https://github.com/mtap-research/PACMAN-charge/)
data_2018[Zn][sod]3[ASR]14
_chemical_formula_sum              "Zn6 H60 C48 N24"
_cell_length_a       14.2489
_cell_length_b       14.2489
_cell_length_c       14.2489
_cell_angle_alpha    109.471
_cell_angle_beta     109.471
_cell_angle_gamma    109.471

_symmetry_space_group_name_H-M    "P 1"
_symmetry_Int_Tables_number       1

loop_
  _symmetry_equiv_pos_as_xyz
  'x, y, z'

loop_
  _atom_site_type_symbol
  _atom_site_label
  _atom_site_symmetry_multiplicity
  _atom_site_fract_x
  _atom_site_fract_y
  _atom_site_fract_z
  _atom_site_occupancy
  _atom_site_charge
Zn  Zn1       1.0  0.75000  0.25000  0.50000  1.0000 0.7001787108
Zn  Zn2       1.0  0.25000  0.75000  0.50000  1.0000 0.7001787108
Zn  Zn3       1.0  0.50000  0.75000  0.25000  1.0000 0.7001787108
Zn  Zn4       1.0  0.50000  0.25000  0.75000  1.0000 0.7001787108
Zn  Zn5       1.0  0.25000  0.50000  0.75000  1.0000 0.7001787108
Zn  Zn6       1.0  0.75000  0.50000  0.25000  1.0000 0.7001787108
H   H1        1.0  0.72660  0.93270  0.42470  1.0000 0.1456508469
H   H2        1.0  0.51200  0.10460  0.25220  1.0000 0.1182006616
H   H3        1.0  0.50800  0.30190  0.57530  1.0000 0.1456508469
H   H4        1.0  0.85240  0.25980  0.74780  1.0000 0.1182006616
H   H5        1.0  0.49200  0.06730  0.79390  1.0000 0.1456508469
H   H6        1.0  0.14760  0.89540  0.40740  1.0000 0.1182006616
H   H7        1.0  0.27340  0.69810  0.20610  1.0000 0.1456508469
H   H8        1.0  0.48800  0.74020  0.59260  1.0000 0.1182006616
H   H9        1.0  0.42470  0.72660  0.93270  1.0000 0.1456508469
H   H10       1.0  0.25220  0.51200  0.10460  1.0000 0.1182006616
H   H11       1.0  0.57530  0.50800  0.30190  1.0000 0.1456508469
H   H12       1.0  0.74780  0.85240  0.25980  1.0000 0.1182006616
H   H13       1.0  0.79390  0.49200  0.06730  1.0000 0.1456508469
H   H14       1.0  0.40740  0.14760  0.89540  1.0000 0.1182006616
H   H15       1.0  0.20610  0.27340  0.69810  1.0000 0.1456508469
H   H16       1.0  0.59260  0.48800  0.74020  1.0000 0.1182006616
H   H17       1.0  0.93270  0.42470  0.72660  1.0000 0.1456508469
H   H18       1.0  0.10460  0.25220  0.51200  1.0000 0.1182006616
H   H19       1.0  0.30190  0.57530  0.50800  1.0000 0.1456508469
H   H20       1.0  0.25980  0.74780  0.85240  1.0000 0.1182006616
H   H21       1.0  0.06730  0.79390  0.49200  1.0000 0.1456508469
H   H22       1.0  0.89540  0.40740  0.14760  1.0000 0.1182006616
H   H23       1.0  0.69810  0.20610  0.27340  1.0000 0.1456508469
H   H24       1.0  0.74020  0.59260  0.48800  1.0000 0.1182006616
H   H25       1.0  0.93270  0.72660  0.42470  1.0000 0.1456508469
H   H26       1.0  0.10460  0.51200  0.25220  1.0000 0.1182006616
H   H27       1.0  0.30190  0.50800  0.57530  1.0000 0.1456508469
H   H28       1.0  0.25980  0.85240  0.74780  1.0000 0.1182006616
H   H29       1.0  0.06730  0.49200  0.79390  1.0000 0.1456508469
H   H30       1.0  0.89540  0.14760  0.40740  1.0000 0.1182006616
H   H31       1.0  0.69810  0.27340  0.20610  1.0000 0.1456508469
H   H32       1.0  0.74020  0.48800  0.59260  1.0000 0.1182006616
H   H33       1.0  0.72660  0.42470  0.93270  1.0000 0.1456508469
H   H34       1.0  0.51200  0.25220  0.10460  1.0000 0.1182006616
H   H35       1.0  0.50800  0.57530  0.30190  1.0000 0.1456508469
H   H36       1.0  0.85240  0.74780  0.25980  1.0000 0.1182006616
H   H37       1.0  0.49200  0.79390  0.06730  1.0000 0.1456508469
H   H38       1.0  0.14760  0.40740  0.89540  1.0000 0.1182006616
H   H39       1.0  0.27340  0.20610  0.69810  1.0000 0.1456508469
H   H40       1.0  0.48800  0.59260  0.74020  1.0000 0.1182006616
H   H41       1.0  0.42470  0.93270  0.72660  1.0000 0.1456508469
H   H42       1.0  0.25220  0.10460  0.51200  1.0000 0.1182006616
H   H43       1.0  0.57530  0.30190  0.50800  1.0000 0.1456508469
H   H44       1.0  0.74780  0.25980  0.85240  1.0000 0.1182006616
H   H45       1.0  0.79390  0.06730  0.49200  1.0000 0.1456508469
H   H46       1.0  0.40740  0.89540  0.14760  1.0000 0.1182006616
H   H47       1.0  0.20610  0.69810  0.27340  1.0000 0.1456508469
H   H48       1.0  0.59260  0.74020  0.48800  1.0000 0.1182006616
H   H49       1.0  0.70350  0.00000  0.51830  1.0000 0.1646611523
H   H50       1.0  0.48170  0.18520  0.48170  1.0000 0.1646611523
H   H51       1.0  0.51830  0.00000  0.70350  1.0000 0.1646611523
H   H52       1.0  0.29650  0.81480  0.29650  1.0000 0.1646611523
H   H53       1.0  0.51830  0.70350  0.00000  1.0000 0.1646611523
H   H54       1.0  0.48170  0.48170  0.18520  1.0000 0.1646611523
H   H55       1.0  0.70350  0.51830  0.00000  1.0000 0.1646611523
H   H56       1.0  0.29650  0.29650  0.81480  1.0000 0.1646611523
H   H57       1.0  0.00000  0.51830  0.70350  1.0000 0.1646611523
H   H58       1.0  0.18520  0.48170  0.48170  1.0000 0.1646611523
H   H59       1.0  1.00000  0.70350  0.51830  1.0000 0.1646611523
H   H60       1.0  0.81480  0.29650  0.29650  1.0000 0.1646611523
C   C1        1.0  0.53730  0.05730  0.27400  1.0000 -0.0720188965
C   C2        1.0  0.78330  0.26330  0.72600  1.0000 -0.0720188965
C   C3        1.0  0.21670  0.94270  0.48000  1.0000 -0.0720188965
C   C4        1.0  0.46270  0.73670  0.52000  1.0000 -0.0720188965
C   C5        1.0  0.27400  0.53730  0.05730  1.0000 -0.0720188965
C   C6        1.0  0.72600  0.78330  0.26330  1.0000 -0.0720188965
C   C7        1.0  0.48000  0.21670  0.94270  1.0000 -0.0720188965
C   C8        1.0  0.52000  0.46270  0.73670  1.0000 -0.0720188965
C   C9        1.0  0.05730  0.27400  0.53730  1.0000 -0.0720188965
C   C10       1.0  0.26330  0.72600  0.78330  1.0000 -0.0720188965
C   C11       1.0  0.94270  0.48000  0.21670  1.0000 -0.0720188965
C   C12       1.0  0.73670  0.52000  0.46270  1.0000 -0.0720188965
C   C13       1.0  0.05730  0.53730  0.27400  1.0000 -0.0720188965
C   C14       1.0  0.26330  0.78330  0.72600  1.0000 -0.0720188965
C   C15       1.0  0.94270  0.21670  0.48000  1.0000 -0.0720188965
C   C16       1.0  0.73670  0.46270  0.52000  1.0000 -0.0720188965
C   C17       1.0  0.53730  0.27400  0.05730  1.0000 -0.0720188965
C   C18       1.0  0.78330  0.72600  0.26330  1.0000 -0.0720188965
C   C19       1.0  0.21670  0.48000  0.94270  1.0000 -0.0720188965
C   C20       1.0  0.46270  0.52000  0.73670  1.0000 -0.0720188965
C   C21       1.0  0.27400  0.05730  0.53730  1.0000 -0.0720188965
C   C22       1.0  0.72600  0.26330  0.78330  1.0000 -0.0720188965
C   C23       1.0  0.48000  0.94270  0.21670  1.0000 -0.0720188965
C   C24       1.0  0.52000  0.73670  0.46270  1.0000 -0.0720188965
C   C25       1.0  0.63260  0.00000  0.36940  1.0000 0.3679704548
C   C26       1.0  0.72220  0.00000  0.45980  1.0000 -0.5462405998
C   C27       1.0  0.63060  0.26320  0.63060  1.0000 0.3679704548
C   C28       1.0  0.54020  0.26240  0.54020  1.0000 -0.5462405998
C   C29       1.0  0.36940  0.00000  0.63260  1.0000 0.3679704548
C   C30       1.0  0.45980  0.00000  0.72220  1.0000 -0.5462405998
C   C31       1.0  0.36740  0.73680  0.36740  1.0000 0.3679704548
C   C32       1.0  0.27780  0.73760  0.27780  1.0000 -0.5462405998
C   C33       1.0  0.36940  0.63260  0.00000  1.0000 0.3679704548
C   C34       1.0  0.45980  0.72220  0.00000  1.0000 -0.5462405998
C   C35       1.0  0.63060  0.63060  0.26320  1.0000 0.3679704548
C   C36       1.0  0.54020  0.54020  0.26240  1.0000 -0.5462405998
C   C37       1.0  0.63260  0.36940  0.00000  1.0000 0.3679704548
C   C38       1.0  0.72220  0.45980  0.00000  1.0000 -0.5446923692
C   C39       1.0  0.36740  0.36740  0.73680  1.0000 0.3679704548
C   C40       1.0  0.27780  0.27780  0.73760  1.0000 -0.5462405998
C   C41       1.0  1.00000  0.36940  0.63260  1.0000 0.3679704548
C   C42       1.0  0.00000  0.45980  0.72220  1.0000 -0.5462405998
C   C43       1.0  0.26320  0.63060  0.63060  1.0000 0.3679704548
C   C44       1.0  0.26240  0.54020  0.54020  1.0000 -0.5462405998
C   C45       1.0  0.00000  0.63260  0.36940  1.0000 0.3679704548
C   C46       1.0  0.00000  0.72220  0.45980  1.0000 -0.5462405998
C   C47       1.0  0.73680  0.36740  0.36740  1.0000 0.3679704548
C   C48       1.0  0.73760  0.27780  0.27780  1.0000 -0.5462405998
N   N1        1.0  0.63500  0.09560  0.37160  1.0000 -0.360137303
N   N2        1.0  0.72400  0.26340  0.62840  1.0000 -0.360137303
N   N3        1.0  0.27600  0.90440  0.53940  1.0000 -0.360137303
N   N4        1.0  0.36500  0.73660  0.46060  1.0000 -0.360137303
N   N5        1.0  0.37160  0.63500  0.09560  1.0000 -0.360137303
N   N6        1.0  0.62840  0.72400  0.26340  1.0000 -0.360137303
N   N7        1.0  0.53940  0.27600  0.90440  1.0000 -0.360137303
N   N8        1.0  0.46060  0.36500  0.73660  1.0000 -0.360137303
N   N9        1.0  0.09560  0.37160  0.63500  1.0000 -0.360137303
N   N10       1.0  0.26340  0.62840  0.72400  1.0000 -0.360137303
N   N11       1.0  0.90440  0.53940  0.27600  1.0000 -0.360137303
N   N12       1.0  0.73660  0.46060  0.36500  1.0000 -0.360137303
N   N13       1.0  0.09560  0.63500  0.37160  1.0000 -0.360137303
N   N14       1.0  0.26340  0.72400  0.62840  1.0000 -0.360137303
N   N15       1.0  0.90440  0.27600  0.53940  1.0000 -0.360137303
N   N16       1.0  0.73660  0.36500  0.46060  1.0000 -0.360137303
N   N17       1.0  0.63500  0.37160  0.09560  1.0000 -0.360137303
N   N18       1.0  0.72400  0.62840  0.26340  1.0000 -0.360137303
N   N19       1.0  0.27600  0.53940  0.90440  1.0000 -0.360137303
N   N20       1.0  0.36500  0.46060  0.73660  1.0000 -0.360137303
N   N21       1.0  0.37160  0.09560  0.63500  1.0000 -0.360137303
N   N22       1.0  0.62840  0.26340  0.72400  1.0000 -0.360137303
N   N23       1.0  0.53940  0.90440  0.27600  1.0000 -0.360137303
N   N24       1.0  0.46060  0.73660  0.36500  1.0000 -0.360137303
