# DDEC6 charges by PACMAN v1.1 (https://github.com/mtap-research/PACMAN-charge/)
data_2018[Co][nan]3[ASR]12
_chemical_formula_sum              "Co9 H36 C84 N6 O36"
_cell_length_a       19.5839
_cell_length_b       19.5839
_cell_length_c       19.5839
_cell_angle_alpha    114.968
_cell_angle_beta     114.968
_cell_angle_gamma    114.968

_symmetry_space_group_name_H-M    "P 1"
_symmetry_Int_Tables_number       1

loop_
  _symmetry_equiv_pos_as_xyz
  'x, y, z'

loop_
  _atom_site_type_symbol
  _atom_site_label
  _atom_site_symmetry_multiplicity
  _atom_site_fract_x
  _atom_site_fract_y
  _atom_site_fract_z
  _atom_site_occupancy
  _atom_site_charge
Co  Co1       1.0  0.59601  0.62729  0.93176  1.0000 1.0134642703
Co  Co2       1.0  0.62729  0.93176  0.59601  1.0000 1.0134642703
Co  Co3       1.0  0.93176  0.59601  0.62729  1.0000 1.0134642703
Co  Co4       1.0  0.40399  0.37271  0.06824  1.0000 1.0134642703
Co  Co5       1.0  0.37271  0.06824  0.40399  1.0000 1.0134642703
Co  Co6       1.0  0.06824  0.40399  0.37271  1.0000 1.0134642703
Co  Co7       1.0  0.50000  0.50000  0.00000  1.0000 1.0754351003
Co  Co8       1.0  0.50000  0.00000  0.50000  1.0000 1.0754351003
Co  Co9       1.0  0.00000  0.50000  0.50000  1.0000 1.0754351003
H   H1        1.0  0.53149  0.33582  0.71685  1.0000 0.1299342496
H   H2        1.0  0.62060  0.21797  0.81134  1.0000 0.1299342496
H   H3        1.0  0.64591  0.44066  0.00147  1.0000 0.1215394057
H   H4        1.0  0.61968  0.33899  0.04897  1.0000 0.1215394057
H   H5        1.0  0.71788  0.35572  0.18737  1.0000 0.1215394057
H   H6        1.0  0.87536  0.34472  0.11508  1.0000 0.1215394057
H   H7        1.0  0.33582  0.71685  0.53149  1.0000 0.1299342496
H   H8        1.0  0.21797  0.81134  0.62060  1.0000 0.1299342496
H   H9        1.0  0.44066  0.00147  0.64591  1.0000 0.1215394057
H   H10       1.0  0.33899  0.04897  0.61968  1.0000 0.1215394057
H   H11       1.0  0.35572  0.18737  0.71788  1.0000 0.1215394057
H   H12       1.0  0.34472  0.11508  0.87536  1.0000 0.1215394057
H   H13       1.0  0.71685  0.53149  0.33582  1.0000 0.1299342496
H   H14       1.0  0.81134  0.62060  0.21797  1.0000 0.1299342496
H   H15       1.0  0.00147  0.64591  0.44066  1.0000 0.1215394057
H   H16       1.0  0.04897  0.61968  0.33899  1.0000 0.1215394057
H   H17       1.0  0.18737  0.71788  0.35572  1.0000 0.1215394057
H   H18       1.0  0.11508  0.87536  0.34472  1.0000 0.1215394057
H   H19       1.0  0.46851  0.66418  0.28315  1.0000 0.1299342496
H   H20       1.0  0.37940  0.78203  0.18866  1.0000 0.1299342496
H   H21       1.0  0.35409  0.55934  0.99853  1.0000 0.1215394057
H   H22       1.0  0.38032  0.66101  0.95103  1.0000 0.1215394057
H   H23       1.0  0.28212  0.64428  0.81263  1.0000 0.1215394057
H   H24       1.0  0.12464  0.65528  0.88492  1.0000 0.1215394057
H   H25       1.0  0.66418  0.28315  0.46851  1.0000 0.1299342496
H   H26       1.0  0.78203  0.18866  0.37940  1.0000 0.1299342496
H   H27       1.0  0.55934  0.99853  0.35409  1.0000 0.1215394057
H   H28       1.0  0.66101  0.95103  0.38032  1.0000 0.1215394057
H   H29       1.0  0.64428  0.81263  0.28212  1.0000 0.1215394057
H   H30       1.0  0.65528  0.88492  0.12464  1.0000 0.1215394057
H   H31       1.0  0.28315  0.46851  0.66418  1.0000 0.1299342496
H   H32       1.0  0.18866  0.37940  0.78203  1.0000 0.1299342496
H   H33       1.0  0.99853  0.35409  0.55934  1.0000 0.1215394057
H   H34       1.0  0.95103  0.38032  0.66101  1.0000 0.1215394057
H   H35       1.0  0.81263  0.28212  0.64428  1.0000 0.1215394057
H   H36       1.0  0.88492  0.12464  0.65528  1.0000 0.1215394057
C   C1        1.0  0.58200  0.47920  0.88500  1.0000 0.5894969685
C   C2        1.0  0.58360  0.39750  0.85980  1.0000 -0.0203742067
C   C3        1.0  0.55520  0.33140  0.76560  1.0000 -0.09953576
C   C4        1.0  0.56160  0.25800  0.74290  1.0000 -0.0465525331
C   C5        1.0  0.52350  0.18260  0.63800  1.0000 0.5894969685
C   C6        1.0  0.60940  0.26160  0.82290  1.0000 -0.1159134375
C   C7        1.0  0.64070  0.32970  0.92000  1.0000 0.033109965
C   C8        1.0  0.62680  0.39620  0.93790  1.0000 -0.1399734931
C   C9        1.0  0.69280  0.33230  0.00300  1.0000 0.2000516934
C   C10       1.0  0.67240  0.34070  0.06330  1.0000 -0.1732960782
C   C11       1.0  0.73250  0.35210  0.14720  1.0000 -0.0656841048
C   C12       1.0  0.81110  0.35790  0.16990  1.0000 -0.0623595396
C   C13       1.0  0.88840  0.38420  0.26970  1.0000 0.5959497077
C   C14       1.0  0.82450  0.34540  0.10300  1.0000 0.0491413873
C   C15       1.0  0.47920  0.88500  0.58200  1.0000 0.5894969685
C   C16       1.0  0.39750  0.85980  0.58360  1.0000 -0.0203742067
C   C17       1.0  0.33140  0.76560  0.55520  1.0000 -0.09953576
C   C18       1.0  0.25800  0.74290  0.56160  1.0000 -0.0465525331
C   C19       1.0  0.18260  0.63800  0.52350  1.0000 0.5894969685
C   C20       1.0  0.26160  0.82290  0.60940  1.0000 -0.1159134375
C   C21       1.0  0.32970  0.92000  0.64070  1.0000 0.033109965
C   C22       1.0  0.39620  0.93790  0.62680  1.0000 -0.1399734931
C   C23       1.0  0.33230  0.00300  0.69280  1.0000 0.2000516934
C   C24       1.0  0.34070  0.06330  0.67240  1.0000 -0.1732960782
C   C25       1.0  0.35210  0.14720  0.73250  1.0000 -0.0656841048
C   C26       1.0  0.35790  0.16990  0.81110  1.0000 -0.0623595396
C   C27       1.0  0.38420  0.26970  0.88840  1.0000 0.5959497077
C   C28       1.0  0.34540  0.10300  0.82450  1.0000 0.0491413873
C   C29       1.0  0.88500  0.58200  0.47920  1.0000 0.5894969685
C   C30       1.0  0.85980  0.58360  0.39750  1.0000 -0.0203742067
C   C31       1.0  0.76560  0.55520  0.33140  1.0000 -0.09953576
C   C32       1.0  0.74290  0.56160  0.25800  1.0000 -0.0465525331
C   C33       1.0  0.63800  0.52350  0.18260  1.0000 0.5894969685
C   C34       1.0  0.82290  0.60940  0.26160  1.0000 -0.1159134375
C   C35       1.0  0.92000  0.64070  0.32970  1.0000 0.033109965
C   C36       1.0  0.93790  0.62680  0.39620  1.0000 -0.1399734931
C   C37       1.0  0.00300  0.69280  0.33230  1.0000 0.2000516934
C   C38       1.0  0.06330  0.67240  0.34070  1.0000 -0.1732960782
C   C39       1.0  0.14720  0.73250  0.35210  1.0000 -0.0656841048
C   C40       1.0  0.16990  0.81110  0.35790  1.0000 -0.0623595396
C   C41       1.0  0.26970  0.88840  0.38420  1.0000 0.5959497077
C   C42       1.0  0.10300  0.82450  0.34540  1.0000 0.0491413873
C   C43       1.0  0.41800  0.52080  0.11500  1.0000 0.5894969685
C   C44       1.0  0.41640  0.60250  0.14020  1.0000 -0.0203742067
C   C45       1.0  0.44480  0.66860  0.23440  1.0000 -0.09953576
C   C46       1.0  0.43840  0.74200  0.25710  1.0000 -0.0465525331
C   C47       1.0  0.47650  0.81740  0.36200  1.0000 0.5894969685
C   C48       1.0  0.39060  0.73840  0.17710  1.0000 -0.1159134375
C   C49       1.0  0.35930  0.67030  0.08000  1.0000 0.033109965
C   C50       1.0  0.37320  0.60380  0.06210  1.0000 -0.1399734931
C   C51       1.0  0.30720  0.66770  0.99700  1.0000 0.2000516934
C   C52       1.0  0.32760  0.65930  0.93670  1.0000 -0.1732960782
C   C53       1.0  0.26750  0.64790  0.85280  1.0000 -0.0656841048
C   C54       1.0  0.18890  0.64210  0.83010  1.0000 -0.0623595396
C   C55       1.0  0.11160  0.61580  0.73030  1.0000 0.5959497077
C   C56       1.0  0.17550  0.65460  0.89700  1.0000 0.0491413873
C   C57       1.0  0.52080  0.11500  0.41800  1.0000 0.5894969685
C   C58       1.0  0.60250  0.14020  0.41640  1.0000 -0.0203742067
C   C59       1.0  0.66860  0.23440  0.44480  1.0000 -0.09953576
C   C60       1.0  0.74200  0.25710  0.43840  1.0000 -0.0465525331
C   C61       1.0  0.81740  0.36200  0.47650  1.0000 0.5894969685
C   C62       1.0  0.73840  0.17710  0.39060  1.0000 -0.1159134375
C   C63       1.0  0.67030  0.08000  0.35930  1.0000 0.033109965
C   C64       1.0  0.60380  0.06210  0.37320  1.0000 -0.1399734931
C   C65       1.0  0.66770  0.99700  0.30720  1.0000 0.2000516934
C   C66       1.0  0.65930  0.93670  0.32760  1.0000 -0.1732960782
C   C67       1.0  0.64790  0.85280  0.26750  1.0000 -0.0656841048
C   C68       1.0  0.64210  0.83010  0.18890  1.0000 -0.0623595396
C   C69       1.0  0.61580  0.73030  0.11160  1.0000 0.5959497077
C   C70       1.0  0.65460  0.89700  0.17550  1.0000 0.0491413873
C   C71       1.0  0.11500  0.41800  0.52080  1.0000 0.5894969685
C   C72       1.0  0.14020  0.41640  0.60250  1.0000 -0.0203742067
C   C73       1.0  0.23440  0.44480  0.66860  1.0000 -0.09953576
C   C74       1.0  0.25710  0.43840  0.74200  1.0000 -0.0465525331
C   C75       1.0  0.36200  0.47650  0.81740  1.0000 0.5894969685
C   C76       1.0  0.17710  0.39060  0.73840  1.0000 -0.1159134375
C   C77       1.0  0.08000  0.35930  0.67030  1.0000 0.033109965
C   C78       1.0  0.06210  0.37320  0.60380  1.0000 -0.1399734931
C   C79       1.0  0.99700  0.30720  0.66770  1.0000 0.2000516934
C   C80       1.0  0.93670  0.32760  0.65930  1.0000 -0.1732960782
C   C81       1.0  0.85280  0.26750  0.64790  1.0000 -0.0656841048
C   C82       1.0  0.83010  0.18890  0.64210  1.0000 -0.0623595396
C   C83       1.0  0.73030  0.11160  0.61580  1.0000 0.5959497077
C   C84       1.0  0.89700  0.17550  0.65460  1.0000 0.0491413873
N   N1        1.0  0.76770  0.33390  0.02070  1.0000 -0.2816070335
N   N2        1.0  0.33390  0.02070  0.76770  1.0000 -0.2816070335
N   N3        1.0  0.02070  0.76770  0.33390  1.0000 -0.2816070335
N   N4        1.0  0.23230  0.66610  0.97930  1.0000 -0.2816070335
N   N5        1.0  0.66610  0.97930  0.23230  1.0000 -0.2816070335
N   N6        1.0  0.97930  0.23230  0.66610  1.0000 -0.2816070335
O   O1        1.0  0.58915  0.52846  0.95999  1.0000 -0.6042980569
O   O2        1.0  0.57771  0.50345  0.83474  1.0000 -0.5255441981
O   O3        1.0  0.47980  0.18259  0.56921  1.0000 -0.5689542311
O   O4        1.0  0.53561  0.12049  0.62230  1.0000 -0.5689542311
O   O5        1.0  0.88330  0.40615  0.33295  1.0000 -0.4872849601
O   O6        1.0  0.95210  0.37980  0.27190  1.0000 -0.5941227691
O   O7        1.0  0.52846  0.95999  0.58915  1.0000 -0.6042980569
O   O8        1.0  0.50345  0.83474  0.57771  1.0000 -0.5255441981
O   O9        1.0  0.18259  0.56921  0.47980  1.0000 -0.5689542311
O   O10       1.0  0.12049  0.62230  0.53561  1.0000 -0.5689542311
O   O11       1.0  0.40615  0.33295  0.88330  1.0000 -0.4872849601
O   O12       1.0  0.37980  0.27190  0.95210  1.0000 -0.5941227691
O   O13       1.0  0.95999  0.58915  0.52846  1.0000 -0.6042980569
O   O14       1.0  0.83474  0.57771  0.50345  1.0000 -0.5255441981
O   O15       1.0  0.56921  0.47980  0.18259  1.0000 -0.5689542311
O   O16       1.0  0.62230  0.53561  0.12049  1.0000 -0.5689542311
O   O17       1.0  0.33295  0.88330  0.40615  1.0000 -0.4872849601
O   O18       1.0  0.27190  0.95210  0.37980  1.0000 -0.5941227691
O   O19       1.0  0.41085  0.47154  0.04001  1.0000 -0.6042980569
O   O20       1.0  0.42229  0.49655  0.16526  1.0000 -0.5255441981
O   O21       1.0  0.52020  0.81741  0.43079  1.0000 -0.5689542311
O   O22       1.0  0.46439  0.87951  0.37770  1.0000 -0.5689542311
O   O23       1.0  0.11670  0.59385  0.66705  1.0000 -0.4872849601
O   O24       1.0  0.04790  0.62020  0.72810  1.0000 -0.5941227691
O   O25       1.0  0.47154  0.04001  0.41085  1.0000 -0.6042980569
O   O26       1.0  0.49655  0.16526  0.42229  1.0000 -0.5255441981
O   O27       1.0  0.81741  0.43079  0.52020  1.0000 -0.5689542311
O   O28       1.0  0.87951  0.37770  0.46439  1.0000 -0.5689542311
O   O29       1.0  0.59385  0.66705  0.11670  1.0000 -0.4872849601
O   O30       1.0  0.62020  0.72810  0.04790  1.0000 -0.5941227691
O   O31       1.0  0.04001  0.41085  0.47154  1.0000 -0.6042980569
O   O32       1.0  0.16526  0.42229  0.49655  1.0000 -0.5255441981
O   O33       1.0  0.43079  0.52020  0.81741  1.0000 -0.5689542311
O   O34       1.0  0.37770  0.46439  0.87951  1.0000 -0.5689542311
O   O35       1.0  0.66705  0.11670  0.59385  1.0000 -0.4872849601
O   O36       1.0  0.72810  0.04790  0.62020  1.0000 -0.5941227691
