# DDEC6 charges by PACMAN v1.1 (https://github.com/mtap-research/PACMAN-charge/)
data_2018[Cd][nan]3[ASR]12
_chemical_formula_sum              "Cd8 H24 C56 N24 O24"
_cell_length_a       10.0496
_cell_length_b       10.0496
_cell_length_c       29.274
_cell_angle_alpha    84.5144
_cell_angle_beta     95.4856
_cell_angle_gamma    89.0707

_symmetry_space_group_name_H-M    "P 1"
_symmetry_Int_Tables_number       1

loop_
  _symmetry_equiv_pos_as_xyz
  'x, y, z'

loop_
  _atom_site_type_symbol
  _atom_site_label
  _atom_site_symmetry_multiplicity
  _atom_site_fract_x
  _atom_site_fract_y
  _atom_site_fract_z
  _atom_site_occupancy
  _atom_site_charge
Cd  Cd1       1.0  0.95074  0.64430  0.43442  1.0000 0.7809957702
Cd  Cd2       1.0  0.80902  0.38054  0.34281  1.0000 0.8778081078
Cd  Cd3       1.0  0.64430  0.95074  0.06558  1.0000 0.7809957702
Cd  Cd4       1.0  0.38054  0.80902  0.15719  1.0000 0.8778081078
Cd  Cd5       1.0  0.04926  0.35570  0.56558  1.0000 0.7809957702
Cd  Cd6       1.0  0.19098  0.61946  0.65719  1.0000 0.8778081078
Cd  Cd7       1.0  0.35570  0.04926  0.93442  1.0000 0.7809957702
Cd  Cd8       1.0  0.61946  0.19098  0.84281  1.0000 0.8778081078
H   H1        1.0  0.81440  0.05040  0.30680  1.0000 0.140636433
H   H2        1.0  0.85600  0.83260  0.33690  1.0000 0.140636433
H   H3        1.0  0.98340  0.95740  0.45620  1.0000 0.1241191018
H   H4        1.0  0.61460  0.67360  0.30630  1.0000 0.1258766112
H   H5        1.0  0.21430  0.70330  0.30940  1.0000 0.1258766112
H   H6        1.0  0.45580  0.65260  0.42880  1.0000 0.140636433
H   H7        1.0  0.05040  0.81440  0.19320  1.0000 0.140636433
H   H8        1.0  0.83260  0.85600  0.16310  1.0000 0.140636433
H   H9        1.0  0.95740  0.98340  0.04380  1.0000 0.1241191018
H   H10       1.0  0.67360  0.61460  0.19370  1.0000 0.1258766112
H   H11       1.0  0.70330  0.21430  0.19060  1.0000 0.1258766112
H   H12       1.0  0.65260  0.45580  0.07120  1.0000 0.140636433
H   H13       1.0  0.18560  0.94960  0.69320  1.0000 0.140636433
H   H14       1.0  0.14400  0.16740  0.66310  1.0000 0.140636433
H   H15       1.0  0.01660  0.04260  0.54380  1.0000 0.1241191018
H   H16       1.0  0.38540  0.32640  0.69370  1.0000 0.1241191018
H   H17       1.0  0.78570  0.29670  0.69060  1.0000 0.1258766112
H   H18       1.0  0.54420  0.34740  0.57120  1.0000 0.140636433
H   H19       1.0  0.94960  0.18560  0.80680  1.0000 0.140636433
H   H20       1.0  0.16740  0.14400  0.83690  1.0000 0.140636433
H   H21       1.0  0.04260  0.01660  0.95620  1.0000 0.1241191018
H   H22       1.0  0.32640  0.38540  0.80630  1.0000 0.1258766112
H   H23       1.0  0.29670  0.78570  0.80940  1.0000 0.1258766112
H   H24       1.0  0.34740  0.54420  0.92880  1.0000 0.140636433
C   C1        1.0  0.92260  0.10280  0.40660  1.0000 0.1258766112
C   C2        1.0  0.84860  0.03260  0.33830  1.0000 0.0273924431
C   C3        1.0  0.87340  0.90200  0.35630  1.0000 0.0273924431
C   C4        1.0  0.94700  0.97420  0.42500  1.0000 0.0006886239
C   C5        1.0  0.94870  0.21430  0.43440  1.0000 0.2223592538
C   C6        1.0  0.55460  0.65680  0.37090  1.0000 -0.0266167193
C   C7        1.0  0.53840  0.67540  0.32310  1.0000 -0.1095232186
C   C8        1.0  0.41320  0.69640  0.29990  1.0000 -0.0114218067
C   C9        1.0  0.30160  0.69180  0.32510  1.0000 -0.1095232186
C   C10       1.0  0.31780  0.67060  0.37280  1.0000 -0.0167064698
C   C11       1.0  0.44430  0.65890  0.39610  1.0000 -0.1095232186
C   C12       1.0  0.69310  0.63770  0.39520  1.0000 0.5417630065
C   C13       1.0  0.39392  0.72728  0.24820  1.0000 0.5417630065
C   C14       1.0  0.19560  0.66320  0.39930  1.0000 0.5323158491
C   C15       1.0  0.10280  0.92260  0.09340  1.0000 0.1258766112
C   C16       1.0  0.03260  0.84860  0.16170  1.0000 0.0273924431
C   C17       1.0  0.90200  0.87340  0.14370  1.0000 0.0273924431
C   C18       1.0  0.97420  0.94700  0.07500  1.0000 0.0006886239
C   C19       1.0  0.21430  0.94870  0.06560  1.0000 0.2223592538
C   C20       1.0  0.65680  0.55460  0.12910  1.0000 -0.0266167193
C   C21       1.0  0.67540  0.53840  0.17690  1.0000 -0.1095232186
C   C22       1.0  0.69640  0.41320  0.20010  1.0000 -0.0114218067
C   C23       1.0  0.69180  0.30160  0.17490  1.0000 -0.1095232186
C   C24       1.0  0.67060  0.31780  0.12720  1.0000 -0.0167064698
C   C25       1.0  0.65890  0.44430  0.10390  1.0000 -0.1095232186
C   C26       1.0  0.63770  0.69310  0.10480  1.0000 0.5417630065
C   C27       1.0  0.72728  0.39392  0.25180  1.0000 0.5417630065
C   C28       1.0  0.66320  0.19560  0.10070  1.0000 0.5323158491
C   C29       1.0  0.07740  0.89720  0.59340  1.0000 0.1258766112
C   C30       1.0  0.15140  0.96740  0.66170  1.0000 0.0273924431
C   C31       1.0  0.12660  0.09800  0.64370  1.0000 0.0273924431
C   C32       1.0  0.05300  0.02580  0.57500  1.0000 0.0006886239
C   C33       1.0  0.05130  0.78570  0.56560  1.0000 0.2223592538
C   C34       1.0  0.44540  0.34320  0.62910  1.0000 -0.0266167193
C   C35       1.0  0.46160  0.32460  0.67690  1.0000 -0.1095232186
C   C36       1.0  0.58680  0.30360  0.70010  1.0000 -0.0114218067
C   C37       1.0  0.69840  0.30820  0.67490  1.0000 -0.1095232186
C   C38       1.0  0.68220  0.32940  0.62720  1.0000 -0.0167064698
C   C39       1.0  0.55570  0.34110  0.60390  1.0000 -0.1095232186
C   C40       1.0  0.30690  0.36230  0.60480  1.0000 0.5417630065
C   C41       1.0  0.60608  0.27272  0.75180  1.0000 0.5417630065
C   C42       1.0  0.80440  0.33680  0.60070  1.0000 0.5323158491
C   C43       1.0  0.89720  0.07740  0.90660  1.0000 0.1258766112
C   C44       1.0  0.96740  0.15140  0.83830  1.0000 0.0273924431
C   C45       1.0  0.09800  0.12660  0.85630  1.0000 0.0273924431
C   C46       1.0  0.02580  0.05300  0.92500  1.0000 0.0006886239
C   C47       1.0  0.78570  0.05130  0.93440  1.0000 0.2223592538
C   C48       1.0  0.34320  0.44540  0.87090  1.0000 -0.0266167193
C   C49       1.0  0.32460  0.46160  0.82310  1.0000 -0.1095232186
C   C50       1.0  0.30360  0.58680  0.79990  1.0000 -0.0114218067
C   C51       1.0  0.30820  0.69840  0.82510  1.0000 -0.1095232186
C   C52       1.0  0.32940  0.68220  0.87280  1.0000 -0.0167064698
C   C53       1.0  0.34110  0.55570  0.89610  1.0000 -0.1095232186
C   C54       1.0  0.36230  0.30690  0.89520  1.0000 0.5417630065
C   C55       1.0  0.27272  0.60608  0.74820  1.0000 0.5417630065
C   C56       1.0  0.33680  0.80440  0.89930  1.0000 0.5323158491
N   N1        1.0  0.87130  0.13490  0.36360  1.0000 -0.2226165433
N   N2        1.0  0.92080  0.86960  0.40000  1.0000 -0.1582495619
N   N3        1.0  0.92480  0.34040  0.41840  1.0000 -0.2263059627
N   N4        1.0  0.96240  0.41080  0.45280  1.0000 -0.0167064698
N   N5        1.0  0.00820  0.32940  0.48850  1.0000 -0.0463879706
N   N6        1.0  0.00280  0.20220  0.47800  1.0000 -0.240446509
N   N7        1.0  0.13490  0.87130  0.13640  1.0000 -0.2226165433
N   N8        1.0  0.86960  0.92080  0.10000  1.0000 -0.1582495619
N   N9        1.0  0.34040  0.92480  0.08160  1.0000 -0.2263059627
N   N10       1.0  0.41080  0.96240  0.04720  1.0000 -0.0114218067
N   N11       1.0  0.32940  0.00820  0.01150  1.0000 -0.0463879706
N   N12       1.0  0.20220  0.00280  0.02200  1.0000 -0.240446509
N   N13       1.0  0.12870  0.86510  0.63640  1.0000 -0.2226165433
N   N14       1.0  0.07920  0.13040  0.60000  1.0000 -0.1582495619
N   N15       1.0  0.07520  0.65960  0.58160  1.0000 -0.2263059627
N   N16       1.0  0.03760  0.58920  0.54720  1.0000 -0.0114218067
N   N17       1.0  0.99180  0.67060  0.51150  1.0000 -0.0463879706
N   N18       1.0  0.99720  0.79780  0.52200  1.0000 -0.240446509
N   N19       1.0  0.86510  0.12870  0.86360  1.0000 -0.2226165433
N   N20       1.0  0.13040  0.07920  0.90000  1.0000 -0.1582495619
N   N21       1.0  0.65960  0.07520  0.91840  1.0000 -0.2263059627
N   N22       1.0  0.58920  0.03760  0.95280  1.0000 -0.0114218067
N   N23       1.0  0.67060  0.99180  0.98850  1.0000 -0.0463879706
N   N24       1.0  0.79780  0.99720  0.97800  1.0000 -0.240446509
O   O1        1.0  0.71510  0.66990  0.43540  1.0000 -0.5129954826
O   O2        1.0  0.78460  0.59360  0.37426  1.0000 -0.5488731872
O   O3        1.0  0.28060  0.74060  0.22830  1.0000 -0.5427656781
O   O4        1.0  0.49630  0.74310  0.22750  1.0000 -0.5191165816
O   O5        1.0  0.20070  0.69630  0.43910  1.0000 -0.5427656781
O   O6        1.0  0.09150  0.62290  0.37940  1.0000 -0.5191165816
O   O7        1.0  0.66990  0.71510  0.06460  1.0000 -0.5129954826
O   O8        1.0  0.59360  0.78460  0.12574  1.0000 -0.5488731872
O   O9        1.0  0.74060  0.28060  0.27170  1.0000 -0.5427656781
O   O10       1.0  0.74310  0.49630  0.27250  1.0000 -0.5191165816
O   O11       1.0  0.69630  0.20070  0.06090  1.0000 -0.5427656781
O   O12       1.0  0.62290  0.09150  0.12060  1.0000 -0.5191165816
O   O13       1.0  0.28490  0.33010  0.56460  1.0000 -0.5129954826
O   O14       1.0  0.21540  0.40640  0.62574  1.0000 -0.5488731872
O   O15       1.0  0.71940  0.25940  0.77170  1.0000 -0.5427656781
O   O16       1.0  0.50370  0.25690  0.77250  1.0000 -0.5191165816
O   O17       1.0  0.79930  0.30370  0.56090  1.0000 -0.5427656781
O   O18       1.0  0.90850  0.37710  0.62060  1.0000 -0.5191165816
O   O19       1.0  0.33010  0.28490  0.93540  1.0000 -0.5129954826
O   O20       1.0  0.40640  0.21540  0.87426  1.0000 -0.5488731872
O   O21       1.0  0.25940  0.71940  0.72830  1.0000 -0.5427656781
O   O22       1.0  0.25690  0.50370  0.72750  1.0000 -0.5191165816
O   O23       1.0  0.30370  0.79930  0.93910  1.0000 -0.5427656781
O   O24       1.0  0.37710  0.90850  0.87940  1.0000 -0.5191165816
