# DDEC6 charges by PACMAN v1.1 (https://github.com/mtap-research/PACMAN-charge/)
data_2018[Gd][sqc]3[ASR]1
_chemical_formula_sum              "Gd2 H42 C54 N6 O12"
_cell_length_a       9.5109
_cell_length_b       11.7875
_cell_length_c       18.7321
_cell_angle_alpha    103.327
_cell_angle_beta     98.6043
_cell_angle_gamma    109.35

_symmetry_space_group_name_H-M    "P 1"
_symmetry_Int_Tables_number       1

loop_
  _symmetry_equiv_pos_as_xyz
  'x, y, z'

loop_
  _atom_site_type_symbol
  _atom_site_label
  _atom_site_symmetry_multiplicity
  _atom_site_fract_x
  _atom_site_fract_y
  _atom_site_fract_z
  _atom_site_occupancy
  _atom_site_charge
Gd  Gd1       1.0  0.26153  0.98371  0.99632  1.0000 2.081355694
Gd  Gd2       1.0  0.73847  0.01629  0.00368  1.0000 2.081355694
H   H1        1.0  0.14100  0.92780  0.79700  1.0000 0.1336689721
H   H2        1.0  0.14600  0.89600  0.67260  1.0000 0.0918685477
H   H3        1.0  0.73770  0.92190  0.62730  1.0000 0.0918685477
H   H4        1.0  0.73730  0.96440  0.75450  1.0000 0.1104335618
H   H5        1.0  0.04000  0.87470  0.55080  1.0000 0.0992300101
H   H6        1.0  0.97310  0.97990  0.55090  1.0000 0.0992300101
H   H7        1.0  0.85750  0.64860  0.50910  1.0000 0.1104335618
H   H8        1.0  0.44850  0.56050  0.37270  1.0000 0.1104335618
H   H9        1.0  0.71080  0.91920  0.48050  1.0000 0.1104335618
H   H10       1.0  0.69840  0.43550  0.46020  1.0000 0.1104335618
H   H11       1.0  0.51990  0.39610  0.43280  1.0000 0.1104335618
H   H12       1.0  0.83670  0.41740  0.36870  1.0000 0.0918685477
H   H13       1.0  0.85230  0.32470  0.24870  1.0000 0.1336689721
H   H14       1.0  0.39890  0.23160  0.18180  1.0000 0.1397772313
H   H15       1.0  0.40110  0.33800  0.29880  1.0000 0.0992300101
H   H16       1.0  0.44390  0.85920  0.41360  1.0000 0.1104335618
H   H17       1.0  0.34140  0.71560  0.37760  1.0000 0.1104335618
H   H18       1.0  0.65430  0.78420  0.30680  1.0000 0.0992300101
H   H19       1.0  0.67730  0.82880  0.19340  1.0000 0.1336689721
H   H20       1.0  0.24700  0.82090  0.16470  1.0000 0.1397772313
H   H21       1.0  0.24840  0.79690  0.28210  1.0000 0.0992300101
H   H22       1.0  0.85900  0.07220  0.20300  1.0000 0.1336689721
H   H23       1.0  0.85400  0.10400  0.32740  1.0000 0.0918685477
H   H24       1.0  0.26230  0.07810  0.37270  1.0000 0.0918685477
H   H25       1.0  0.26270  0.03560  0.24550  1.0000 0.1104335618
H   H26       1.0  0.96000  0.12530  0.44920  1.0000 0.0992300101
H   H27       1.0  0.02690  0.02010  0.44910  1.0000 0.0992300101
H   H28       1.0  0.14250  0.35140  0.49090  1.0000 0.1104335618
H   H29       1.0  0.55150  0.43950  0.62730  1.0000 0.1104335618
H   H30       1.0  0.28920  0.08080  0.51950  1.0000 0.1104335618
H   H31       1.0  0.30160  0.56450  0.53980  1.0000 0.1104335618
H   H32       1.0  0.48010  0.60390  0.56720  1.0000 0.1104335618
H   H33       1.0  0.16330  0.58260  0.63130  1.0000 0.0918685477
H   H34       1.0  0.14770  0.67530  0.75130  1.0000 0.1336689721
H   H35       1.0  0.60110  0.76840  0.81820  1.0000 0.1397772313
H   H36       1.0  0.59890  0.66200  0.70120  1.0000 0.0992300101
H   H37       1.0  0.55610  0.14080  0.58640  1.0000 0.1104335618
H   H38       1.0  0.65860  0.28440  0.62240  1.0000 0.1104335618
H   H39       1.0  0.34570  0.21580  0.69320  1.0000 0.0992300101
H   H40       1.0  0.32270  0.17120  0.80660  1.0000 0.1336689721
H   H41       1.0  0.75300  0.17910  0.83530  1.0000 0.1397772313
H   H42       1.0  0.75160  0.20310  0.71790  1.0000 0.0992300101
C   C1        1.0  0.93600  0.97420  0.87130  1.0000 0.6232520373
C   C2        1.0  0.93580  0.94700  0.78830  1.0000 0.0140907572
C   C3        1.0  0.05940  0.92770  0.76260  1.0000 -0.1554737731
C   C4        1.0  0.06310  0.90910  0.68860  1.0000 -0.0531862049
C   C5        1.0  0.82100  0.92590  0.66230  1.0000 -0.0992443605
C   C6        1.0  0.81860  0.94850  0.73830  1.0000 -0.1688718169
C   C7        1.0  0.95430  0.89860  0.55950  1.0000 -0.2136211291
C   C8        1.0  0.80250  0.79840  0.50260  1.0000 0.1104335618
C   C9        1.0  0.78140  0.67220  0.48740  1.0000 -0.2777627974
C   C10       1.0  0.64090  0.57960  0.43800  1.0000 0.1104335618
C   C11       1.0  0.53980  0.62030  0.40580  1.0000 -0.2329547226
C   C12       1.0  0.56370  0.74760  0.41900  1.0000 0.0918685477
C   C13       1.0  0.69460  0.83410  0.46900  1.0000 -0.2474477881
C   C14       1.0  0.61850  0.44210  0.42460  1.0000 -0.2474477881
C   C15       1.0  0.74750  0.37980  0.32960  1.0000 -0.0027648333
C   C16       1.0  0.75760  0.32110  0.25770  1.0000 -0.1779785846
C   C17       1.0  0.62580  0.25830  0.20080  1.0000 -0.0027648333
C   C18       1.0  0.49070  0.26900  0.21920  1.0000 -0.144727987
C   C19       1.0  0.49120  0.33120  0.28860  1.0000 -0.0667868021
C   C20       1.0  0.62140  0.18140  0.12670  1.0000 0.6112473339
C   C21       1.0  0.44000  0.78000  0.38180  1.0000 -0.2474477881
C   C22       1.0  0.57520  0.79680  0.27820  1.0000 -0.0413393869
C   C23       1.0  0.58770  0.82050  0.20970  1.0000 -0.1779785846
C   C24       1.0  0.46640  0.83130  0.16630  1.0000 0.0258308233
C   C25       1.0  0.33350  0.81810  0.19360  1.0000 -0.1779785846
C   C26       1.0  0.33390  0.80160  0.26270  1.0000 -0.0413393869
C   C27       1.0  0.48000  0.86690  0.09420  1.0000 0.6272845895
C   C28       1.0  0.06400  0.02580  0.12870  1.0000 0.6232520373
C   C29       1.0  0.06420  0.05300  0.21170  1.0000 0.0140907572
C   C30       1.0  0.94060  0.07230  0.23740  1.0000 -0.1554737731
C   C31       1.0  0.93690  0.09090  0.31140  1.0000 -0.0531862049
C   C32       1.0  0.17900  0.07410  0.33770  1.0000 -0.0992443605
C   C33       1.0  0.18140  0.05150  0.26170  1.0000 -0.1688718169
C   C34       1.0  0.04570  0.10140  0.44050  1.0000 -0.2136211291
C   C35       1.0  0.19750  0.20160  0.49740  1.0000 0.1104335618
C   C36       1.0  0.21860  0.32780  0.51260  1.0000 -0.2777627974
C   C37       1.0  0.35910  0.42040  0.56200  1.0000 0.1104335618
C   C38       1.0  0.46020  0.37970  0.59420  1.0000 -0.2329547226
C   C39       1.0  0.43630  0.25240  0.58100  1.0000 0.0918685477
C   C40       1.0  0.30540  0.16590  0.53100  1.0000 -0.2474477881
C   C41       1.0  0.38150  0.55790  0.57540  1.0000 -0.2474477881
C   C42       1.0  0.25250  0.62020  0.67040  1.0000 -0.0027648333
C   C43       1.0  0.24240  0.67890  0.74230  1.0000 -0.1779785846
C   C44       1.0  0.37420  0.74170  0.79920  1.0000 -0.0027648333
C   C45       1.0  0.50930  0.73100  0.78080  1.0000 -0.144727987
C   C46       1.0  0.50880  0.66880  0.71140  1.0000 -0.0667868021
C   C47       1.0  0.37860  0.81860  0.87330  1.0000 0.6112473339
C   C48       1.0  0.56000  0.22000  0.61820  1.0000 -0.2474477881
C   C49       1.0  0.42480  0.20320  0.72180  1.0000 -0.0413393869
C   C50       1.0  0.41230  0.17950  0.79030  1.0000 -0.1779785846
C   C51       1.0  0.53360  0.16870  0.83370  1.0000 0.0258308233
C   C52       1.0  0.66650  0.18190  0.80640  1.0000 -0.1779785846
C   C53       1.0  0.66610  0.19840  0.73730  1.0000 -0.0413393869
C   C54       1.0  0.52000  0.13310  0.90580  1.0000 0.6272845895
N   N1        1.0  0.94490  0.90940  0.63800  1.0000 0.0377532609
N   N2        1.0  0.62430  0.38460  0.34440  1.0000 0.0841918544
N   N3        1.0  0.45090  0.79220  0.30260  1.0000 0.0992300101
N   N4        1.0  0.05510  0.09060  0.36200  1.0000 0.0377532609
N   N5        1.0  0.37570  0.61540  0.65560  1.0000 0.0841918544
N   N6        1.0  0.54910  0.20780  0.69740  1.0000 0.0918685477
O   O1        1.0  0.82190  0.98900  0.88890  1.0000 -0.6588914811
O   O2        1.0  0.05020  0.97400  0.91620  1.0000 -0.7455334633
O   O3        1.0  0.49710  0.12140  0.08070  1.0000 -0.6728823155
O   O4        1.0  0.74630  0.17440  0.11430  1.0000 -0.6535808414
O   O5        1.0  0.35450  0.85540  0.05280  1.0000 -0.6830384701
O   O6        1.0  0.61140  0.90970  0.08410  1.0000 -0.6588914811
O   O7        1.0  0.17810  0.01100  0.11110  1.0000 -0.6588914811
O   O8        1.0  0.94980  0.02600  0.08380  1.0000 -0.7438167899
O   O9        1.0  0.50290  0.87860  0.91930  1.0000 -0.6728823155
O   O10       1.0  0.25370  0.82560  0.88570  1.0000 -0.6535808414
O   O11       1.0  0.64550  0.14460  0.94720  1.0000 -0.6830384701
O   O12       1.0  0.38860  0.09030  0.91590  1.0000 -0.6588914811
