# DDEC6 charges by PACMAN v1.1 (https://github.com/mtap-research/PACMAN-charge/)
data_2018[Tb][nan]2[ASR]1
_chemical_formula_sum              "Tb4 H12 C28 S4 N4 O32"
_cell_length_a       9.2021
_cell_length_b       13.5642
_cell_length_c       11.3883
_cell_angle_alpha    90
_cell_angle_beta     101.59
_cell_angle_gamma    90

_symmetry_space_group_name_H-M    "P 1"
_symmetry_Int_Tables_number       1

loop_
  _symmetry_equiv_pos_as_xyz
  'x, y, z'

loop_
  _atom_site_type_symbol
  _atom_site_label
  _atom_site_symmetry_multiplicity
  _atom_site_fract_x
  _atom_site_fract_y
  _atom_site_fract_z
  _atom_site_occupancy
  _atom_site_charge
Tb  Tb1       1.0  0.47802  0.78373  0.20026  1.0000 2.1370403926
Tb  Tb2       1.0  0.02198  0.28373  0.79974  1.0000 2.1370403926
Tb  Tb3       1.0  0.52198  0.21627  0.79974  1.0000 2.1370403926
Tb  Tb4       1.0  0.97802  0.71627  0.20026  1.0000 2.1370403926
H   H1        1.0  0.45232  0.52578  0.22317  1.0000 0.1383483569
H   H2        1.0  0.82527  0.46337  0.46488  1.0000 0.1603802602
H   H3        1.0  0.43799  0.32652  0.47144  1.0000 0.1307521585
H   H4        1.0  0.04768  0.02578  0.77683  1.0000 0.1383483569
H   H5        1.0  0.67473  0.96337  0.53512  1.0000 0.1603802602
H   H6        1.0  0.06201  0.82652  0.52856  1.0000 0.1307521585
H   H7        1.0  0.54768  0.47422  0.77683  1.0000 0.1383483569
H   H8        1.0  0.17473  0.53663  0.53512  1.0000 0.1603802602
H   H9        1.0  0.56201  0.67348  0.52856  1.0000 0.1307521585
H   H10       1.0  0.95232  0.97422  0.22317  1.0000 0.1383483569
H   H11       1.0  0.32527  0.03663  0.46488  1.0000 0.1603802602
H   H12       1.0  0.93799  0.17348  0.47144  1.0000 0.1307521585
C   C1        1.0  0.72730  0.58920  0.28210  1.0000 0.6532479088
C   C2        1.0  0.50120  0.48890  0.29050  1.0000 0.0850398179
C   C3        1.0  0.65050  0.50850  0.33590  1.0000 -0.0507305986
C   C4        1.0  0.72230  0.45430  0.43410  1.0000 -0.0507305986
C   C5        1.0  0.64170  0.38670  0.48690  1.0000 -0.0507305986
C   C6        1.0  0.49300  0.37260  0.43520  1.0000 0.0606733795
C   C7        1.0  0.71080  0.33160  0.59870  1.0000 0.6712925594
C   C8        1.0  0.77270  0.08920  0.71790  1.0000 0.6532479088
C   C9        1.0  0.99880  0.98890  0.70950  1.0000 0.0843077611
C   C10       1.0  0.84950  0.00850  0.66410  1.0000 -0.0507305986
C   C11       1.0  0.77770  0.95430  0.56590  1.0000 -0.0507305986
C   C12       1.0  0.85830  0.88670  0.51310  1.0000 -0.0507305986
C   C13       1.0  0.00700  0.87260  0.56480  1.0000 0.0606733795
C   C14       1.0  0.78920  0.83160  0.40130  1.0000 0.6712925594
C   C15       1.0  0.27270  0.41080  0.71790  1.0000 0.6532479088
C   C16       1.0  0.49880  0.51110  0.70950  1.0000 0.0843077611
C   C17       1.0  0.34950  0.49150  0.66410  1.0000 -0.0507305986
C   C18       1.0  0.27770  0.54570  0.56590  1.0000 -0.0507305986
C   C19       1.0  0.35830  0.61330  0.51310  1.0000 -0.0507305986
C   C20       1.0  0.50700  0.62740  0.56480  1.0000 0.0606733795
C   C21       1.0  0.28920  0.66840  0.40130  1.0000 0.6712925594
C   C22       1.0  0.22730  0.91080  0.28210  1.0000 0.6532479088
C   C23       1.0  0.00120  0.01110  0.29050  1.0000 0.0850398179
C   C24       1.0  0.15050  0.99150  0.33590  1.0000 -0.0507305986
C   C25       1.0  0.22230  0.04570  0.43410  1.0000 -0.0507305986
C   C26       1.0  0.14170  0.11330  0.48690  1.0000 -0.0507305986
C   C27       1.0  0.99300  0.12740  0.43520  1.0000 0.0606733795
C   C28       1.0  0.21080  0.16840  0.59870  1.0000 0.6712925594
S   S1        1.0  0.18295  0.63362  0.04526  1.0000 1.4432997863
S   S2        1.0  0.31705  0.13362  0.95474  1.0000 1.4473387163
S   S3        1.0  0.81705  0.36638  0.95474  1.0000 1.4473387163
S   S4        1.0  0.68295  0.86638  0.04526  1.0000 1.4432997863
N   N1        1.0  0.42230  0.42090  0.33630  1.0000 -0.2190009605
N   N2        1.0  0.07770  0.92090  0.66370  1.0000 -0.2190009605
N   N3        1.0  0.57770  0.57910  0.66370  1.0000 -0.2190009605
N   N4        1.0  0.92230  0.07910  0.33630  1.0000 -0.2190009605
O   O1        1.0  0.86690  0.58790  0.29900  1.0000 -0.5923417647
O   O2        1.0  0.64710  0.65400  0.22250  1.0000 -0.6631568659
O   O3        1.0  0.62270  0.30030  0.66100  1.0000 -0.6516027142
O   O4        1.0  0.84990  0.32270  0.62080  1.0000 -0.6104030151
O   O5        1.0  0.34320  0.65850  0.07830  1.0000 -0.7304132421
O   O6        1.0  0.09470  0.72610  0.02310  1.0000 -0.6962933381
O   O7        1.0  0.15570  0.57150  0.93840  1.0000 -0.4737838794
O   O8        1.0  0.13430  0.58440  0.14680  1.0000 -0.6937914331
O   O9        1.0  0.63310  0.08790  0.70100  1.0000 -0.5923417647
O   O10       1.0  0.85290  0.15400  0.77750  1.0000 -0.6631568659
O   O11       1.0  0.87730  0.80030  0.33900  1.0000 -0.6516027142
O   O12       1.0  0.65010  0.82270  0.37920  1.0000 -0.6104030151
O   O13       1.0  0.15680  0.15850  0.92170  1.0000 -0.7304132421
O   O14       1.0  0.40530  0.22610  0.97690  1.0000 -0.6937914331
O   O15       1.0  0.34430  0.07150  0.06160  1.0000 -0.4737838794
O   O16       1.0  0.36570  0.08440  0.85320  1.0000 -0.6937914331
O   O17       1.0  0.13310  0.41210  0.70100  1.0000 -0.5923417647
O   O18       1.0  0.35290  0.34600  0.77750  1.0000 -0.6631568659
O   O19       1.0  0.37730  0.69970  0.33900  1.0000 -0.6516027142
O   O20       1.0  0.15010  0.67730  0.37920  1.0000 -0.6104030151
O   O21       1.0  0.65680  0.34150  0.92170  1.0000 -0.7304132421
O   O22       1.0  0.90530  0.27390  0.97690  1.0000 -0.6962933381
O   O23       1.0  0.84430  0.42850  0.06160  1.0000 -0.4737838794
O   O24       1.0  0.86570  0.41560  0.85320  1.0000 -0.6937914331
O   O25       1.0  0.36690  0.91210  0.29900  1.0000 -0.5923417647
O   O26       1.0  0.14710  0.84600  0.22250  1.0000 -0.6631568659
O   O27       1.0  0.12270  0.19970  0.66100  1.0000 -0.6516027142
O   O28       1.0  0.34990  0.17730  0.62080  1.0000 -0.6104030151
O   O29       1.0  0.84320  0.84150  0.07830  1.0000 -0.7304132421
O   O30       1.0  0.59470  0.77390  0.02310  1.0000 -0.6937914331
O   O31       1.0  0.65570  0.92850  0.93840  1.0000 -0.4737838794
O   O32       1.0  0.63430  0.91560  0.14680  1.0000 -0.6937914331
