# DDEC6 charges by PACMAN v1.1 (https://github.com/mtap-research/PACMAN-charge/)
data_2018[Zr][pcu]3[ASR]5
_chemical_formula_sum              "Zr6 H72 C120 O32"
_cell_length_a       18.2261
_cell_length_b       18.2261
_cell_length_c       18.2261
_cell_angle_alpha    112.81
_cell_angle_beta     112.81
_cell_angle_gamma    112.81

_symmetry_space_group_name_H-M    "P 1"
_symmetry_Int_Tables_number       1

loop_
  _symmetry_equiv_pos_as_xyz
  'x, y, z'

loop_
  _atom_site_type_symbol
  _atom_site_label
  _atom_site_symmetry_multiplicity
  _atom_site_fract_x
  _atom_site_fract_y
  _atom_site_fract_z
  _atom_site_occupancy
  _atom_site_charge
Zr  Zr1       1.0  0.46214  0.41935  0.33160  1.0000 2.4063045402
Zr  Zr2       1.0  0.41935  0.33160  0.46214  1.0000 2.4063045402
Zr  Zr3       1.0  0.33160  0.46214  0.41935  1.0000 2.4063045402
Zr  Zr4       1.0  0.53786  0.58065  0.66840  1.0000 2.4063045402
Zr  Zr5       1.0  0.58065  0.66840  0.53786  1.0000 2.4063045402
Zr  Zr6       1.0  0.66840  0.53786  0.58065  1.0000 2.4063045402
H   H1        1.0  0.51490  0.51470  0.15730  1.0000 0.1259420575
H   H2        1.0  0.55120  0.57210  0.07290  1.0000 0.1090063994
H   H3        1.0  0.68120  0.85910  0.30510  1.0000 0.1187119695
H   H4        1.0  0.64680  0.79990  0.38970  1.0000 0.1259420575
H   H5        1.0  0.51160  0.63780  0.98170  1.0000 0.1187119695
H   H6        1.0  0.55840  0.69540  0.90130  1.0000 0.1187119695
H   H7        1.0  0.72060  0.84830  0.99690  1.0000 0.1187119695
H   H8        1.0  0.79040  0.88980  0.25670  1.0000 0.1187119695
H   H9        1.0  0.83880  0.02600  0.11560  1.0000 0.1090063994
H   H10       1.0  0.00420  0.17030  0.20370  1.0000 0.1187119695
H   H11       1.0  0.11900  0.10900  0.38750  1.0000 0.1259420575
H   H12       1.0  0.95270  0.97020  0.30530  1.0000 0.1187119695
H   H13       1.0  0.51470  0.15730  0.51490  1.0000 0.1259420575
H   H14       1.0  0.57210  0.07290  0.55120  1.0000 0.1090063994
H   H15       1.0  0.85910  0.30510  0.68120  1.0000 0.1187119695
H   H16       1.0  0.79990  0.38970  0.64680  1.0000 0.1259420575
H   H17       1.0  0.63780  0.98170  0.51160  1.0000 0.1187119695
H   H18       1.0  0.69540  0.90130  0.55840  1.0000 0.1187119695
H   H19       1.0  0.84830  0.99690  0.72060  1.0000 0.1187119695
H   H20       1.0  0.88980  0.25670  0.79040  1.0000 0.1187119695
H   H21       1.0  0.02600  0.11560  0.83880  1.0000 0.1090063994
H   H22       1.0  0.17030  0.20370  0.00420  1.0000 0.1187119695
H   H23       1.0  0.10900  0.38750  0.11900  1.0000 0.1259420575
H   H24       1.0  0.97020  0.30530  0.95270  1.0000 0.1187119695
H   H25       1.0  0.15730  0.51490  0.51470  1.0000 0.1259420575
H   H26       1.0  0.07290  0.55120  0.57210  1.0000 0.1090063994
H   H27       1.0  0.30510  0.68120  0.85910  1.0000 0.1187119695
H   H28       1.0  0.38970  0.64680  0.79990  1.0000 0.1259420575
H   H29       1.0  0.98170  0.51160  0.63780  1.0000 0.1187119695
H   H30       1.0  0.90130  0.55840  0.69540  1.0000 0.1187119695
H   H31       1.0  0.99690  0.72060  0.84830  1.0000 0.1187119695
H   H32       1.0  0.25670  0.79040  0.88980  1.0000 0.1187119695
H   H33       1.0  0.11560  0.83880  0.02600  1.0000 0.1090063994
H   H34       1.0  0.20370  0.00420  0.17030  1.0000 0.1187119695
H   H35       1.0  0.38750  0.11900  0.10900  1.0000 0.1259420575
H   H36       1.0  0.30530  0.95270  0.97020  1.0000 0.1187119695
H   H37       1.0  0.48510  0.48530  0.84270  1.0000 0.1259420575
H   H38       1.0  0.44880  0.42790  0.92710  1.0000 0.1090063994
H   H39       1.0  0.31880  0.14090  0.69490  1.0000 0.1187119695
H   H40       1.0  0.35320  0.20010  0.61030  1.0000 0.1259420575
H   H41       1.0  0.48840  0.36220  0.01830  1.0000 0.1187119695
H   H42       1.0  0.44160  0.30460  0.09870  1.0000 0.1187119695
H   H43       1.0  0.27940  0.15170  0.00310  1.0000 0.1187119695
H   H44       1.0  0.20960  0.11020  0.74330  1.0000 0.1187119695
H   H45       1.0  0.16120  0.97400  0.88440  1.0000 0.1090063994
H   H46       1.0  0.99580  0.82970  0.79630  1.0000 0.1187119695
H   H47       1.0  0.88100  0.89100  0.61250  1.0000 0.1259420575
H   H48       1.0  0.04730  0.02980  0.69470  1.0000 0.1187119695
H   H49       1.0  0.48530  0.84270  0.48510  1.0000 0.1259420575
H   H50       1.0  0.42790  0.92710  0.44880  1.0000 0.1090063994
H   H51       1.0  0.14090  0.69490  0.31880  1.0000 0.1187119695
H   H52       1.0  0.20010  0.61030  0.35320  1.0000 0.1259420575
H   H53       1.0  0.36220  0.01830  0.48840  1.0000 0.1187119695
H   H54       1.0  0.30460  0.09870  0.44160  1.0000 0.1187119695
H   H55       1.0  0.15170  0.00310  0.27940  1.0000 0.1187119695
H   H56       1.0  0.11020  0.74330  0.20960  1.0000 0.1187119695
H   H57       1.0  0.97400  0.88440  0.16120  1.0000 0.1090063994
H   H58       1.0  0.82970  0.79630  0.99580  1.0000 0.1187119695
H   H59       1.0  0.89100  0.61250  0.88100  1.0000 0.1259420575
H   H60       1.0  0.02980  0.69470  0.04730  1.0000 0.1187119695
H   H61       1.0  0.84270  0.48510  0.48530  1.0000 0.1259420575
H   H62       1.0  0.92710  0.44880  0.42790  1.0000 0.1090063994
H   H63       1.0  0.69490  0.31880  0.14090  1.0000 0.1187119695
H   H64       1.0  0.61030  0.35320  0.20010  1.0000 0.1259420575
H   H65       1.0  0.01830  0.48840  0.36220  1.0000 0.1187119695
H   H66       1.0  0.09870  0.44160  0.30460  1.0000 0.1187119695
H   H67       1.0  0.00310  0.27940  0.15170  1.0000 0.1187119695
H   H68       1.0  0.74330  0.20960  0.11020  1.0000 0.1187119695
H   H69       1.0  0.88440  0.16120  0.97400  1.0000 0.1090063994
H   H70       1.0  0.79630  0.99580  0.82970  1.0000 0.1187119695
H   H71       1.0  0.61250  0.88100  0.89100  1.0000 0.1259420575
H   H72       1.0  0.69470  0.04730  0.02980  1.0000 0.1187119695
C   C1        1.0  0.55543  0.61353  0.33534  1.0000 0.6360535741
C   C2        1.0  0.57660  0.65140  0.28080  1.0000 -0.0339930751
C   C3        1.0  0.54910  0.58510  0.18770  1.0000 -0.0897012333
C   C4        1.0  0.57040  0.61910  0.13720  1.0000 -0.1517638469
C   C5        1.0  0.61960  0.72140  0.18010  1.0000 0.0792099819
C   C6        1.0  0.64760  0.78880  0.27460  1.0000 -0.1517638469
C   C7        1.0  0.62650  0.75330  0.32460  1.0000 -0.0897012333
C   C8        1.0  0.64650  0.75890  0.12770  1.0000 0.0792099819
C   C9        1.0  0.57770  0.70080  0.02150  1.0000 -0.1576345088
C   C10       1.0  0.60580  0.73490  0.97370  1.0000 -0.0693325778
C   C11       1.0  0.70220  0.82590  0.03050  1.0000 -0.1442467476
C   C12       1.0  0.77310  0.88580  0.13790  1.0000 0.0792099819
C   C13       1.0  0.74330  0.85040  0.18420  1.0000 -0.1896095778
C   C14       1.0  0.87840  0.98040  0.19810  1.0000 0.0792099819
C   C15       1.0  0.89570  0.04220  0.17120  1.0000 -0.1576345088
C   C16       1.0  0.99440  0.12790  0.22290  1.0000 -0.0897012333
C   C17       1.0  0.07750  0.15135  0.30145  1.0000 -0.0339930751
C   C18       1.0  0.06188  0.09235  0.33197  1.0000 -0.0966613161
C   C19       1.0  0.96274  0.00860  0.28176  1.0000 -0.1576345088
C   C20       1.0  0.18386  0.23890  0.35174  1.0000 0.6360535741
C   C21       1.0  0.61353  0.33534  0.55543  1.0000 0.6360535741
C   C22       1.0  0.65140  0.28080  0.57660  1.0000 -0.0339930751
C   C23       1.0  0.58510  0.18770  0.54910  1.0000 -0.0897012333
C   C24       1.0  0.61910  0.13720  0.57040  1.0000 -0.1517638469
C   C25       1.0  0.72140  0.18010  0.61960  1.0000 0.0792099819
C   C26       1.0  0.78880  0.27460  0.64760  1.0000 -0.1517638469
C   C27       1.0  0.75330  0.32460  0.62650  1.0000 -0.0897012333
C   C28       1.0  0.75890  0.12770  0.64650  1.0000 0.0792099819
C   C29       1.0  0.70080  0.02150  0.57770  1.0000 -0.1576345088
C   C30       1.0  0.73490  0.97370  0.60580  1.0000 -0.0693325778
C   C31       1.0  0.82590  0.03050  0.70220  1.0000 -0.1442467476
C   C32       1.0  0.88580  0.13790  0.77310  1.0000 0.0792099819
C   C33       1.0  0.85040  0.18420  0.74330  1.0000 -0.1896095778
C   C34       1.0  0.98040  0.19810  0.87840  1.0000 0.0792099819
C   C35       1.0  0.04220  0.17120  0.89570  1.0000 -0.1576345088
C   C36       1.0  0.12790  0.22290  0.99440  1.0000 -0.0897012333
C   C37       1.0  0.15135  0.30145  0.07750  1.0000 -0.0339930751
C   C38       1.0  0.09235  0.33197  0.06188  1.0000 -0.0966613161
C   C39       1.0  0.00860  0.28176  0.96274  1.0000 -0.1576345088
C   C40       1.0  0.23890  0.35174  0.18386  1.0000 0.6360535741
C   C41       1.0  0.33534  0.55543  0.61353  1.0000 0.6360535741
C   C42       1.0  0.28080  0.57660  0.65140  1.0000 -0.0339930751
C   C43       1.0  0.18770  0.54910  0.58510  1.0000 -0.0897012333
C   C44       1.0  0.13720  0.57040  0.61910  1.0000 -0.1517638469
C   C45       1.0  0.18010  0.61960  0.72140  1.0000 0.0792099819
C   C46       1.0  0.27460  0.64760  0.78880  1.0000 -0.1517638469
C   C47       1.0  0.32460  0.62650  0.75330  1.0000 -0.0897012333
C   C48       1.0  0.12770  0.64650  0.75890  1.0000 0.0792099819
C   C49       1.0  0.02150  0.57770  0.70080  1.0000 -0.1576345088
C   C50       1.0  0.97370  0.60580  0.73490  1.0000 -0.0693325778
C   C51       1.0  0.03050  0.70220  0.82590  1.0000 -0.1442467476
C   C52       1.0  0.13790  0.77310  0.88580  1.0000 0.0792099819
C   C53       1.0  0.18420  0.74330  0.85040  1.0000 -0.1896095778
C   C54       1.0  0.19810  0.87840  0.98040  1.0000 0.0792099819
C   C55       1.0  0.17120  0.89570  0.04220  1.0000 -0.1576345088
C   C56       1.0  0.22290  0.99440  0.12790  1.0000 -0.0897012333
C   C57       1.0  0.30145  0.07750  0.15135  1.0000 -0.0339930751
C   C58       1.0  0.33197  0.06188  0.09235  1.0000 -0.0966613161
C   C59       1.0  0.28176  0.96274  0.00860  1.0000 -0.1576345088
C   C60       1.0  0.35174  0.18386  0.23890  1.0000 0.6360535741
C   C61       1.0  0.44457  0.38647  0.66466  1.0000 0.6360535741
C   C62       1.0  0.42340  0.34860  0.71920  1.0000 -0.0339930751
C   C63       1.0  0.45090  0.41490  0.81230  1.0000 -0.0897012333
C   C64       1.0  0.42960  0.38090  0.86280  1.0000 -0.1517638469
C   C65       1.0  0.38040  0.27860  0.81990  1.0000 0.0792099819
C   C66       1.0  0.35240  0.21120  0.72540  1.0000 -0.1517638469
C   C67       1.0  0.37350  0.24670  0.67540  1.0000 -0.0897012333
C   C68       1.0  0.35350  0.24110  0.87230  1.0000 0.0792099819
C   C69       1.0  0.42230  0.29920  0.97850  1.0000 -0.1576345088
C   C70       1.0  0.39420  0.26510  0.02630  1.0000 -0.0693325778
C   C71       1.0  0.29780  0.17410  0.96950  1.0000 -0.1442467476
C   C72       1.0  0.22690  0.11420  0.86210  1.0000 0.0792099819
C   C73       1.0  0.25670  0.14960  0.81580  1.0000 -0.1896095778
C   C74       1.0  0.12160  0.01960  0.80190  1.0000 0.0792099819
C   C75       1.0  0.10430  0.95780  0.82880  1.0000 -0.1576345088
C   C76       1.0  0.00560  0.87210  0.77710  1.0000 -0.0897012333
C   C77       1.0  0.92250  0.84865  0.69855  1.0000 -0.0339930751
C   C78       1.0  0.93812  0.90765  0.66803  1.0000 -0.0966613161
C   C79       1.0  0.03726  0.99140  0.71824  1.0000 -0.1576345088
C   C80       1.0  0.81614  0.76110  0.64826  1.0000 0.6360535741
C   C81       1.0  0.38647  0.66466  0.44457  1.0000 0.6360535741
C   C82       1.0  0.34860  0.71920  0.42340  1.0000 -0.0339930751
C   C83       1.0  0.41490  0.81230  0.45090  1.0000 -0.0897012333
C   C84       1.0  0.38090  0.86280  0.42960  1.0000 -0.1517638469
C   C85       1.0  0.27860  0.81990  0.38040  1.0000 0.0792099819
C   C86       1.0  0.21120  0.72540  0.35240  1.0000 -0.1517638469
C   C87       1.0  0.24670  0.67540  0.37350  1.0000 -0.0897012333
C   C88       1.0  0.24110  0.87230  0.35350  1.0000 0.0792099819
C   C89       1.0  0.29920  0.97850  0.42230  1.0000 -0.1576345088
C   C90       1.0  0.26510  0.02630  0.39420  1.0000 -0.0693325778
C   C91       1.0  0.17410  0.96950  0.29780  1.0000 -0.1442467476
C   C92       1.0  0.11420  0.86210  0.22690  1.0000 0.0792099819
C   C93       1.0  0.14960  0.81580  0.25670  1.0000 -0.1896095778
C   C94       1.0  0.01960  0.80190  0.12160  1.0000 0.0792099819
C   C95       1.0  0.95780  0.82880  0.10430  1.0000 -0.1576345088
C   C96       1.0  0.87210  0.77710  0.00560  1.0000 -0.0897012333
C   C97       1.0  0.84865  0.69855  0.92250  1.0000 -0.0339930751
C   C98       1.0  0.90765  0.66803  0.93812  1.0000 -0.0966613161
C   C99       1.0  0.99140  0.71824  0.03726  1.0000 -0.1576345088
C   C100      1.0  0.76110  0.64826  0.81614  1.0000 0.6360535741
C   C101      1.0  0.66466  0.44457  0.38647  1.0000 0.6360535741
C   C102      1.0  0.71920  0.42340  0.34860  1.0000 -0.0339930751
C   C103      1.0  0.81230  0.45090  0.41490  1.0000 -0.0897012333
C   C104      1.0  0.86280  0.42960  0.38090  1.0000 -0.1517638469
C   C105      1.0  0.81990  0.38040  0.27860  1.0000 0.0792099819
C   C106      1.0  0.72540  0.35240  0.21120  1.0000 -0.1517638469
C   C107      1.0  0.67540  0.37350  0.24670  1.0000 -0.0897012333
C   C108      1.0  0.87230  0.35350  0.24110  1.0000 0.0792099819
C   C109      1.0  0.97850  0.42230  0.29920  1.0000 -0.1576345088
C   C110      1.0  0.02630  0.39420  0.26510  1.0000 -0.0693325778
C   C111      1.0  0.96950  0.29780  0.17410  1.0000 -0.1442467476
C   C112      1.0  0.86210  0.22690  0.11420  1.0000 0.0792099819
C   C113      1.0  0.81580  0.25670  0.14960  1.0000 -0.1896095778
C   C114      1.0  0.80190  0.12160  0.01960  1.0000 0.0792099819
C   C115      1.0  0.82880  0.10430  0.95780  1.0000 -0.1576345088
C   C116      1.0  0.77710  0.00560  0.87210  1.0000 -0.0897012333
C   C117      1.0  0.69855  0.92250  0.84865  1.0000 -0.0339930751
C   C118      1.0  0.66803  0.93812  0.90765  1.0000 -0.0966613161
C   C119      1.0  0.71824  0.03726  0.99140  1.0000 -0.1576345088
C   C120      1.0  0.64826  0.81614  0.76110  1.0000 0.6360535741
O   O1        1.0  0.50919  0.51768  0.28933  1.0000 -0.5899709319
O   O2        1.0  0.58509  0.67924  0.42228  1.0000 -0.5899709319
O   O3        1.0  0.25262  0.23041  0.38657  1.0000 -0.5899709319
O   O4        1.0  0.19540  0.31283  0.35327  1.0000 -0.5899709319
O   O5        1.0  0.52460  0.39629  0.43791  1.0000 -1.0940018277
O   O6        1.0  0.51768  0.28933  0.50919  1.0000 -0.5899709319
O   O7        1.0  0.67924  0.42228  0.58509  1.0000 -0.5899709319
O   O8        1.0  0.23041  0.38657  0.25262  1.0000 -0.5899709319
O   O9        1.0  0.31283  0.35327  0.19540  1.0000 -0.5899709319
O   O10       1.0  0.39629  0.43791  0.52460  1.0000 -1.0940018277
O   O11       1.0  0.28933  0.50919  0.51768  1.0000 -0.5899709319
O   O12       1.0  0.42228  0.58509  0.67924  1.0000 -0.5899709319
O   O13       1.0  0.38657  0.25262  0.23041  1.0000 -0.5899709319
O   O14       1.0  0.35327  0.19540  0.31283  1.0000 -0.5899709319
O   O15       1.0  0.43791  0.52460  0.39629  1.0000 -1.0958970169
O   O16       1.0  0.49081  0.48232  0.71067  1.0000 -0.5899709319
O   O17       1.0  0.41491  0.32076  0.57772  1.0000 -0.5899709319
O   O18       1.0  0.74738  0.76959  0.61343  1.0000 -0.5899709319
O   O19       1.0  0.80460  0.68717  0.64673  1.0000 -0.5899709319
O   O20       1.0  0.47540  0.60371  0.56209  1.0000 -1.0940018277
O   O21       1.0  0.48232  0.71067  0.49081  1.0000 -0.5899709319
O   O22       1.0  0.32076  0.57772  0.41491  1.0000 -0.5899709319
O   O23       1.0  0.76959  0.61343  0.74738  1.0000 -0.5899709319
O   O24       1.0  0.68717  0.64673  0.80460  1.0000 -0.5899709319
O   O25       1.0  0.60371  0.56209  0.47540  1.0000 -1.0958970169
O   O26       1.0  0.71067  0.49081  0.48232  1.0000 -0.5899709319
O   O27       1.0  0.57772  0.41491  0.32076  1.0000 -0.5899709319
O   O28       1.0  0.61343  0.74738  0.76959  1.0000 -0.5899709319
O   O29       1.0  0.64673  0.80460  0.68717  1.0000 -0.5899709319
O   O30       1.0  0.56209  0.47540  0.60371  1.0000 -1.0958970169
O   O31       1.0  0.35823  0.35823  0.35823  1.0000 -1.0616098026
O   O32       1.0  0.64177  0.64177  0.64177  1.0000 -1.0616098026
