# DDEC6 charges by PACMAN v1.1 (https://github.com/mtap-research/PACMAN-charge/)
data_2018[Dy][nan]3[ASR]3
_chemical_formula_sum              "Dy8 H96 C168 S12 O72"
_cell_length_a       16.1128
_cell_length_b       21.2418
_cell_length_c       18.2117
_cell_angle_alpha    90
_cell_angle_beta     110.892
_cell_angle_gamma    90

_symmetry_space_group_name_H-M    "P 1"
_symmetry_Int_Tables_number       1

loop_
  _symmetry_equiv_pos_as_xyz
  'x, y, z'

loop_
  _atom_site_type_symbol
  _atom_site_label
  _atom_site_symmetry_multiplicity
  _atom_site_fract_x
  _atom_site_fract_y
  _atom_site_fract_z
  _atom_site_occupancy
  _atom_site_charge
Dy  Dy1       1.0  0.05007  0.02619  0.92169  1.0000 2.0938258294
Dy  Dy2       1.0  0.02845  0.99483  0.64116  1.0000 2.0731849793
Dy  Dy3       1.0  0.44993  0.52619  0.07831  1.0000 2.0938258294
Dy  Dy4       1.0  0.47155  0.49483  0.35884  1.0000 2.0731849793
Dy  Dy5       1.0  0.94993  0.97381  0.07831  1.0000 2.0938258294
Dy  Dy6       1.0  0.97155  0.00517  0.35884  1.0000 2.0731849793
Dy  Dy7       1.0  0.55007  0.47381  0.92169  1.0000 2.0938258294
Dy  Dy8       1.0  0.52845  0.50517  0.64116  1.0000 2.0731849793
H   H1        1.0  0.25692  0.94305  0.72683  1.0000 0.1203646464
H   H2        1.0  0.39852  0.90704  0.74493  1.0000 0.1203646464
H   H3        1.0  0.47596  0.94856  0.97440  1.0000 0.1203646464
H   H4        1.0  0.33392  0.98297  0.95633  1.0000 0.1203646464
H   H5        1.0  0.53646  0.77601  0.79543  1.0000 0.1203646464
H   H6        1.0  0.52232  0.67210  0.82745  1.0000 0.1436095807
H   H7        1.0  0.51899  0.72782  0.03546  1.0000 0.1203646464
H   H8        1.0  0.54360  0.82981  0.00823  1.0000 0.128826826
H   H9        1.0  0.72616  0.01313  0.73777  1.0000 0.128826826
H   H10       1.0  0.57902  0.04482  0.70119  1.0000 0.128826826
H   H11       1.0  0.62078  0.08948  0.92600  1.0000 0.1141765497
H   H12       1.0  0.76703  0.05642  0.96213  1.0000 0.1203646464
H   H13       1.0  0.44522  0.18505  0.65576  1.0000 0.128826826
H   H14       1.0  0.45753  0.29248  0.64514  1.0000 0.128826826
H   H15       1.0  0.55079  0.30753  0.87855  1.0000 0.128826826
H   H16       1.0  0.53845  0.20064  0.88903  1.0000 0.1141765497
H   H17       1.0  0.18949  0.91876  0.41072  1.0000 0.128826826
H   H18       1.0  0.32854  0.89805  0.40533  1.0000 0.1203646464
H   H19       1.0  0.44294  0.96574  0.62420  1.0000 0.128826826
H   H20       1.0  0.30444  0.98523  0.62891  1.0000 0.1203646464
H   H21       1.0  0.44618  0.79378  0.43552  1.0000 0.1203646464
H   H22       1.0  0.44759  0.69076  0.47261  1.0000 0.128826826
H   H23       1.0  0.58603  0.73732  0.69534  1.0000 0.1203646464
H   H24       1.0  0.58151  0.84179  0.65973  1.0000 0.128826826
H   H25       1.0  0.24308  0.44305  0.27317  1.0000 0.1203646464
H   H26       1.0  0.10148  0.40704  0.25507  1.0000 0.1203646464
H   H27       1.0  0.02404  0.44856  0.02560  1.0000 0.1203646464
H   H28       1.0  0.16608  0.48297  0.04367  1.0000 0.1203646464
H   H29       1.0  0.96354  0.27601  0.20457  1.0000 0.1203646464
H   H30       1.0  0.97768  0.17210  0.17255  1.0000 0.1436095807
H   H31       1.0  0.98101  0.22782  0.96454  1.0000 0.1141765497
H   H32       1.0  0.95640  0.32981  0.99177  1.0000 0.128826826
H   H33       1.0  0.77384  0.51313  0.26223  1.0000 0.128826826
H   H34       1.0  0.92098  0.54482  0.29881  1.0000 0.128826826
H   H35       1.0  0.87922  0.58948  0.07400  1.0000 0.1141765497
H   H36       1.0  0.73297  0.55642  0.03787  1.0000 0.1203646464
H   H37       1.0  0.05478  0.68505  0.34424  1.0000 0.128826826
H   H38       1.0  0.04247  0.79248  0.35486  1.0000 0.128826826
H   H39       1.0  0.94921  0.80753  0.12145  1.0000 0.128826826
H   H40       1.0  0.96155  0.70064  0.11097  1.0000 0.1141765497
H   H41       1.0  0.31051  0.41876  0.58928  1.0000 0.128826826
H   H42       1.0  0.17146  0.39805  0.59467  1.0000 0.1203646464
H   H43       1.0  0.05706  0.46574  0.37580  1.0000 0.128826826
H   H44       1.0  0.19556  0.48523  0.37109  1.0000 0.1203646464
H   H45       1.0  0.05382  0.29378  0.56448  1.0000 0.1203646464
H   H46       1.0  0.05241  0.19076  0.52739  1.0000 0.128826826
H   H47       1.0  0.91397  0.23732  0.30466  1.0000 0.1203646464
H   H48       1.0  0.91849  0.34179  0.34027  1.0000 0.128826826
H   H49       1.0  0.74308  0.05695  0.27317  1.0000 0.1203646464
H   H50       1.0  0.60148  0.09296  0.25507  1.0000 0.1203646464
H   H51       1.0  0.52404  0.05144  0.02560  1.0000 0.1203646464
H   H52       1.0  0.66608  0.01703  0.04367  1.0000 0.1203646464
H   H53       1.0  0.46354  0.22399  0.20457  1.0000 0.1203646464
H   H54       1.0  0.47768  0.32790  0.17255  1.0000 0.1436095807
H   H55       1.0  0.48101  0.27218  0.96454  1.0000 0.1203646464
H   H56       1.0  0.45640  0.17019  0.99177  1.0000 0.128826826
H   H57       1.0  0.27384  0.98687  0.26223  1.0000 0.128826826
H   H58       1.0  0.42098  0.95518  0.29881  1.0000 0.128826826
H   H59       1.0  0.37922  0.91052  0.07400  1.0000 0.1141765497
H   H60       1.0  0.23297  0.94358  0.03787  1.0000 0.1203646464
H   H61       1.0  0.55478  0.81495  0.34424  1.0000 0.128826826
H   H62       1.0  0.54247  0.70752  0.35486  1.0000 0.128826826
H   H63       1.0  0.44921  0.69247  0.12145  1.0000 0.128826826
H   H64       1.0  0.46155  0.79936  0.11097  1.0000 0.1141765497
H   H65       1.0  0.81051  0.08124  0.58928  1.0000 0.128826826
H   H66       1.0  0.67146  0.10195  0.59467  1.0000 0.1203646464
H   H67       1.0  0.55706  0.03426  0.37580  1.0000 0.128826826
H   H68       1.0  0.69556  0.01477  0.37109  1.0000 0.1203646464
H   H69       1.0  0.55382  0.20622  0.56448  1.0000 0.1203646464
H   H70       1.0  0.55241  0.30924  0.52739  1.0000 0.128826826
H   H71       1.0  0.41397  0.26268  0.30466  1.0000 0.1203646464
H   H72       1.0  0.41849  0.15821  0.34027  1.0000 0.128826826
H   H73       1.0  0.75692  0.55695  0.72683  1.0000 0.1203646464
H   H74       1.0  0.89852  0.59296  0.74493  1.0000 0.1203646464
H   H75       1.0  0.97596  0.55144  0.97440  1.0000 0.1203646464
H   H76       1.0  0.83392  0.51703  0.95633  1.0000 0.1203646464
H   H77       1.0  0.03646  0.72399  0.79543  1.0000 0.1203646464
H   H78       1.0  0.02232  0.82790  0.82745  1.0000 0.1436095807
H   H79       1.0  0.01899  0.77218  0.03546  1.0000 0.1203646464
H   H80       1.0  0.04360  0.67019  0.00823  1.0000 0.128826826
H   H81       1.0  0.22616  0.48687  0.73777  1.0000 0.128826826
H   H82       1.0  0.07902  0.45518  0.70119  1.0000 0.128826826
H   H83       1.0  0.12078  0.41052  0.92600  1.0000 0.1141765497
H   H84       1.0  0.26703  0.44358  0.96213  1.0000 0.1203646464
H   H85       1.0  0.94522  0.31495  0.65576  1.0000 0.128826826
H   H86       1.0  0.95753  0.20752  0.64514  1.0000 0.128826826
H   H87       1.0  0.05079  0.19247  0.87855  1.0000 0.128826826
H   H88       1.0  0.03845  0.29936  0.88903  1.0000 0.1141765497
H   H89       1.0  0.68949  0.58124  0.41072  1.0000 0.128826826
H   H90       1.0  0.82854  0.60195  0.40533  1.0000 0.1203646464
H   H91       1.0  0.94294  0.53426  0.62420  1.0000 0.128826826
H   H92       1.0  0.80444  0.51477  0.62891  1.0000 0.1203646464
H   H93       1.0  0.94618  0.70622  0.43552  1.0000 0.1203646464
H   H94       1.0  0.94759  0.80924  0.47261  1.0000 0.128826826
H   H95       1.0  0.08603  0.76268  0.69534  1.0000 0.1203646464
H   H96       1.0  0.08151  0.65821  0.65973  1.0000 0.128826826
C   C1        1.0  0.28040  0.96468  0.84040  1.0000 -0.0194372323
C   C2        1.0  0.30050  0.94330  0.77680  1.0000 -0.0781408549
C   C3        1.0  0.38520  0.92230  0.78730  1.0000 -0.100701431
C   C4        1.0  0.44960  0.92425  0.86110  1.0000 -0.0882935042
C   C5        1.0  0.43160  0.94699  0.92490  1.0000 -0.100701431
C   C6        1.0  0.34680  0.96731  0.91390  1.0000 -0.0781408549
C   C7        1.0  0.18650  0.98272  0.82840  1.0000 0.6606086243
C   C8        1.0  0.54320  0.81259  0.89940  1.0000 -0.0781408549
C   C9        1.0  0.53510  0.76590  0.84470  1.0000 -0.1119647588
C   C10       1.0  0.52500  0.70400  0.86320  1.0000 -0.0743035524
C   C11       1.0  0.51890  0.68957  0.93550  1.0000 -0.0194372323
C   C12       1.0  0.52450  0.73730  0.98750  1.0000 -0.0882935042
C   C13       1.0  0.53800  0.79830  0.97130  1.0000 -0.1119647588
C   C14       1.0  0.50880  0.62270  0.95770  1.0000 0.6424157742
C   C15       1.0  0.76160  0.03302  0.85330  1.0000 -0.0064505558
C   C16       1.0  0.70500  0.02890  0.77540  1.0000 -0.0781408549
C   C17       1.0  0.61710  0.04790  0.75330  1.0000 -0.0882935042
C   C18       1.0  0.58720  0.07177  0.81020  1.0000 -0.0882935042
C   C19       1.0  0.64230  0.07450  0.88820  1.0000 -0.100701431
C   C20       1.0  0.72970  0.05490  0.90970  1.0000 -0.0882935042
C   C21       1.0  0.85830  0.01704  0.87650  1.0000 0.6163704518
C   C22       1.0  0.48910  0.18275  0.77330  1.0000 -0.0743035524
C   C23       1.0  0.46580  0.20980  0.70080  1.0000 -0.100701431
C   C24       1.0  0.47280  0.27430  0.69470  1.0000 -0.0882935042
C   C25       1.0  0.50190  0.31209  0.76000  1.0000 -0.0252532813
C   C26       1.0  0.52820  0.28320  0.83330  1.0000 -0.0882935042
C   C27       1.0  0.52130  0.21930  0.83960  1.0000 -0.1119647588
C   C28       1.0  0.50760  0.38250  0.75570  1.0000 0.6663054947
C   C29       1.0  0.23360  0.95024  0.52250  1.0000 -0.0194372323
C   C30       1.0  0.24040  0.92660  0.45420  1.0000 -0.0882935042
C   C31       1.0  0.32350  0.91480  0.45070  1.0000 -0.100701431
C   C32       1.0  0.39880  0.92802  0.51500  1.0000 -0.0882935042
C   C33       1.0  0.39210  0.95520  0.58180  1.0000 -0.0781408549
C   C34       1.0  0.30950  0.96643  0.58460  1.0000 -0.0781408549
C   C35       1.0  0.14370  0.96002  0.52900  1.0000 0.6606086243
C   C36       1.0  0.51270  0.82766  0.54470  1.0000 -0.0882935042
C   C37       1.0  0.47310  0.78240  0.48800  1.0000 -0.1119647588
C   C38       1.0  0.47420  0.72120  0.51040  1.0000 -0.0882935042
C   C39       1.0  0.51460  0.70330  0.58900  1.0000 0.0024343768
C   C40       1.0  0.55620  0.74890  0.64330  1.0000 -0.0882935042
C   C41       1.0  0.55460  0.81130  0.62220  1.0000 -0.100701431
C   C42       1.0  0.51450  0.63590  0.61360  1.0000 0.5648539785
C   C43       1.0  0.21960  0.46468  0.15960  1.0000 -0.0194372323
C   C44       1.0  0.19950  0.44330  0.22320  1.0000 -0.0781408549
C   C45       1.0  0.11480  0.42230  0.21270  1.0000 -0.100701431
C   C46       1.0  0.05040  0.42425  0.13890  1.0000 -0.0882935042
C   C47       1.0  0.06840  0.44699  0.07510  1.0000 -0.100701431
C   C48       1.0  0.15320  0.46731  0.08610  1.0000 -0.0781408549
C   C49       1.0  0.31350  0.48272  0.17160  1.0000 0.6606086243
C   C50       1.0  0.95680  0.31259  0.10060  1.0000 -0.0781408549
C   C51       1.0  0.96490  0.26590  0.15530  1.0000 -0.1119647588
C   C52       1.0  0.97500  0.20400  0.13680  1.0000 -0.0743035524
C   C53       1.0  0.98110  0.18957  0.06450  1.0000 -0.0194372323
C   C54       1.0  0.97550  0.23730  0.01250  1.0000 -0.0882935042
C   C55       1.0  0.96200  0.29830  0.02870  1.0000 -0.1119647588
C   C56       1.0  0.99120  0.12270  0.04230  1.0000 0.6424157742
C   C57       1.0  0.73840  0.53302  0.14670  1.0000 -0.0064505558
C   C58       1.0  0.79500  0.52890  0.22460  1.0000 -0.0781408549
C   C59       1.0  0.88290  0.54790  0.24670  1.0000 -0.0882935042
C   C60       1.0  0.91280  0.57177  0.18980  1.0000 -0.0882935042
C   C61       1.0  0.85770  0.57450  0.11180  1.0000 -0.100701431
C   C62       1.0  0.77030  0.55490  0.09030  1.0000 -0.0882935042
C   C63       1.0  0.64170  0.51704  0.12350  1.0000 0.6163704518
C   C64       1.0  0.01090  0.68275  0.22670  1.0000 -0.0743035524
C   C65       1.0  0.03420  0.70980  0.29920  1.0000 -0.100701431
C   C66       1.0  0.02720  0.77430  0.30530  1.0000 -0.0882935042
C   C67       1.0  0.99810  0.81209  0.24000  1.0000 -0.0252532813
C   C68       1.0  0.97180  0.78320  0.16670  1.0000 -0.0882935042
C   C69       1.0  0.97870  0.71930  0.16040  1.0000 -0.1119647588
C   C70       1.0  0.99240  0.88250  0.24430  1.0000 0.6663054947
C   C71       1.0  0.26640  0.45024  0.47750  1.0000 -0.0194372323
C   C72       1.0  0.25960  0.42660  0.54580  1.0000 -0.0882935042
C   C73       1.0  0.17650  0.41480  0.54930  1.0000 -0.100701431
C   C74       1.0  0.10120  0.42802  0.48500  1.0000 -0.0882935042
C   C75       1.0  0.10790  0.45520  0.41820  1.0000 -0.0781408549
C   C76       1.0  0.19050  0.46643  0.41540  1.0000 -0.0781408549
C   C77       1.0  0.35630  0.46002  0.47100  1.0000 0.6606086243
C   C78       1.0  0.98730  0.32766  0.45530  1.0000 -0.0882935042
C   C79       1.0  0.02690  0.28240  0.51200  1.0000 -0.1119647588
C   C80       1.0  0.02580  0.22120  0.48960  1.0000 -0.0882935042
C   C81       1.0  0.98540  0.20330  0.41100  1.0000 0.0024343768
C   C82       1.0  0.94380  0.24890  0.35670  1.0000 -0.0882935042
C   C83       1.0  0.94540  0.31130  0.37780  1.0000 -0.100701431
C   C84       1.0  0.98550  0.13590  0.38640  1.0000 0.5648539785
C   C85       1.0  0.71960  0.03532  0.15960  1.0000 -0.0194372323
C   C86       1.0  0.69950  0.05670  0.22320  1.0000 -0.0781408549
C   C87       1.0  0.61480  0.07770  0.21270  1.0000 -0.100701431
C   C88       1.0  0.55040  0.07575  0.13890  1.0000 -0.0882935042
C   C89       1.0  0.56840  0.05301  0.07510  1.0000 -0.100701431
C   C90       1.0  0.65320  0.03269  0.08610  1.0000 -0.0781408549
C   C91       1.0  0.81350  0.01728  0.17160  1.0000 0.6606086243
C   C92       1.0  0.45680  0.18741  0.10060  1.0000 -0.0781408549
C   C93       1.0  0.46490  0.23410  0.15530  1.0000 -0.1119647588
C   C94       1.0  0.47500  0.29600  0.13680  1.0000 -0.0743035524
C   C95       1.0  0.48110  0.31043  0.06450  1.0000 -0.0194372323
C   C96       1.0  0.47550  0.26270  0.01250  1.0000 -0.0882935042
C   C97       1.0  0.46200  0.20170  0.02870  1.0000 -0.1119647588
C   C98       1.0  0.49120  0.37730  0.04230  1.0000 0.6424157742
C   C99       1.0  0.23840  0.96698  0.14670  1.0000 -0.0064505558
C   C100      1.0  0.29500  0.97110  0.22460  1.0000 -0.0781408549
C   C101      1.0  0.38290  0.95210  0.24670  1.0000 -0.0882935042
C   C102      1.0  0.41280  0.92823  0.18980  1.0000 -0.0882935042
C   C103      1.0  0.35770  0.92550  0.11180  1.0000 -0.100701431
C   C104      1.0  0.27030  0.94510  0.09030  1.0000 -0.0882935042
C   C105      1.0  0.14170  0.98296  0.12350  1.0000 0.6163704518
C   C106      1.0  0.51090  0.81725  0.22670  1.0000 -0.0743035524
C   C107      1.0  0.53420  0.79020  0.29920  1.0000 -0.100701431
C   C108      1.0  0.52720  0.72570  0.30530  1.0000 -0.0882935042
C   C109      1.0  0.49810  0.68791  0.24000  1.0000 -0.0252532813
C   C110      1.0  0.47180  0.71680  0.16670  1.0000 -0.0882935042
C   C111      1.0  0.47870  0.78070  0.16040  1.0000 -0.1119647588
C   C112      1.0  0.49240  0.61750  0.24430  1.0000 0.6663054947
C   C113      1.0  0.76640  0.04976  0.47750  1.0000 -0.0194372323
C   C114      1.0  0.75960  0.07340  0.54580  1.0000 -0.0882935042
C   C115      1.0  0.67650  0.08520  0.54930  1.0000 -0.100701431
C   C116      1.0  0.60120  0.07198  0.48500  1.0000 -0.0882935042
C   C117      1.0  0.60790  0.04480  0.41820  1.0000 -0.0781408549
C   C118      1.0  0.69050  0.03357  0.41540  1.0000 -0.0781408549
C   C119      1.0  0.85630  0.03998  0.47100  1.0000 0.6606086243
C   C120      1.0  0.48730  0.17234  0.45530  1.0000 -0.0882935042
C   C121      1.0  0.52690  0.21760  0.51200  1.0000 -0.1119647588
C   C122      1.0  0.52580  0.27880  0.48960  1.0000 -0.0882935042
C   C123      1.0  0.48540  0.29670  0.41100  1.0000 0.0024343768
C   C124      1.0  0.44380  0.25110  0.35670  1.0000 -0.0882935042
C   C125      1.0  0.44540  0.18870  0.37780  1.0000 -0.100701431
C   C126      1.0  0.48550  0.36410  0.38640  1.0000 0.5648539785
C   C127      1.0  0.78040  0.53532  0.84040  1.0000 -0.0194372323
C   C128      1.0  0.80050  0.55670  0.77680  1.0000 -0.0781408549
C   C129      1.0  0.88520  0.57770  0.78730  1.0000 -0.100701431
C   C130      1.0  0.94960  0.57575  0.86110  1.0000 -0.0882935042
C   C131      1.0  0.93160  0.55301  0.92490  1.0000 -0.100701431
C   C132      1.0  0.84680  0.53269  0.91390  1.0000 -0.0781408549
C   C133      1.0  0.68650  0.51728  0.82840  1.0000 0.6606086243
C   C134      1.0  0.04320  0.68741  0.89940  1.0000 -0.0781408549
C   C135      1.0  0.03510  0.73410  0.84470  1.0000 -0.1119647588
C   C136      1.0  0.02500  0.79600  0.86320  1.0000 -0.0743035524
C   C137      1.0  0.01890  0.81043  0.93550  1.0000 -0.0194372323
C   C138      1.0  0.02450  0.76270  0.98750  1.0000 -0.0882935042
C   C139      1.0  0.03800  0.70170  0.97130  1.0000 -0.1119647588
C   C140      1.0  0.00880  0.87730  0.95770  1.0000 0.6424157742
C   C141      1.0  0.26160  0.46698  0.85330  1.0000 -0.0064505558
C   C142      1.0  0.20500  0.47110  0.77540  1.0000 -0.0781408549
C   C143      1.0  0.11710  0.45210  0.75330  1.0000 -0.0882935042
C   C144      1.0  0.08720  0.42823  0.81020  1.0000 -0.0882935042
C   C145      1.0  0.14230  0.42550  0.88820  1.0000 -0.100701431
C   C146      1.0  0.22970  0.44510  0.90970  1.0000 -0.0882935042
C   C147      1.0  0.35830  0.48296  0.87650  1.0000 0.6163704518
C   C148      1.0  0.98910  0.31725  0.77330  1.0000 -0.0743035524
C   C149      1.0  0.96580  0.29020  0.70080  1.0000 -0.100701431
C   C150      1.0  0.97280  0.22570  0.69470  1.0000 -0.0882935042
C   C151      1.0  0.00190  0.18791  0.76000  1.0000 -0.0252532813
C   C152      1.0  0.02820  0.21680  0.83330  1.0000 -0.0882935042
C   C153      1.0  0.02130  0.28070  0.83960  1.0000 -0.1119647588
C   C154      1.0  0.00760  0.11750  0.75570  1.0000 0.6663054947
C   C155      1.0  0.73360  0.54976  0.52250  1.0000 -0.0194372323
C   C156      1.0  0.74040  0.57340  0.45420  1.0000 -0.0882935042
C   C157      1.0  0.82350  0.58520  0.45070  1.0000 -0.100701431
C   C158      1.0  0.89880  0.57198  0.51500  1.0000 -0.0882935042
C   C159      1.0  0.89210  0.54480  0.58180  1.0000 -0.0882935042
C   C160      1.0  0.80950  0.53357  0.58460  1.0000 -0.0781408549
C   C161      1.0  0.64370  0.53998  0.52900  1.0000 0.6606086243
C   C162      1.0  0.01270  0.67234  0.54470  1.0000 -0.0882935042
C   C163      1.0  0.97310  0.71760  0.48800  1.0000 -0.1119647588
C   C164      1.0  0.97420  0.77880  0.51040  1.0000 -0.0882935042
C   C165      1.0  0.01460  0.79670  0.58900  1.0000 0.0024343768
C   C166      1.0  0.05620  0.75110  0.64330  1.0000 -0.0882935042
C   C167      1.0  0.05460  0.68870  0.62220  1.0000 -0.100701431
C   C168      1.0  0.01450  0.86410  0.61360  1.0000 0.5648539785
S   S1        1.0  0.55592  0.89213  0.87600  1.0000 0.9760466043
S   S2        1.0  0.47767  0.10075  0.78563  1.0000 0.9728455865
S   S3        1.0  0.50419  0.90735  0.51428  1.0000 0.9760466043
S   S4        1.0  0.94408  0.39213  0.12400  1.0000 0.9760466043
S   S5        1.0  0.02233  0.60075  0.21437  1.0000 0.9728455865
S   S6        1.0  0.99581  0.40735  0.48572  1.0000 0.9760466043
S   S7        1.0  0.44408  0.10787  0.12400  1.0000 0.9728455865
S   S8        1.0  0.52233  0.89925  0.21437  1.0000 0.9728455865
S   S9        1.0  0.49581  0.09265  0.48572  1.0000 0.9760466043
S   S10       1.0  0.05592  0.60787  0.87600  1.0000 0.9728455865
S   S11       1.0  0.97767  0.39925  0.78563  1.0000 0.9728455865
S   S12       1.0  0.00419  0.59265  0.51428  1.0000 0.9760466043
O   O1        1.0  0.16428  0.98251  0.88774  1.0000 -0.6695479926
O   O2        1.0  0.13641  0.99744  0.76074  1.0000 -0.6939869996
O   O3        1.0  0.57060  0.89331  0.80281  1.0000 -0.5109936472
O   O4        1.0  0.61894  0.92160  0.94483  1.0000 -0.4954858598
O   O5        1.0  0.52178  0.58067  0.91484  1.0000 -0.6423272368
O   O6        1.0  0.48824  0.61382  0.01746  1.0000 -0.6756900426
O   O7        1.0  0.90296  0.00805  0.94905  1.0000 -0.7703670439
O   O8        1.0  0.89500  0.01796  0.82703  1.0000 -0.5910661694
O   O9        1.0  0.42302  0.07479  0.71148  1.0000 -0.4901869547
O   O10       1.0  0.45369  0.09333  0.85401  1.0000 -0.5109936472
O   O11       1.0  0.48667  0.40884  0.69042  1.0000 -0.6614198786
O   O12       1.0  0.53520  0.41097  0.82074  1.0000 -0.7025376436
O   O13       1.0  0.14051  0.95826  0.59642  1.0000 -0.6487254974
O   O14       1.0  0.07876  0.96849  0.46728  1.0000 -0.7025376436
O   O15       1.0  0.50132  0.90776  0.43442  1.0000 -0.5109936472
O   O16       1.0  0.57068  0.94265  0.57361  1.0000 -0.5109936472
O   O17       1.0  0.46572  0.59702  0.56264  1.0000 -0.6614198786
O   O18       1.0  0.56100  0.61924  0.68115  1.0000 -0.6157724139
O   O19       1.0  0.33572  0.48251  0.11226  1.0000 -0.6695479926
O   O20       1.0  0.36359  0.49744  0.23926  1.0000 -0.6939869996
O   O21       1.0  0.92940  0.39331  0.19719  1.0000 -0.5109936472
O   O22       1.0  0.88106  0.42160  0.05517  1.0000 -0.4954858598
O   O23       1.0  0.97822  0.08067  0.08516  1.0000 -0.6423272368
O   O24       1.0  0.01176  0.11382  0.98254  1.0000 -0.6756900426
O   O25       1.0  0.59704  0.50805  0.05095  1.0000 -0.7703670439
O   O26       1.0  0.60500  0.51796  0.17297  1.0000 -0.5910661694
O   O27       1.0  0.07698  0.57479  0.28852  1.0000 -0.4901869547
O   O28       1.0  0.04631  0.59333  0.14599  1.0000 -0.5109936472
O   O29       1.0  0.01333  0.90884  0.30958  1.0000 -0.6614198786
O   O30       1.0  0.96480  0.91097  0.17926  1.0000 -0.7025376436
O   O31       1.0  0.35949  0.45826  0.40358  1.0000 -0.6487254974
O   O32       1.0  0.42124  0.46849  0.53272  1.0000 -0.7025376436
O   O33       1.0  0.99868  0.40776  0.56558  1.0000 -0.5109936472
O   O34       1.0  0.92932  0.44265  0.42639  1.0000 -0.5109936472
O   O35       1.0  0.03428  0.09702  0.43736  1.0000 -0.6614198786
O   O36       1.0  0.93900  0.11924  0.31885  1.0000 -0.6157724139
O   O37       1.0  0.83572  0.01749  0.11226  1.0000 -0.6695479926
O   O38       1.0  0.86359  0.00256  0.23926  1.0000 -0.6939869996
O   O39       1.0  0.42940  0.10669  0.19719  1.0000 -0.5109936472
O   O40       1.0  0.38106  0.07840  0.05517  1.0000 -0.4954858598
O   O41       1.0  0.47822  0.41933  0.08516  1.0000 -0.6423272368
O   O42       1.0  0.51176  0.38618  0.98254  1.0000 -0.6756900426
O   O43       1.0  0.09704  0.99195  0.05095  1.0000 -0.7703670439
O   O44       1.0  0.10500  0.98204  0.17297  1.0000 -0.5910661694
O   O45       1.0  0.57698  0.92521  0.28852  1.0000 -0.4901869547
O   O46       1.0  0.54631  0.90667  0.14599  1.0000 -0.5109936472
O   O47       1.0  0.51333  0.59116  0.30958  1.0000 -0.6614198786
O   O48       1.0  0.46480  0.58903  0.17926  1.0000 -0.7025376436
O   O49       1.0  0.85949  0.04174  0.40358  1.0000 -0.6487254974
O   O50       1.0  0.92124  0.03151  0.53272  1.0000 -0.7025376436
O   O51       1.0  0.49868  0.09224  0.56558  1.0000 -0.5109936472
O   O52       1.0  0.42932  0.05735  0.42639  1.0000 -0.5109936472
O   O53       1.0  0.53428  0.40298  0.43736  1.0000 -0.6614198786
O   O54       1.0  0.43900  0.38076  0.31885  1.0000 -0.6157724139
O   O55       1.0  0.66428  0.51749  0.88774  1.0000 -0.6695479926
O   O56       1.0  0.63641  0.50256  0.76074  1.0000 -0.6939869996
O   O57       1.0  0.07060  0.60669  0.80281  1.0000 -0.5109936472
O   O58       1.0  0.11894  0.57840  0.94483  1.0000 -0.4954858598
O   O59       1.0  0.02178  0.91933  0.91484  1.0000 -0.6423272368
O   O60       1.0  0.98824  0.88618  0.01746  1.0000 -0.6756900426
O   O61       1.0  0.40296  0.49195  0.94905  1.0000 -0.7703670439
O   O62       1.0  0.39500  0.48204  0.82703  1.0000 -0.5910661694
O   O63       1.0  0.92302  0.42521  0.71148  1.0000 -0.4901869547
O   O64       1.0  0.95369  0.40667  0.85401  1.0000 -0.5109936472
O   O65       1.0  0.98667  0.09116  0.69042  1.0000 -0.6614198786
O   O66       1.0  0.03520  0.08903  0.82074  1.0000 -0.7025376436
O   O67       1.0  0.64051  0.54174  0.59642  1.0000 -0.6487254974
O   O68       1.0  0.57876  0.53151  0.46728  1.0000 -0.7025376436
O   O69       1.0  0.00132  0.59224  0.43442  1.0000 -0.5109936472
O   O70       1.0  0.07068  0.55735  0.57361  1.0000 -0.5109936472
O   O71       1.0  0.96572  0.90298  0.56264  1.0000 -0.6614198786
O   O72       1.0  0.06100  0.88076  0.68115  1.0000 -0.6157724139
