# DDEC6 charges by PACMAN v1.1 (https://github.com/mtap-research/PACMAN-charge/)
data_2018[Co][hcb]2[ASR]2
_chemical_formula_sum              "Co4 H36 C56 N12 O20"
_cell_length_a       7.3096
_cell_length_b       16.9031
_cell_length_c       14.267
_cell_angle_alpha    90
_cell_angle_beta     103.529
_cell_angle_gamma    90

_symmetry_space_group_name_H-M    "P 1"
_symmetry_Int_Tables_number       1

loop_
  _symmetry_equiv_pos_as_xyz
  'x, y, z'

loop_
  _atom_site_type_symbol
  _atom_site_label
  _atom_site_symmetry_multiplicity
  _atom_site_fract_x
  _atom_site_fract_y
  _atom_site_fract_z
  _atom_site_occupancy
  _atom_site_charge
Co  Co1       1.0  0.81193  0.06742  0.11676  1.0000 0.871740917
Co  Co2       1.0  0.68807  0.56742  0.88324  1.0000 0.871740917
Co  Co3       1.0  0.18807  0.93258  0.88324  1.0000 0.871740917
Co  Co4       1.0  0.31193  0.43258  0.11676  1.0000 0.871740917
H   H1        1.0  0.33547  0.16342  0.59567  1.0000 0.2888392603
H   H2        1.0  0.14654  0.15390  0.47142  1.0000 0.2888392603
H   H3        1.0  0.50232  0.12938  0.73610  1.0000 0.1367974731
H   H4        1.0  0.82734  0.35500  0.21488  1.0000 0.1513071454
H   H5        1.0  0.44212  0.36095  0.67353  1.0000 0.1304920914
H   H6        1.0  0.74900  0.28800  0.94300  1.0000 0.1245928372
H   H7        1.0  0.73600  0.24300  0.11800  1.0000 0.1245928372
H   H8        1.0  0.02600  0.33900  0.37300  1.0000 0.1367974731
H   H9        1.0  0.01200  0.10500  0.33300  1.0000 0.1304920914
H   H10       1.0  0.16453  0.66342  0.40433  1.0000 0.2888392603
H   H11       1.0  0.35346  0.65390  0.52858  1.0000 0.2888392603
H   H12       1.0  0.99768  0.62938  0.26390  1.0000 0.1367974731
H   H13       1.0  0.67266  0.85500  0.78512  1.0000 0.1513071454
H   H14       1.0  0.05788  0.86095  0.32647  1.0000 0.1304920914
H   H15       1.0  0.75100  0.78800  0.05700  1.0000 0.1245928372
H   H16       1.0  0.76400  0.74300  0.88200  1.0000 0.1245928372
H   H17       1.0  0.47400  0.83900  0.62700  1.0000 0.1367974731
H   H18       1.0  0.48800  0.60500  0.66700  1.0000 0.1304920914
H   H19       1.0  0.66453  0.83658  0.40433  1.0000 0.2888392603
H   H20       1.0  0.85346  0.84610  0.52858  1.0000 0.2888392603
H   H21       1.0  0.49768  0.87062  0.26390  1.0000 0.1367974731
H   H22       1.0  0.17266  0.64500  0.78512  1.0000 0.1513071454
H   H23       1.0  0.55788  0.63905  0.32647  1.0000 0.1304920914
H   H24       1.0  0.25100  0.71200  0.05700  1.0000 0.1245928372
H   H25       1.0  0.26400  0.75700  0.88200  1.0000 0.1245928372
H   H26       1.0  0.97400  0.66100  0.62700  1.0000 0.1367974731
H   H27       1.0  0.98800  0.89500  0.66700  1.0000 0.1304920914
H   H28       1.0  0.83547  0.33658  0.59567  1.0000 0.2888392603
H   H29       1.0  0.64654  0.34610  0.47142  1.0000 0.2888392603
H   H30       1.0  0.00232  0.37062  0.73610  1.0000 0.1367974731
H   H31       1.0  0.32734  0.14500  0.21488  1.0000 0.1513071454
H   H32       1.0  0.94212  0.13905  0.67353  1.0000 0.1304920914
H   H33       1.0  0.24900  0.21200  0.94300  1.0000 0.1245928372
H   H34       1.0  0.23600  0.25700  0.11800  1.0000 0.1245928372
H   H35       1.0  0.52600  0.16100  0.37300  1.0000 0.1367974731
H   H36       1.0  0.51200  0.39500  0.33300  1.0000 0.1304920914
C   C1        1.0  0.66590  0.27730  0.87460  1.0000 -0.1131808718
C   C2        1.0  0.81170  0.23950  0.18110  1.0000 0.0677848703
C   C3        1.0  0.62950  0.19850  0.84620  1.0000 0.0102574217
C   C4        1.0  0.69860  0.13060  0.91340  1.0000 0.5627088493
C   C5        1.0  0.23730  0.25420  0.52460  1.0000 0.6089710242
C   C6        1.0  0.52410  0.18190  0.75480  1.0000 -0.2157525027
C   C7        1.0  0.59780  0.33690  0.80910  1.0000 0.0102574217
C   C8        1.0  0.44960  0.24150  0.68960  1.0000 0.2253504789
C   C9        1.0  0.86550  0.30490  0.23860  1.0000 -0.1180183606
C   C10       1.0  0.48810  0.32020  0.71630  1.0000 -0.2100309276
C   C11       1.0  0.97610  0.29700  0.33170  1.0000 -0.1448992097
C   C12       1.0  0.64440  0.42120  0.83970  1.0000 0.5385314173
C   C13       1.0  0.02760  0.22070  0.36400  1.0000 0.1845464951
C   C14       1.0  0.96860  0.15730  0.30220  1.0000 -0.0515320458
C   C15       1.0  0.83410  0.77730  0.12540  1.0000 -0.1131808718
C   C16       1.0  0.68830  0.73950  0.81890  1.0000 0.0677848703
C   C17       1.0  0.87050  0.69850  0.15380  1.0000 0.0102574217
C   C18       1.0  0.80140  0.63060  0.08660  1.0000 0.5627088493
C   C19       1.0  0.26270  0.75420  0.47540  1.0000 0.6089710242
C   C20       1.0  0.97590  0.68190  0.24520  1.0000 -0.2157525027
C   C21       1.0  0.90220  0.83690  0.19090  1.0000 0.0102574217
C   C22       1.0  0.05040  0.74150  0.31040  1.0000 0.2253504789
C   C23       1.0  0.63450  0.80490  0.76140  1.0000 -0.1180183606
C   C24       1.0  0.01190  0.82020  0.28370  1.0000 -0.2100309276
C   C25       1.0  0.52390  0.79700  0.66830  1.0000 -0.1457535231
C   C26       1.0  0.85560  0.92120  0.16030  1.0000 0.5385314173
C   C27       1.0  0.47240  0.72070  0.63600  1.0000 0.1845464951
C   C28       1.0  0.53140  0.65730  0.69780  1.0000 -0.0515320458
C   C29       1.0  0.33410  0.72270  0.12540  1.0000 -0.1131808718
C   C30       1.0  0.18830  0.76050  0.81890  1.0000 0.0677848703
C   C31       1.0  0.37050  0.80150  0.15380  1.0000 0.0102574217
C   C32       1.0  0.30140  0.86940  0.08660  1.0000 0.5627088493
C   C33       1.0  0.76270  0.74580  0.47540  1.0000 0.6089710242
C   C34       1.0  0.47590  0.81810  0.24520  1.0000 -0.2100309276
C   C35       1.0  0.40220  0.66310  0.19090  1.0000 0.0102574217
C   C36       1.0  0.55040  0.75850  0.31040  1.0000 0.2253504789
C   C37       1.0  0.13450  0.69510  0.76140  1.0000 -0.1180183606
C   C38       1.0  0.51190  0.67980  0.28370  1.0000 -0.2100309276
C   C39       1.0  0.02390  0.70300  0.66830  1.0000 -0.1457535231
C   C40       1.0  0.35560  0.57880  0.16030  1.0000 0.5385314173
C   C41       1.0  0.97240  0.77930  0.63600  1.0000 0.1845464951
C   C42       1.0  0.03140  0.84270  0.69780  1.0000 -0.0515320458
C   C43       1.0  0.16590  0.22270  0.87460  1.0000 -0.1131808718
C   C44       1.0  0.31170  0.26050  0.18110  1.0000 0.0677848703
C   C45       1.0  0.12950  0.30150  0.84620  1.0000 0.0102574217
C   C46       1.0  0.19860  0.36940  0.91340  1.0000 0.5627088493
C   C47       1.0  0.73730  0.24580  0.52460  1.0000 0.6089710242
C   C48       1.0  0.02410  0.31810  0.75480  1.0000 -0.2157525027
C   C49       1.0  0.09780  0.16310  0.80910  1.0000 0.0102574217
C   C50       1.0  0.94960  0.25850  0.68960  1.0000 0.2253504789
C   C51       1.0  0.36550  0.19510  0.23860  1.0000 -0.1180183606
C   C52       1.0  0.98810  0.17980  0.71630  1.0000 -0.2100309276
C   C53       1.0  0.47610  0.20300  0.33170  1.0000 -0.1457535231
C   C54       1.0  0.14440  0.07880  0.83970  1.0000 0.5385314173
C   C55       1.0  0.52760  0.27930  0.36400  1.0000 0.1845464951
C   C56       1.0  0.46860  0.34270  0.30220  1.0000 -0.0515320458
N   N1        1.0  0.86380  0.16570  0.21160  1.0000 -0.2353950196
N   N2        1.0  0.33920  0.21410  0.60170  1.0000 -0.3936729187
N   N3        1.0  0.13890  0.20320  0.45600  1.0000 -0.414407877
N   N4        1.0  0.63620  0.66570  0.78840  1.0000 -0.2353950196
N   N5        1.0  0.16080  0.71410  0.39830  1.0000 -0.3936729187
N   N6        1.0  0.36110  0.70320  0.54400  1.0000 -0.414407877
N   N7        1.0  0.13620  0.83430  0.78840  1.0000 -0.2349604422
N   N8        1.0  0.66080  0.78590  0.39830  1.0000 -0.3936729187
N   N9        1.0  0.86110  0.79680  0.54400  1.0000 -0.414407877
N   N10       1.0  0.36380  0.33430  0.21160  1.0000 -0.2349604422
N   N11       1.0  0.83920  0.28590  0.60170  1.0000 -0.3936729187
N   N12       1.0  0.63890  0.29680  0.45600  1.0000 -0.414407877
O   O1        1.0  0.70970  0.43693  0.92760  1.0000 -0.5094396824
O   O2        1.0  0.75450  0.14593  0.00170  1.0000 -0.5728029886
O   O3        1.0  0.69210  0.06222  0.87640  1.0000 -0.532531237
O   O4        1.0  0.61670  0.47621  0.77690  1.0000 -0.5728029886
O   O5        1.0  0.23580  0.32590  0.51530  1.0000 -0.5094396824
O   O6        1.0  0.79030  0.93693  0.07240  1.0000 -0.5094396824
O   O7        1.0  0.74550  0.64593  0.99830  1.0000 -0.5728029886
O   O8        1.0  0.80790  0.56222  0.12360  1.0000 -0.532531237
O   O9        1.0  0.88330  0.97621  0.22310  1.0000 -0.5728029886
O   O10       1.0  0.26420  0.82590  0.48470  1.0000 -0.5094396824
O   O11       1.0  0.29030  0.56307  0.07240  1.0000 -0.5094396824
O   O12       1.0  0.24550  0.85407  0.99830  1.0000 -0.5728029886
O   O13       1.0  0.30790  0.93778  0.12360  1.0000 -0.532531237
O   O14       1.0  0.38330  0.52379  0.22310  1.0000 -0.5728029886
O   O15       1.0  0.76420  0.67410  0.48470  1.0000 -0.5094396824
O   O16       1.0  0.20970  0.06307  0.92760  1.0000 -0.5094396824
O   O17       1.0  0.25450  0.35407  0.00170  1.0000 -0.5728029886
O   O18       1.0  0.19210  0.43778  0.87640  1.0000 -0.532531237
O   O19       1.0  0.11670  0.02379  0.77690  1.0000 -0.5728029886
O   O20       1.0  0.73580  0.17410  0.51530  1.0000 -0.5094396824
