# DDEC6 charges by PACMAN v1.1 (https://github.com/mtap-research/PACMAN-charge/)
data_2018[Dy][fcu]3[ASR]1
_chemical_formula_sum              "Dy6 H24 C48 O32"
_cell_length_a       15.0655
_cell_length_b       15.0655
_cell_length_c       15.0655
_cell_angle_alpha    60
_cell_angle_beta     60
_cell_angle_gamma    60

_symmetry_space_group_name_H-M    "P 1"
_symmetry_Int_Tables_number       1

loop_
  _symmetry_equiv_pos_as_xyz
  'x, y, z'

loop_
  _atom_site_type_symbol
  _atom_site_label
  _atom_site_symmetry_multiplicity
  _atom_site_fract_x
  _atom_site_fract_y
  _atom_site_fract_z
  _atom_site_occupancy
  _atom_site_charge
Dy  Dy1       1.0  0.12667  0.12667  0.87333  1.0000 2.2002844346
Dy  Dy2       1.0  0.87333  0.87333  0.12667  1.0000 2.2002844346
Dy  Dy3       1.0  0.12667  0.87333  0.12667  1.0000 2.2002844346
Dy  Dy4       1.0  0.87333  0.12667  0.87333  1.0000 2.2002844346
Dy  Dy5       1.0  0.87333  0.12667  0.12667  1.0000 2.2002844346
Dy  Dy6       1.0  0.12667  0.87333  0.87333  1.0000 2.2002844346
H   H1        1.0  0.86540  0.42220  0.13460  1.0000 0.1374704883
H   H2        1.0  0.13460  0.57780  0.86540  1.0000 0.1374704883
H   H3        1.0  0.42220  0.86540  0.57780  1.0000 0.1374704883
H   H4        1.0  0.57780  0.13460  0.42220  1.0000 0.1374704883
H   H5        1.0  0.42220  0.13460  0.86540  1.0000 0.1374704883
H   H6        1.0  0.57780  0.86540  0.13460  1.0000 0.1374704883
H   H7        1.0  0.86540  0.57780  0.42220  1.0000 0.1374704883
H   H8        1.0  0.13460  0.42220  0.57780  1.0000 0.1374704883
H   H9        1.0  0.13460  0.86540  0.42220  1.0000 0.1374704883
H   H10       1.0  0.86540  0.13460  0.57780  1.0000 0.1374704883
H   H11       1.0  0.57780  0.42220  0.86540  1.0000 0.1374704883
H   H12       1.0  0.42220  0.57780  0.13460  1.0000 0.1374704883
H   H13       1.0  0.13460  0.42220  0.86540  1.0000 0.1374704883
H   H14       1.0  0.86540  0.57780  0.13460  1.0000 0.1374704883
H   H15       1.0  0.57780  0.86540  0.42220  1.0000 0.1374704883
H   H16       1.0  0.42220  0.13460  0.57780  1.0000 0.1374704883
H   H17       1.0  0.57780  0.42220  0.13460  1.0000 0.1374704883
H   H18       1.0  0.42220  0.57780  0.86540  1.0000 0.1374704883
H   H19       1.0  0.13460  0.86540  0.57780  1.0000 0.1374704883
H   H20       1.0  0.86540  0.13460  0.42220  1.0000 0.1374704883
H   H21       1.0  0.86540  0.42220  0.57780  1.0000 0.1374704883
H   H22       1.0  0.13460  0.57780  0.42220  1.0000 0.1374704883
H   H23       1.0  0.42220  0.86540  0.13460  1.0000 0.1374704883
H   H24       1.0  0.57780  0.13460  0.86540  1.0000 0.1374704883
C   C1        1.0  0.91870  0.45330  0.08130  1.0000 -0.0906951659
C   C2        1.0  0.08130  0.54670  0.91870  1.0000 -0.0906951659
C   C3        1.0  0.45330  0.91870  0.54670  1.0000 -0.0906951659
C   C4        1.0  0.54670  0.08130  0.45330  1.0000 -0.0906951659
C   C5        1.0  0.45330  0.08130  0.91870  1.0000 -0.0906951659
C   C6        1.0  0.54670  0.91870  0.08130  1.0000 -0.0906951659
C   C7        1.0  0.91870  0.54670  0.45330  1.0000 -0.0906951659
C   C8        1.0  0.08130  0.45330  0.54670  1.0000 -0.0906951659
C   C9        1.0  0.08130  0.91870  0.45330  1.0000 -0.0906951659
C   C10       1.0  0.91870  0.08130  0.54670  1.0000 -0.0906951659
C   C11       1.0  0.54670  0.45330  0.91870  1.0000 -0.0906951659
C   C12       1.0  0.45330  0.54670  0.08130  1.0000 -0.0906951659
C   C13       1.0  0.08130  0.45330  0.91870  1.0000 -0.0906951659
C   C14       1.0  0.91870  0.54670  0.08130  1.0000 -0.0906951659
C   C15       1.0  0.54670  0.91870  0.45330  1.0000 -0.0906951659
C   C16       1.0  0.45330  0.08130  0.54670  1.0000 -0.0906951659
C   C17       1.0  0.54670  0.45330  0.08130  1.0000 -0.0906951659
C   C18       1.0  0.45330  0.54670  0.91870  1.0000 -0.0906951659
C   C19       1.0  0.08130  0.91870  0.54670  1.0000 -0.0906951659
C   C20       1.0  0.91870  0.08130  0.45330  1.0000 -0.0906951659
C   C21       1.0  0.91870  0.45330  0.54670  1.0000 -0.0906951659
C   C22       1.0  0.08130  0.54670  0.45330  1.0000 -0.0906951659
C   C23       1.0  0.45330  0.91870  0.08130  1.0000 -0.0906951659
C   C24       1.0  0.54670  0.08130  0.91870  1.0000 -0.0906951659
C   C25       1.0  0.00000  0.30680  0.00000  1.0000 0.6629958682
C   C26       1.0  0.00000  0.40760  0.00000  1.0000 -0.006256159
C   C27       1.0  0.00000  0.69320  0.00000  1.0000 0.6629958682
C   C28       1.0  0.00000  0.59240  0.00000  1.0000 -0.006256159
C   C29       1.0  0.30680  0.00000  0.69320  1.0000 0.6629958682
C   C30       1.0  0.40760  0.00000  0.59240  1.0000 -0.006256159
C   C31       1.0  0.69320  0.00000  0.30680  1.0000 0.6629958682
C   C32       1.0  0.59240  1.00000  0.40760  1.0000 -0.006256159
C   C33       1.0  0.30680  0.00000  0.00000  1.0000 0.6629958682
C   C34       1.0  0.40760  0.00000  0.00000  1.0000 -0.006256159
C   C35       1.0  0.69320  0.00000  0.00000  1.0000 0.6629958682
C   C36       1.0  0.59240  0.00000  0.00000  1.0000 -0.006256159
C   C37       1.0  0.00000  0.69320  0.30680  1.0000 0.6629958682
C   C38       1.0  0.00000  0.59240  0.40760  1.0000 -0.006256159
C   C39       1.0  0.00000  0.30680  0.69320  1.0000 0.6629958682
C   C40       1.0  0.00000  0.40760  0.59240  1.0000 -0.006256159
C   C41       1.0  0.00000  0.00000  0.30680  1.0000 0.6629958682
C   C42       1.0  0.00000  1.00000  0.40760  1.0000 -0.006256159
C   C43       1.0  0.00000  0.00000  0.69320  1.0000 0.6629958682
C   C44       1.0  0.00000  0.00000  0.59240  1.0000 -0.006256159
C   C45       1.0  0.69320  0.30680  0.00000  1.0000 0.6629958682
C   C46       1.0  0.59240  0.40760  0.00000  1.0000 -0.006256159
C   C47       1.0  0.30680  0.69320  0.00000  1.0000 0.6629958682
C   C48       1.0  0.40760  0.59240  0.00000  1.0000 -0.006256159
O   O1        1.0  0.05880  0.05880  0.05880  1.0000 -0.9486549166
O   O2        1.0  0.05880  0.82360  0.05880  1.0000 -0.9415307311
O   O3        1.0  0.05880  0.05880  0.82360  1.0000 -0.9415307311
O   O4        1.0  0.82360  0.05880  0.05880  1.0000 -0.9415307311
O   O5        1.0  0.94120  0.17640  0.94120  1.0000 -0.9415307311
O   O6        1.0  0.94120  0.94120  0.94120  1.0000 -0.9486549166
O   O7        1.0  0.94120  0.94120  0.17640  1.0000 -0.9332554606
O   O8        1.0  0.17640  0.94120  0.94120  1.0000 -0.9415307311
O   O9        1.0  0.07690  0.26930  0.92310  1.0000 -0.6111238293
O   O10       1.0  0.92310  0.73070  0.07690  1.0000 -0.6111238293
O   O11       1.0  0.26930  0.07690  0.73070  1.0000 -0.6111238293
O   O12       1.0  0.73070  0.92310  0.26930  1.0000 -0.6111238293
O   O13       1.0  0.26930  0.92310  0.07690  1.0000 -0.6111238293
O   O14       1.0  0.73070  0.07690  0.92310  1.0000 -0.6111238293
O   O15       1.0  0.07690  0.73070  0.26930  1.0000 -0.6111238293
O   O16       1.0  0.92310  0.26930  0.73070  1.0000 -0.6111238293
O   O17       1.0  0.92310  0.07690  0.26930  1.0000 -0.6111238293
O   O18       1.0  0.07690  0.92310  0.73070  1.0000 -0.6111238293
O   O19       1.0  0.73070  0.26930  0.07690  1.0000 -0.6111238293
O   O20       1.0  0.26930  0.73070  0.92310  1.0000 -0.6111238293
O   O21       1.0  0.92310  0.26930  0.07690  1.0000 -0.6111238293
O   O22       1.0  0.07690  0.73070  0.92310  1.0000 -0.6111238293
O   O23       1.0  0.73070  0.07690  0.26930  1.0000 -0.6111238293
O   O24       1.0  0.26930  0.92310  0.73070  1.0000 -0.6111238293
O   O25       1.0  0.73070  0.26930  0.92310  1.0000 -0.6111238293
O   O26       1.0  0.26930  0.73070  0.07690  1.0000 -0.6111238293
O   O27       1.0  0.92310  0.07690  0.73070  1.0000 -0.6111238293
O   O28       1.0  0.07690  0.92310  0.26930  1.0000 -0.6111238293
O   O29       1.0  0.07690  0.26930  0.73070  1.0000 -0.6111238293
O   O30       1.0  0.92310  0.73070  0.26930  1.0000 -0.6111238293
O   O31       1.0  0.26930  0.07690  0.92310  1.0000 -0.6111238293
O   O32       1.0  0.73070  0.92310  0.07690  1.0000 -0.6111238293
