# DDEC6 charges by PACMAN v1.1 (https://github.com/mtap-research/PACMAN-charge/)
data_2018[Cu][gis]3[ASR]1
_chemical_formula_sum              "Cu4 H36 C52 N32"
_cell_length_a       16.808
_cell_length_b       16.808
_cell_length_c       10.119
_cell_angle_alpha    87.1616
_cell_angle_beta     92.8384
_cell_angle_gamma    37.963

_symmetry_space_group_name_H-M    "P 1"
_symmetry_Int_Tables_number       1

loop_
  _symmetry_equiv_pos_as_xyz
  'x, y, z'

loop_
  _atom_site_type_symbol
  _atom_site_label
  _atom_site_symmetry_multiplicity
  _atom_site_fract_x
  _atom_site_fract_y
  _atom_site_fract_z
  _atom_site_occupancy
  _atom_site_charge
Cu  Cu1       1.0  0.64853  0.10389  0.90451  1.0000 0.2568500307
Cu  Cu2       1.0  0.10389  0.64853  0.59549  1.0000 0.2568500307
Cu  Cu3       1.0  0.35147  0.89611  0.09549  1.0000 0.2568500307
Cu  Cu4       1.0  0.89611  0.35147  0.40451  1.0000 0.2568500307
H   H1        1.0  0.28521  0.59813  0.83226  1.0000 0.1379441102
H   H2        1.0  0.36295  0.03337  0.18493  1.0000 0.1222875514
H   H3        1.0  0.48382  0.66314  0.94229  1.0000 0.1013204659
H   H4        1.0  0.43009  0.22939  0.06730  1.0000 0.107876007
H   H5        1.0  0.59448  0.89268  0.20331  1.0000 0.1222875514
H   H6        1.0  0.14388  0.82548  0.83277  1.0000 0.125996266
H   H7        1.0  0.74590  0.85056  0.08563  1.0000 0.1222875514
H   H8        1.0  0.11070  0.96446  0.97019  1.0000 0.1222875514
H   H9        1.0  0.59813  0.28521  0.66774  1.0000 0.1379441102
H   H10       1.0  0.03337  0.36295  0.31507  1.0000 0.1222875514
H   H11       1.0  0.66314  0.48382  0.55771  1.0000 0.1013204659
H   H12       1.0  0.22939  0.43009  0.43270  1.0000 0.107876007
H   H13       1.0  0.89268  0.59448  0.29669  1.0000 0.1222875514
H   H14       1.0  0.82548  0.14388  0.66723  1.0000 0.125996266
H   H15       1.0  0.85056  0.74590  0.41437  1.0000 0.1222875514
H   H16       1.0  0.96446  0.11070  0.52981  1.0000 0.1222875514
H   H17       1.0  0.71479  0.40187  0.16774  1.0000 0.1379441102
H   H18       1.0  0.63705  0.96663  0.81507  1.0000 0.1222875514
H   H19       1.0  0.51618  0.33686  0.05771  1.0000 0.1013204659
H   H20       1.0  0.56991  0.77061  0.93270  1.0000 0.107876007
H   H21       1.0  0.40552  0.10732  0.79669  1.0000 0.1222875514
H   H22       1.0  0.85612  0.17452  0.16723  1.0000 0.125996266
H   H23       1.0  0.25410  0.14944  0.91437  1.0000 0.1222875514
H   H24       1.0  0.88930  0.03554  0.02981  1.0000 0.1222875514
H   H25       1.0  0.40187  0.71479  0.33226  1.0000 0.1379441102
H   H26       1.0  0.96663  0.63705  0.68493  1.0000 0.1222875514
H   H27       1.0  0.33686  0.51618  0.44229  1.0000 0.1013204659
H   H28       1.0  0.77061  0.56991  0.56730  1.0000 0.107876007
H   H29       1.0  0.10732  0.40552  0.70331  1.0000 0.1222875514
H   H30       1.0  0.17452  0.85612  0.33277  1.0000 0.125996266
H   H31       1.0  0.14944  0.25410  0.58563  1.0000 0.1222875514
H   H32       1.0  0.03554  0.88930  0.47019  1.0000 0.1222875514
H   H33       1.0  0.55142  0.55142  0.75000  1.0000 0.1379441102
H   H34       1.0  0.44858  0.44858  0.25000  1.0000 0.1379441102
H   H35       1.0  0.30663  0.30663  0.25000  1.0000 0.1379441102
H   H36       1.0  0.69337  0.69337  0.75000  1.0000 0.1379441102
C   C1        1.0  0.36266  0.54966  0.79970  1.0000 -0.2403072971
C   C2        1.0  0.31004  0.11484  0.20980  1.0000 -0.2309284839
C   C3        1.0  0.39509  0.72149  0.93210  1.0000 0.0807088767
C   C4        1.0  0.40806  0.59146  0.80010  1.0000 0.1899397692
C   C5        1.0  0.35110  0.16010  0.20680  1.0000 0.184140448
C   C6        1.0  0.49049  0.14029  0.08650  1.0000 0.0807088767
C   C7        1.0  0.57976  0.95496  0.16270  1.0000 -0.1007312929
C   C8        1.0  0.20749  0.80989  0.87040  1.0000 -0.1124098483
C   C9        1.0  0.66254  0.93294  0.09690  1.0000 -0.0411150823
C   C10       1.0  0.19046  0.88606  0.94690  1.0000 -0.0324875489
C   C11       1.0  0.54966  0.36266  0.70030  1.0000 -0.2403072971
C   C12       1.0  0.11484  0.31004  0.29020  1.0000 -0.2309284839
C   C13       1.0  0.72149  0.39509  0.56790  1.0000 0.0807088767
C   C14       1.0  0.59146  0.40806  0.69990  1.0000 0.1899397692
C   C15       1.0  0.16010  0.35110  0.29320  1.0000 0.1899397692
C   C16       1.0  0.14029  0.49049  0.41350  1.0000 0.0807088767
C   C17       1.0  0.95496  0.57976  0.33730  1.0000 -0.1007312929
C   C18       1.0  0.80989  0.20749  0.62960  1.0000 -0.1124098483
C   C19       1.0  0.93294  0.66254  0.40310  1.0000 -0.0411150823
C   C20       1.0  0.88606  0.19046  0.55310  1.0000 -0.0324875489
C   C21       1.0  0.63734  0.45034  0.20030  1.0000 -0.2403072971
C   C22       1.0  0.68996  0.88516  0.79020  1.0000 -0.2309284839
C   C23       1.0  0.60491  0.27851  0.06790  1.0000 0.0807088767
C   C24       1.0  0.59194  0.40854  0.19990  1.0000 0.1899397692
C   C25       1.0  0.64890  0.83990  0.79320  1.0000 0.1899397692
C   C26       1.0  0.50951  0.85971  0.91350  1.0000 0.0807088767
C   C27       1.0  0.42024  0.04504  0.83730  1.0000 -0.1007312929
C   C28       1.0  0.79251  0.19011  0.12960  1.0000 -0.1124098483
C   C29       1.0  0.33746  0.06706  0.90310  1.0000 -0.0411150823
C   C30       1.0  0.80954  0.11394  0.05310  1.0000 -0.0324875489
C   C31       1.0  0.45034  0.63734  0.29970  1.0000 -0.2403072971
C   C32       1.0  0.88516  0.68996  0.70980  1.0000 -0.2309284839
C   C33       1.0  0.27851  0.60491  0.43210  1.0000 0.0807088767
C   C34       1.0  0.40854  0.59194  0.30010  1.0000 0.1899397692
C   C35       1.0  0.83990  0.64890  0.70680  1.0000 0.1899397692
C   C36       1.0  0.85971  0.50951  0.58650  1.0000 0.0807088767
C   C37       1.0  0.04504  0.42024  0.66270  1.0000 -0.1007312929
C   C38       1.0  0.19011  0.79251  0.37040  1.0000 -0.1124098483
C   C39       1.0  0.06706  0.33746  0.59690  1.0000 -0.0411150823
C   C40       1.0  0.11394  0.80954  0.44690  1.0000 -0.0324875489
C   C41       1.0  0.38815  0.38815  0.75000  1.0000 0.2416827385
C   C42       1.0  0.52220  0.52220  0.75000  1.0000 -0.2851176816
C   C43       1.0  0.43428  0.43428  0.75000  1.0000 0.0686282111
C   C44       1.0  0.61185  0.61185  0.25000  1.0000 0.2416827385
C   C45       1.0  0.47780  0.47780  0.25000  1.0000 -0.2851176816
C   C46       1.0  0.56572  0.56572  0.25000  1.0000 0.0686282111
C   C47       1.0  0.14327  0.14327  0.25000  1.0000 0.2416827385
C   C48       1.0  0.27740  0.27740  0.25000  1.0000 -0.2691384661
C   C49       1.0  0.18960  0.18960  0.25000  1.0000 0.1013204659
C   C50       1.0  0.85673  0.85673  0.75000  1.0000 0.2416827385
C   C51       1.0  0.72260  0.72260  0.75000  1.0000 -0.2691384661
C   C52       1.0  0.81040  0.81040  0.75000  1.0000 0.1013204659
N   N1        1.0  0.20090  0.03770  0.19760  1.0000 -0.2511679302
N   N2        1.0  0.34000  0.70420  0.86070  1.0000 0.0049816952
N   N3        1.0  0.12798  0.03038  0.22060  1.0000 -0.1007312929
N   N4        1.0  0.46908  0.08828  0.15750  1.0000 0.0119370828
N   N5        1.0  0.30841  0.83041  0.98520  1.0000 -0.2511679302
N   N6        1.0  0.60711  0.04871  0.04870  1.0000 -0.2612911421
N   N7        1.0  0.46328  0.26608  0.79250  1.0000 -0.2403072971
N   N8        1.0  0.38382  0.26542  0.77460  1.0000 -0.1007312929
N   N9        1.0  0.03770  0.20090  0.30240  1.0000 -0.2511679302
N   N10       1.0  0.70420  0.34000  0.63930  1.0000 0.0049816952
N   N11       1.0  0.03038  0.12798  0.27940  1.0000 -0.1007312929
N   N12       1.0  0.08828  0.46908  0.34250  1.0000 0.0119370828
N   N13       1.0  0.83041  0.30841  0.51480  1.0000 -0.2511679302
N   N14       1.0  0.04871  0.60711  0.45130  1.0000 -0.2612911421
N   N15       1.0  0.26608  0.46328  0.70750  1.0000 -0.2403072971
N   N16       1.0  0.26542  0.38382  0.72540  1.0000 -0.1007312929
N   N17       1.0  0.79910  0.96230  0.80240  1.0000 -0.2511679302
N   N18       1.0  0.66000  0.29580  0.13930  1.0000 0.0049816952
N   N19       1.0  0.87202  0.96962  0.77940  1.0000 -0.1007312929
N   N20       1.0  0.53092  0.91172  0.84250  1.0000 0.0119370828
N   N21       1.0  0.69159  0.16959  0.01480  1.0000 -0.2511679302
N   N22       1.0  0.39289  0.95129  0.95130  1.0000 -0.2612911421
N   N23       1.0  0.53672  0.73392  0.20750  1.0000 -0.2403072971
N   N24       1.0  0.61618  0.73458  0.22540  1.0000 -0.1007312929
N   N25       1.0  0.96230  0.79910  0.69760  1.0000 -0.2511679302
N   N26       1.0  0.29580  0.66000  0.36070  1.0000 0.0049816952
N   N27       1.0  0.96962  0.87202  0.72060  1.0000 -0.1007312929
N   N28       1.0  0.91172  0.53092  0.65750  1.0000 0.0119370828
N   N29       1.0  0.16959  0.69159  0.48520  1.0000 -0.2511679302
N   N30       1.0  0.95129  0.39289  0.54870  1.0000 -0.2612911421
N   N31       1.0  0.73392  0.53672  0.29250  1.0000 -0.2403072971
N   N32       1.0  0.73458  0.61618  0.27460  1.0000 -0.1007312929
