# DDEC6 charges by PACMAN v1.1 (https://github.com/mtap-research/PACMAN-charge/)
data_2018[Gd][flu]3[ASR]1
_chemical_formula_sum              "Gd2 H16 C26 N4 O14"
_cell_length_a       9.0913
_cell_length_b       9.663
_cell_length_c       11.6631
_cell_angle_alpha    108.511
_cell_angle_beta     93.793
_cell_angle_gamma    108.35

_symmetry_space_group_name_H-M    "P 1"
_symmetry_Int_Tables_number       1

loop_
  _symmetry_equiv_pos_as_xyz
  'x, y, z'

loop_
  _atom_site_type_symbol
  _atom_site_label
  _atom_site_symmetry_multiplicity
  _atom_site_fract_x
  _atom_site_fract_y
  _atom_site_fract_z
  _atom_site_occupancy
  _atom_site_charge
Gd  Gd1       1.0  0.77887  0.52962  0.99249  1.0000 2.0514399159
Gd  Gd2       1.0  0.22113  0.47038  0.00751  1.0000 2.0514399159
H   H1        1.0  0.01890  0.69140  0.21730  1.0000 0.3925276446
H   H2        1.0  0.66260  0.03290  0.36580  1.0000 0.1308966439
H   H3        1.0  0.76210  0.17210  0.57630  1.0000 0.1308966439
H   H4        1.0  0.38350  0.95700  0.19370  1.0000 0.1501844424
H   H5        1.0  0.39750  0.11970  0.17860  1.0000 0.1501844424
H   H6        1.0  0.86010  0.95300  0.04000  1.0000 0.1803408201
H   H7        1.0  0.46110  0.40590  0.58340  1.0000 0.1308966439
H   H8        1.0  0.38360  0.28520  0.36970  1.0000 0.1308966439
H   H9        1.0  0.98110  0.30860  0.78270  1.0000 0.3925276446
H   H10       1.0  0.33740  0.96710  0.63420  1.0000 0.1308966439
H   H11       1.0  0.23790  0.82790  0.42370  1.0000 0.1308966439
H   H12       1.0  0.61650  0.04300  0.80630  1.0000 0.1501844424
H   H13       1.0  0.60250  0.88030  0.82140  1.0000 0.1501844424
H   H14       1.0  0.13990  0.04700  0.96000  1.0000 0.1803408201
H   H15       1.0  0.53890  0.59410  0.41660  1.0000 0.1308966439
H   H16       1.0  0.61640  0.71480  0.63030  1.0000 0.1308966439
C   C1        1.0  0.51510  0.14830  0.34730  1.0000 0.1184913266
C   C2        1.0  0.62570  0.11270  0.40930  1.0000 -0.1417266828
C   C3        1.0  0.68300  0.19330  0.53490  1.0000 -0.0883845975
C   C4        1.0  0.45650  0.06460  0.20990  1.0000 -0.184564243
C   C5        1.0  0.80950  0.15960  0.09620  1.0000 0.0646315749
C   C6        1.0  0.78960  0.00430  0.07080  1.0000 -0.2068152082
C   C7        1.0  0.64490  0.93980  0.10010  1.0000 0.0058410675
C   C8        1.0  0.55580  0.77080  0.07430  1.0000 0.6298573958
C   C9        1.0  0.62300  0.30520  0.59880  1.0000 -0.0072385654
C   C10       1.0  0.94310  0.27760  0.07460  1.0000 0.6113759625
C   C11       1.0  0.50710  0.33460  0.53870  1.0000 -0.0883845975
C   C12       1.0  0.68700  0.39690  0.73540  1.0000 0.5659184801
C   C13       1.0  0.45790  0.25930  0.41200  1.0000 -0.1417266828
C   C14       1.0  0.48490  0.85170  0.65270  1.0000 0.1184913266
C   C15       1.0  0.37430  0.88730  0.59070  1.0000 -0.1417266828
C   C16       1.0  0.31700  0.80670  0.46510  1.0000 -0.0883845975
C   C17       1.0  0.54350  0.93540  0.79010  1.0000 -0.1861398769
C   C18       1.0  0.19050  0.84040  0.90380  1.0000 0.0646315749
C   C19       1.0  0.21040  0.99570  0.92920  1.0000 -0.2068152082
C   C20       1.0  0.35510  0.06020  0.89990  1.0000 0.0058410675
C   C21       1.0  0.44420  0.22920  0.92570  1.0000 0.6298573958
C   C22       1.0  0.37700  0.69480  0.40120  1.0000 -0.0072385654
C   C23       1.0  0.05690  0.72240  0.92540  1.0000 0.6113759625
C   C24       1.0  0.49290  0.66540  0.46130  1.0000 -0.0883845975
C   C25       1.0  0.31300  0.60310  0.26460  1.0000 0.5659184801
C   C26       1.0  0.54210  0.74070  0.58800  1.0000 -0.1417266828
N   N1        1.0  0.58900  0.05890  0.14510  1.0000 0.1803408201
N   N2        1.0  0.69030  0.19400  0.14600  1.0000 -0.2426093248
N   N3        1.0  0.41100  0.94110  0.85490  1.0000 0.1803408201
N   N4        1.0  0.30970  0.80600  0.85400  1.0000 -0.2426093248
O   O1        1.0  0.61830  0.48390  0.79470  1.0000 -0.5983789218
O   O2        1.0  0.80170  0.37870  0.78540  1.0000 -0.5557312024
O   O3        1.0  0.41270  0.72750  0.07790  1.0000 -0.626187588
O   O4        1.0  0.92210  0.39140  0.05140  1.0000 -0.677273984
O   O5        1.0  0.63390  0.68320  0.04710  1.0000 -0.6391409886
O   O6        1.0  0.07490  0.26060  0.07520  1.0000 -0.5678423894
O   O7        1.0  0.96350  0.73230  0.17660  1.0000 -0.8586907936
O   O8        1.0  0.38170  0.51610  0.20530  1.0000 -0.5983789218
O   O9        1.0  0.19830  0.62130  0.21460  1.0000 -0.5542049658
O   O10       1.0  0.58730  0.27250  0.92210  1.0000 -0.626187588
O   O11       1.0  0.07790  0.60860  0.94860  1.0000 -0.677273984
O   O12       1.0  0.36610  0.31680  0.95290  1.0000 -0.6391409886
O   O13       1.0  0.92510  0.73940  0.92480  1.0000 -0.5678423894
O   O14       1.0  0.03650  0.26770  0.82340  1.0000 -0.8586907936
