# DDEC6 charges by PACMAN v1.1 (https://github.com/mtap-research/PACMAN-charge/)
data_2018[Fe][nuc]3[ASR]2
_chemical_formula_sum              "Fe12 H56 C120 O52"
_cell_length_a       11.0372
_cell_length_b       11.0372
_cell_length_c       47.106
_cell_angle_alpha    90
_cell_angle_beta     90
_cell_angle_gamma    90

_symmetry_space_group_name_H-M    "P 1"
_symmetry_Int_Tables_number       1

loop_
  _symmetry_equiv_pos_as_xyz
  'x, y, z'

loop_
  _atom_site_type_symbol
  _atom_site_label
  _atom_site_symmetry_multiplicity
  _atom_site_fract_x
  _atom_site_fract_y
  _atom_site_fract_z
  _atom_site_occupancy
  _atom_site_charge
Fe  Fe1       1.0  0.03881  0.16699  0.52752  1.0000 1.2091973325
Fe  Fe2       1.0  0.96119  0.83301  0.02752  1.0000 1.2091973325
Fe  Fe3       1.0  0.33301  0.53881  0.77752  1.0000 1.2091973325
Fe  Fe4       1.0  0.66699  0.46119  0.27752  1.0000 1.2091973325
Fe  Fe5       1.0  0.46119  0.66699  0.72248  1.0000 1.2091973325
Fe  Fe6       1.0  0.53881  0.33301  0.22248  1.0000 1.2091973325
Fe  Fe7       1.0  0.16699  0.03881  0.47248  1.0000 1.2091973325
Fe  Fe8       1.0  0.83301  0.96119  0.97248  1.0000 1.2091973325
Fe  Fe9       1.0  0.91697  0.91697  0.50000  1.0000 1.1727345487
Fe  Fe10      1.0  0.08303  0.08303  0.00000  1.0000 1.1727345487
Fe  Fe11      1.0  0.58303  0.41697  0.75000  1.0000 1.1727345487
Fe  Fe12      1.0  0.41697  0.58303  0.25000  1.0000 1.1727345487
H   H1        1.0  0.53750  0.07400  0.50520  1.0000 0.1371675631
H   H2        1.0  0.72670  0.24370  0.56710  1.0000 0.1303877154
H   H3        1.0  0.36170  0.23160  0.57060  1.0000 0.1303877154
H   H4        1.0  0.68060  0.30030  0.66330  1.0000 0.1303877154
H   H5        1.0  0.39820  0.41100  0.59590  1.0000 0.118510527
H   H6        1.0  0.69420  0.22270  0.61800  1.0000 0.118510527
H   H7        1.0  0.39990  0.50720  0.64060  1.0000 0.1303877154
H   H8        1.0  0.46250  0.92600  0.00520  1.0000 0.1371675631
H   H9        1.0  0.27330  0.75630  0.06710  1.0000 0.1303877154
H   H10       1.0  0.63830  0.76840  0.07060  1.0000 0.1303877154
H   H11       1.0  0.31940  0.69970  0.16330  1.0000 0.1303877154
H   H12       1.0  0.60180  0.58900  0.09590  1.0000 0.118510527
H   H13       1.0  0.30580  0.77730  0.11800  1.0000 0.118510527
H   H14       1.0  0.60010  0.49280  0.14060  1.0000 0.1303877154
H   H15       1.0  0.42600  0.03750  0.75520  1.0000 0.1371675631
H   H16       1.0  0.25630  0.22670  0.81710  1.0000 0.1303877154
H   H17       1.0  0.26840  0.86170  0.82060  1.0000 0.1303877154
H   H18       1.0  0.19970  0.18060  0.91330  1.0000 0.1303877154
H   H19       1.0  0.08900  0.89820  0.84590  1.0000 0.118510527
H   H20       1.0  0.27730  0.19420  0.86800  1.0000 0.118510527
H   H21       1.0  0.99280  0.89990  0.89060  1.0000 0.1303877154
H   H22       1.0  0.57400  0.96250  0.25520  1.0000 0.1371675631
H   H23       1.0  0.74370  0.77330  0.31710  1.0000 0.1303877154
H   H24       1.0  0.73160  0.13830  0.32060  1.0000 0.1303877154
H   H25       1.0  0.80030  0.81940  0.41330  1.0000 0.1303877154
H   H26       1.0  0.91100  0.10180  0.34590  1.0000 0.118510527
H   H27       1.0  0.72270  0.80580  0.36800  1.0000 0.118510527
H   H28       1.0  0.00720  0.10010  0.39060  1.0000 0.1303877154
H   H29       1.0  0.96250  0.57400  0.74480  1.0000 0.1371675631
H   H30       1.0  0.77330  0.74370  0.68290  1.0000 0.1303877154
H   H31       1.0  0.13830  0.73160  0.67940  1.0000 0.1303877154
H   H32       1.0  0.81940  0.80030  0.58670  1.0000 0.1303877154
H   H33       1.0  0.10180  0.91100  0.65410  1.0000 0.118510527
H   H34       1.0  0.80580  0.72270  0.63200  1.0000 0.118510527
H   H35       1.0  0.10010  0.00720  0.60940  1.0000 0.1303877154
H   H36       1.0  0.03750  0.42600  0.24480  1.0000 0.1371675631
H   H37       1.0  0.22670  0.25630  0.18290  1.0000 0.1303877154
H   H38       1.0  0.86170  0.26840  0.17940  1.0000 0.1303877154
H   H39       1.0  0.18060  0.19970  0.08670  1.0000 0.1303877154
H   H40       1.0  0.89820  0.08900  0.15410  1.0000 0.118510527
H   H41       1.0  0.19420  0.27730  0.13200  1.0000 0.118510527
H   H42       1.0  0.89990  0.99280  0.10940  1.0000 0.1303877154
H   H43       1.0  0.07400  0.53750  0.49480  1.0000 0.1371675631
H   H44       1.0  0.24370  0.72670  0.43290  1.0000 0.1303877154
H   H45       1.0  0.23160  0.36170  0.42940  1.0000 0.1303877154
H   H46       1.0  0.30030  0.68060  0.33670  1.0000 0.1303877154
H   H47       1.0  0.41100  0.39820  0.40410  1.0000 0.118510527
H   H48       1.0  0.22270  0.69420  0.38200  1.0000 0.118510527
H   H49       1.0  0.50720  0.39990  0.35940  1.0000 0.1303877154
H   H50       1.0  0.92600  0.46250  0.99480  1.0000 0.1371675631
H   H51       1.0  0.75630  0.27330  0.93290  1.0000 0.1303877154
H   H52       1.0  0.76840  0.63830  0.92940  1.0000 0.1303877154
H   H53       1.0  0.69970  0.31940  0.83670  1.0000 0.1303877154
H   H54       1.0  0.58900  0.60180  0.90410  1.0000 0.118510527
H   H55       1.0  0.77730  0.30580  0.88200  1.0000 0.118510527
H   H56       1.0  0.49280  0.60010  0.85940  1.0000 0.1303877154
C   C1        1.0  0.76890  0.12430  0.52042  1.0000 0.6022120541
C   C2        1.0  0.64850  0.15670  0.53387  1.0000 -0.010999308
C   C3        1.0  0.53880  0.12090  0.52156  1.0000 -0.1124464261
C   C4        1.0  0.30990  0.12680  0.52178  1.0000 0.6022120541
C   C5        1.0  0.43190  0.15740  0.53454  1.0000 -0.010999308
C   C6        1.0  0.53170  0.45970  0.68656  1.0000 0.6022120541
C   C7        1.0  0.65290  0.21860  0.55955  1.0000 -0.1508094221
C   C8        1.0  0.53640  0.40860  0.65659  1.0000 -0.0247696444
C   C9        1.0  0.54190  0.24300  0.57421  1.0000 0.0634860912
C   C10       1.0  0.43420  0.21390  0.56140  1.0000 -0.1508094221
C   C11       1.0  0.54140  0.30330  0.60257  1.0000 0.078059805
C   C12       1.0  0.62470  0.32400  0.64963  1.0000 -0.0832310492
C   C13       1.0  0.45610  0.38930  0.60927  1.0000 -0.1434006567
C   C14       1.0  0.63100  0.27460  0.62275  1.0000 -0.1508094221
C   C15       1.0  0.45510  0.44590  0.63653  1.0000 -0.0904065712
C   C16       1.0  0.23110  0.87570  0.02042  1.0000 0.6022120541
C   C17       1.0  0.35150  0.84330  0.03387  1.0000 -0.010999308
C   C18       1.0  0.46120  0.87910  0.02156  1.0000 -0.1124464261
C   C19       1.0  0.69010  0.87320  0.02178  1.0000 0.6022120541
C   C20       1.0  0.56810  0.84260  0.03454  1.0000 -0.010999308
C   C21       1.0  0.46830  0.54030  0.18656  1.0000 0.6022120541
C   C22       1.0  0.34710  0.78140  0.05955  1.0000 -0.1508094221
C   C23       1.0  0.46360  0.59140  0.15659  1.0000 -0.0247696444
C   C24       1.0  0.45810  0.75700  0.07421  1.0000 0.0634860912
C   C25       1.0  0.56580  0.78610  0.06140  1.0000 -0.1508094221
C   C26       1.0  0.45860  0.69670  0.10257  1.0000 0.078059805
C   C27       1.0  0.37530  0.67600  0.14963  1.0000 -0.0832310492
C   C28       1.0  0.54390  0.61070  0.10927  1.0000 -0.1434006567
C   C29       1.0  0.36900  0.72540  0.12275  1.0000 -0.1508094221
C   C30       1.0  0.54490  0.55410  0.13653  1.0000 -0.0904065712
C   C31       1.0  0.37570  0.26890  0.77042  1.0000 0.6022120541
C   C32       1.0  0.34330  0.14850  0.78387  1.0000 -0.010999308
C   C33       1.0  0.37910  0.03880  0.77156  1.0000 -0.1124464261
C   C34       1.0  0.37320  0.80990  0.77178  1.0000 0.6022120541
C   C35       1.0  0.34260  0.93190  0.78454  1.0000 -0.010999308
C   C36       1.0  0.04030  0.03170  0.93656  1.0000 0.6022120541
C   C37       1.0  0.28140  0.15290  0.80955  1.0000 -0.1508094221
C   C38       1.0  0.09140  0.03640  0.90659  1.0000 -0.0247696444
C   C39       1.0  0.25700  0.04190  0.82421  1.0000 0.0634860912
C   C40       1.0  0.28610  0.93420  0.81140  1.0000 -0.1508094221
C   C41       1.0  0.19670  0.04140  0.85257  1.0000 0.078059805
C   C42       1.0  0.17600  0.12470  0.89963  1.0000 -0.0832310492
C   C43       1.0  0.11070  0.95610  0.85927  1.0000 -0.1434006567
C   C44       1.0  0.22540  0.13100  0.87275  1.0000 -0.1508094221
C   C45       1.0  0.05410  0.95510  0.88653  1.0000 -0.0904065712
C   C46       1.0  0.62430  0.73110  0.27042  1.0000 0.6022120541
C   C47       1.0  0.65670  0.85150  0.28387  1.0000 -0.010999308
C   C48       1.0  0.62090  0.96120  0.27156  1.0000 -0.1124464261
C   C49       1.0  0.62680  0.19010  0.27178  1.0000 0.6022120541
C   C50       1.0  0.65740  0.06810  0.28454  1.0000 -0.010999308
C   C51       1.0  0.95970  0.96830  0.43656  1.0000 0.6022120541
C   C52       1.0  0.71860  0.84710  0.30955  1.0000 -0.1508094221
C   C53       1.0  0.90860  0.96360  0.40659  1.0000 -0.0247696444
C   C54       1.0  0.74300  0.95810  0.32421  1.0000 0.0634860912
C   C55       1.0  0.71390  0.06580  0.31140  1.0000 -0.1508094221
C   C56       1.0  0.80330  0.95860  0.35257  1.0000 0.078059805
C   C57       1.0  0.82400  0.87530  0.39963  1.0000 -0.0832310492
C   C58       1.0  0.88930  0.04390  0.35927  1.0000 -0.1434006567
C   C59       1.0  0.77460  0.86900  0.37275  1.0000 -0.1508094221
C   C60       1.0  0.94590  0.04490  0.38653  1.0000 -0.0904065712
C   C61       1.0  0.73110  0.62430  0.72958  1.0000 0.6022120541
C   C62       1.0  0.85150  0.65670  0.71613  1.0000 -0.010999308
C   C63       1.0  0.96120  0.62090  0.72844  1.0000 -0.1124464261
C   C64       1.0  0.19010  0.62680  0.72822  1.0000 0.6022120541
C   C65       1.0  0.06810  0.65740  0.71546  1.0000 -0.010999308
C   C66       1.0  0.96830  0.95970  0.56344  1.0000 0.6022120541
C   C67       1.0  0.84710  0.71860  0.69045  1.0000 -0.1508094221
C   C68       1.0  0.96360  0.90860  0.59341  1.0000 -0.0247696444
C   C69       1.0  0.95810  0.74300  0.67579  1.0000 0.0634860912
C   C70       1.0  0.06580  0.71390  0.68860  1.0000 -0.1508094221
C   C71       1.0  0.95860  0.80330  0.64743  1.0000 0.078059805
C   C72       1.0  0.87530  0.82400  0.60037  1.0000 -0.0832310492
C   C73       1.0  0.04390  0.88930  0.64073  1.0000 -0.1434006567
C   C74       1.0  0.86900  0.77460  0.62725  1.0000 -0.1508094221
C   C75       1.0  0.04490  0.94590  0.61347  1.0000 -0.0904065712
C   C76       1.0  0.26890  0.37570  0.22958  1.0000 0.6022120541
C   C77       1.0  0.14850  0.34330  0.21613  1.0000 -0.010999308
C   C78       1.0  0.03880  0.37910  0.22844  1.0000 -0.1124464261
C   C79       1.0  0.80990  0.37320  0.22822  1.0000 0.6022120541
C   C80       1.0  0.93190  0.34260  0.21546  1.0000 -0.010999308
C   C81       1.0  0.03170  0.04030  0.06344  1.0000 0.6022120541
C   C82       1.0  0.15290  0.28140  0.19045  1.0000 -0.1508094221
C   C83       1.0  0.03640  0.09140  0.09341  1.0000 -0.0247696444
C   C84       1.0  0.04190  0.25700  0.17579  1.0000 0.0634860912
C   C85       1.0  0.93420  0.28610  0.18860  1.0000 -0.1508094221
C   C86       1.0  0.04140  0.19670  0.14743  1.0000 0.078059805
C   C87       1.0  0.12470  0.17600  0.10037  1.0000 -0.0832310492
C   C88       1.0  0.95610  0.11070  0.14073  1.0000 -0.1434006567
C   C89       1.0  0.13100  0.22540  0.12725  1.0000 -0.1508094221
C   C90       1.0  0.95510  0.05410  0.11347  1.0000 -0.0904065712
C   C91       1.0  0.12430  0.76890  0.47958  1.0000 0.6022120541
C   C92       1.0  0.15670  0.64850  0.46613  1.0000 -0.010999308
C   C93       1.0  0.12090  0.53880  0.47844  1.0000 -0.1124464261
C   C94       1.0  0.12680  0.30990  0.47822  1.0000 0.6022120541
C   C95       1.0  0.15740  0.43190  0.46546  1.0000 -0.010999308
C   C96       1.0  0.45970  0.53170  0.31344  1.0000 0.6022120541
C   C97       1.0  0.21860  0.65290  0.44045  1.0000 -0.1508094221
C   C98       1.0  0.40860  0.53640  0.34341  1.0000 -0.0247696444
C   C99       1.0  0.24300  0.54190  0.42579  1.0000 0.0634860912
C   C100      1.0  0.21390  0.43420  0.43860  1.0000 -0.1508094221
C   C101      1.0  0.30330  0.54140  0.39743  1.0000 0.078059805
C   C102      1.0  0.32400  0.62470  0.35037  1.0000 -0.0832310492
C   C103      1.0  0.38930  0.45610  0.39073  1.0000 -0.1434006567
C   C104      1.0  0.27460  0.63100  0.37725  1.0000 -0.1508094221
C   C105      1.0  0.44590  0.45510  0.36347  1.0000 -0.0904065712
C   C106      1.0  0.87570  0.23110  0.97958  1.0000 0.6022120541
C   C107      1.0  0.84330  0.35150  0.96613  1.0000 -0.010999308
C   C108      1.0  0.87910  0.46120  0.97844  1.0000 -0.1124464261
C   C109      1.0  0.87320  0.69010  0.97822  1.0000 0.6022120541
C   C110      1.0  0.84260  0.56810  0.96546  1.0000 -0.010999308
C   C111      1.0  0.54030  0.46830  0.81344  1.0000 0.6022120541
C   C112      1.0  0.78140  0.34710  0.94045  1.0000 -0.1508094221
C   C113      1.0  0.59140  0.46360  0.84341  1.0000 -0.0247696444
C   C114      1.0  0.75700  0.45810  0.92579  1.0000 0.0634860912
C   C115      1.0  0.78610  0.56580  0.93860  1.0000 -0.1508094221
C   C116      1.0  0.69670  0.45860  0.89743  1.0000 0.078059805
C   C117      1.0  0.67600  0.37530  0.85037  1.0000 -0.0832310492
C   C118      1.0  0.61070  0.54390  0.89073  1.0000 -0.1434006567
C   C119      1.0  0.72540  0.36900  0.87725  1.0000 -0.1508094221
C   C120      1.0  0.55410  0.54490  0.86347  1.0000 -0.0904065712
O   O1        1.0  0.30850  0.05670  0.50032  1.0000 -0.5384551565
O   O2        1.0  0.77190  0.03910  0.50331  1.0000 -0.5384551565
O   O3        1.0  0.85750  0.18620  0.52857  1.0000 -0.5541554192
O   O4        1.0  0.58480  0.40410  0.70575  1.0000 -0.5384551565
O   O5        1.0  0.22060  0.17470  0.53295  1.0000 -0.5384551565
O   O6        1.0  0.46880  0.55330  0.68911  1.0000 -0.5384551565
O   O7        1.0  0.69150  0.94330  0.00032  1.0000 -0.5384551565
O   O8        1.0  0.22810  0.96090  0.00331  1.0000 -0.5384551565
O   O9        1.0  0.14250  0.81380  0.02857  1.0000 -0.5541554192
O   O10       1.0  0.41520  0.59590  0.20575  1.0000 -0.5384551565
O   O11       1.0  0.77940  0.82530  0.03295  1.0000 -0.5384551565
O   O12       1.0  0.53120  0.44670  0.18911  1.0000 -0.5384551565
O   O13       1.0  0.44330  0.80850  0.75032  1.0000 -0.5384551565
O   O14       1.0  0.46090  0.27190  0.75331  1.0000 -0.5384551565
O   O15       1.0  0.31380  0.35750  0.77857  1.0000 -0.5541554192
O   O16       1.0  0.09590  0.08480  0.95575  1.0000 -0.5384551565
O   O17       1.0  0.32530  0.72060  0.78295  1.0000 -0.5384551565
O   O18       1.0  0.94670  0.96880  0.93911  1.0000 -0.5384551565
O   O19       1.0  0.55670  0.19150  0.25032  1.0000 -0.5384551565
O   O20       1.0  0.53910  0.72810  0.25331  1.0000 -0.5384551565
O   O21       1.0  0.68620  0.64250  0.27857  1.0000 -0.5541554192
O   O22       1.0  0.90410  0.91520  0.45575  1.0000 -0.5384551565
O   O23       1.0  0.67470  0.27940  0.28295  1.0000 -0.5384551565
O   O24       1.0  0.05330  0.03120  0.43911  1.0000 -0.5384551565
O   O25       1.0  0.19150  0.55670  0.74968  1.0000 -0.5384551565
O   O26       1.0  0.72810  0.53910  0.74669  1.0000 -0.5384551565
O   O27       1.0  0.64250  0.68620  0.72143  1.0000 -0.5541554192
O   O28       1.0  0.91520  0.90410  0.54425  1.0000 -0.5384551565
O   O29       1.0  0.27940  0.67470  0.71705  1.0000 -0.5384551565
O   O30       1.0  0.03120  0.05330  0.56089  1.0000 -0.5384551565
O   O31       1.0  0.80850  0.44330  0.24968  1.0000 -0.5384551565
O   O32       1.0  0.27190  0.46090  0.24669  1.0000 -0.5384551565
O   O33       1.0  0.35750  0.31380  0.22143  1.0000 -0.5541554192
O   O34       1.0  0.08480  0.09590  0.04425  1.0000 -0.5384551565
O   O35       1.0  0.72060  0.32530  0.21705  1.0000 -0.5384551565
O   O36       1.0  0.96880  0.94670  0.06089  1.0000 -0.5384551565
O   O37       1.0  0.05670  0.30850  0.49968  1.0000 -0.5384551565
O   O38       1.0  0.03910  0.77190  0.49669  1.0000 -0.5384551565
O   O39       1.0  0.18620  0.85750  0.47143  1.0000 -0.5541554192
O   O40       1.0  0.40410  0.58480  0.29425  1.0000 -0.5384551565
O   O41       1.0  0.17470  0.22060  0.46705  1.0000 -0.5384551565
O   O42       1.0  0.55330  0.46880  0.31089  1.0000 -0.5384551565
O   O43       1.0  0.94330  0.69150  0.99968  1.0000 -0.5384551565
O   O44       1.0  0.96090  0.22810  0.99669  1.0000 -0.5384551565
O   O45       1.0  0.81380  0.14250  0.97143  1.0000 -0.5541554192
O   O46       1.0  0.59590  0.41520  0.79425  1.0000 -0.5384551565
O   O47       1.0  0.82530  0.77940  0.96705  1.0000 -0.5384551565
O   O48       1.0  0.44670  0.53120  0.81089  1.0000 -0.5384551565
O   O49       1.0  0.04160  0.04160  0.50000  1.0000 -0.9287474254
O   O50       1.0  0.95840  0.95840  0.00000  1.0000 -0.9287474254
O   O51       1.0  0.45840  0.54160  0.75000  1.0000 -0.9287474254
O   O52       1.0  0.54160  0.45840  0.25000  1.0000 -0.9287474254
