# DDEC6 charges by PACMAN v1.1 (https://github.com/mtap-research/PACMAN-charge/)
data_2018[Dy][nan]3[ASR]2
_chemical_formula_sum              "Dy6 H96 C168 O60"
_cell_length_a       15.2686
_cell_length_b       15.2686
_cell_length_c       26.2294
_cell_angle_alpha    90
_cell_angle_beta     90
_cell_angle_gamma    120

_symmetry_space_group_name_H-M    "P 1"
_symmetry_Int_Tables_number       1

loop_
  _symmetry_equiv_pos_as_xyz
  'x, y, z'

loop_
  _atom_site_type_symbol
  _atom_site_label
  _atom_site_symmetry_multiplicity
  _atom_site_fract_x
  _atom_site_fract_y
  _atom_site_fract_z
  _atom_site_occupancy
  _atom_site_charge
Dy  Dy1       1.0  0.50000  0.00000  0.57897  1.0000 2.0678248039
Dy  Dy2       1.0  0.50000  0.50000  0.91231  1.0000 2.0678248039
Dy  Dy3       1.0  0.00000  0.50000  0.24564  1.0000 2.0678248039
Dy  Dy4       1.0  0.50000  0.00000  0.42103  1.0000 2.0678248039
Dy  Dy5       1.0  0.00000  0.50000  0.08769  1.0000 2.0678248039
Dy  Dy6       1.0  0.50000  0.50000  0.75436  1.0000 2.0678248039
H   H1        1.0  0.04295  0.65382  0.59259  1.0000 0.1382438255
H   H2        1.0  0.64280  0.37599  0.61917  1.0000 0.1328240561
H   H3        1.0  0.20749  0.77939  0.57806  1.0000 0.1328240561
H   H4        1.0  0.99938  0.61336  0.44175  1.0000 0.1462916366
H   H5        1.0  0.16607  0.73324  0.42883  1.0000 0.1382438255
H   H6        1.0  0.79346  0.67514  0.63716  1.0000 0.1328240561
H   H7        1.0  0.90758  0.69064  0.57509  1.0000 0.1328240561
H   H8        1.0  0.75370  0.39082  0.55507  1.0000 0.1462916366
H   H9        1.0  0.61087  0.95705  0.92593  1.0000 0.1382438255
H   H10       1.0  0.73319  0.35720  0.95251  1.0000 0.1328240561
H   H11       1.0  0.57190  0.79251  0.91140  1.0000 0.1328240561
H   H12       1.0  0.61398  0.00062  0.77509  1.0000 0.1462916366
H   H13       1.0  0.56717  0.83393  0.76217  1.0000 0.1382438255
H   H14       1.0  0.88168  0.20654  0.97050  1.0000 0.1328240561
H   H15       1.0  0.78306  0.09242  0.90843  1.0000 0.1328240561
H   H16       1.0  0.63712  0.24630  0.88841  1.0000 0.1462916366
H   H17       1.0  0.34618  0.38913  0.25926  1.0000 0.1382438255
H   H18       1.0  0.62401  0.26681  0.28584  1.0000 0.1382438255
H   H19       1.0  0.22061  0.42810  0.24473  1.0000 0.1328240561
H   H20       1.0  0.38664  0.38602  0.10842  1.0000 0.1462916366
H   H21       1.0  0.26676  0.43283  0.09550  1.0000 0.1382438255
H   H22       1.0  0.32486  0.11832  0.30383  1.0000 0.1328240561
H   H23       1.0  0.30936  0.21694  0.24176  1.0000 0.1328240561
H   H24       1.0  0.60918  0.36288  0.22174  1.0000 0.1462916366
H   H25       1.0  0.95705  0.34618  0.59259  1.0000 0.1328240561
H   H26       1.0  0.35720  0.62401  0.61917  1.0000 0.1328240561
H   H27       1.0  0.79251  0.22061  0.57806  1.0000 0.1328240561
H   H28       1.0  0.00062  0.38664  0.44175  1.0000 0.1462916366
H   H29       1.0  0.83393  0.26676  0.42883  1.0000 0.1382438255
H   H30       1.0  0.20654  0.32486  0.63716  1.0000 0.1328240561
H   H31       1.0  0.09242  0.30936  0.57509  1.0000 0.1328240561
H   H32       1.0  0.24630  0.60918  0.55507  1.0000 0.1462916366
H   H33       1.0  0.38913  0.04295  0.92593  1.0000 0.1328240561
H   H34       1.0  0.26681  0.64280  0.95251  1.0000 0.1328240561
H   H35       1.0  0.42810  0.20749  0.91140  1.0000 0.1328240561
H   H36       1.0  0.38602  0.99938  0.77509  1.0000 0.1462916366
H   H37       1.0  0.43283  0.16607  0.76217  1.0000 0.1382438255
H   H38       1.0  0.11832  0.79346  0.97050  1.0000 0.1328240561
H   H39       1.0  0.21694  0.90758  0.90843  1.0000 0.1328240561
H   H40       1.0  0.36288  0.75370  0.88841  1.0000 0.1462916366
H   H41       1.0  0.65382  0.61087  0.25926  1.0000 0.1382438255
H   H42       1.0  0.37599  0.73319  0.28584  1.0000 0.1382438255
H   H43       1.0  0.77939  0.57190  0.24473  1.0000 0.1328240561
H   H44       1.0  0.61336  0.61398  0.10842  1.0000 0.1462916366
H   H45       1.0  0.73324  0.56717  0.09550  1.0000 0.1382438255
H   H46       1.0  0.67514  0.88168  0.30383  1.0000 0.1328240561
H   H47       1.0  0.69064  0.78306  0.24176  1.0000 0.1328240561
H   H48       1.0  0.39082  0.63712  0.22174  1.0000 0.1462916366
H   H49       1.0  0.38913  0.34618  0.40741  1.0000 0.1328240561
H   H50       1.0  0.26681  0.62401  0.38083  1.0000 0.1328240561
H   H51       1.0  0.42810  0.22061  0.42194  1.0000 0.1328240561
H   H52       1.0  0.38602  0.38664  0.55825  1.0000 0.1462916366
H   H53       1.0  0.43283  0.26676  0.57117  1.0000 0.1382438255
H   H54       1.0  0.11832  0.32486  0.36284  1.0000 0.1328240561
H   H55       1.0  0.21694  0.30936  0.42491  1.0000 0.1328240561
H   H56       1.0  0.36288  0.60918  0.44493  1.0000 0.1462916366
H   H57       1.0  0.65382  0.04295  0.07407  1.0000 0.1328240561
H   H58       1.0  0.37599  0.64280  0.04749  1.0000 0.1382438255
H   H59       1.0  0.77939  0.20749  0.08860  1.0000 0.1328240561
H   H60       1.0  0.61336  0.99938  0.22491  1.0000 0.1462916366
H   H61       1.0  0.73324  0.16607  0.23783  1.0000 0.1382438255
H   H62       1.0  0.67514  0.79346  0.02950  1.0000 0.1328240561
H   H63       1.0  0.69064  0.90758  0.09157  1.0000 0.1328240561
H   H64       1.0  0.39082  0.75370  0.11159  1.0000 0.1462916366
H   H65       1.0  0.95705  0.61087  0.74074  1.0000 0.1328240561
H   H66       1.0  0.35720  0.73319  0.71416  1.0000 0.1328240561
H   H67       1.0  0.79251  0.57190  0.75527  1.0000 0.1328240561
H   H68       1.0  0.00062  0.61398  0.89158  1.0000 0.1462916366
H   H69       1.0  0.83393  0.56717  0.90450  1.0000 0.1382438255
H   H70       1.0  0.20654  0.88168  0.69617  1.0000 0.1328240561
H   H71       1.0  0.09242  0.78306  0.75824  1.0000 0.1328240561
H   H72       1.0  0.24630  0.63712  0.77826  1.0000 0.1462916366
H   H73       1.0  0.61087  0.65382  0.40741  1.0000 0.1328240561
H   H74       1.0  0.73319  0.37599  0.38083  1.0000 0.1328240561
H   H75       1.0  0.57190  0.77939  0.42194  1.0000 0.1328240561
H   H76       1.0  0.61398  0.61336  0.55825  1.0000 0.1462916366
H   H77       1.0  0.56717  0.73324  0.57117  1.0000 0.1382438255
H   H78       1.0  0.88168  0.67514  0.36284  1.0000 0.1328240561
H   H79       1.0  0.78306  0.69064  0.42491  1.0000 0.1328240561
H   H80       1.0  0.63712  0.39082  0.44493  1.0000 0.1462916366
H   H81       1.0  0.34618  0.95705  0.07407  1.0000 0.1382438255
H   H82       1.0  0.62401  0.35720  0.04749  1.0000 0.1382438255
H   H83       1.0  0.22061  0.79251  0.08860  1.0000 0.1328240561
H   H84       1.0  0.38664  0.00062  0.22491  1.0000 0.1462916366
H   H85       1.0  0.26676  0.83393  0.23783  1.0000 0.1382438255
H   H86       1.0  0.32486  0.20654  0.02950  1.0000 0.1328240561
H   H87       1.0  0.30936  0.09242  0.09157  1.0000 0.1328240561
H   H88       1.0  0.60918  0.24630  0.11159  1.0000 0.1462916366
H   H89       1.0  0.04295  0.38913  0.74074  1.0000 0.1382438255
H   H90       1.0  0.64280  0.26681  0.71416  1.0000 0.1328240561
H   H91       1.0  0.20749  0.42810  0.75527  1.0000 0.1328240561
H   H92       1.0  0.99938  0.38602  0.89158  1.0000 0.1462916366
H   H93       1.0  0.16607  0.43283  0.90450  1.0000 0.1382438255
H   H94       1.0  0.79346  0.11832  0.69617  1.0000 0.1328240561
H   H95       1.0  0.90758  0.21694  0.75824  1.0000 0.1328240561
H   H96       1.0  0.75370  0.36288  0.77826  1.0000 0.1462916366
C   C1        1.0  0.63460  0.51650  0.67493  1.0000 0.5601146301
C   C2        1.0  0.20270  0.77290  0.50163  1.0000 -0.0357977079
C   C3        1.0  0.30860  0.85720  0.49253  1.0000 0.6525723071
C   C4        1.0  0.00470  0.62230  0.51843  1.0000 0.2507036781
C   C5        1.0  0.06700  0.67120  0.55943  1.0000 -0.2107274452
C   C6        1.0  0.69560  0.43950  0.61013  1.0000 -0.0632024892
C   C7        1.0  0.16540  0.74620  0.55053  1.0000 -0.0685094216
C   C8        1.0  0.04120  0.64620  0.46943  1.0000 -0.1861915266
C   C9        1.0  0.70620  0.52460  0.63433  1.0000 -0.0357977079
C   C10       1.0  0.14040  0.71950  0.46183  1.0000 -0.0632024892
C   C11       1.0  0.78580  0.61750  0.62103  1.0000 -0.0685094216
C   C12       1.0  0.85460  0.62720  0.58403  1.0000 -0.2107274452
C   C13       1.0  0.76290  0.44790  0.57243  1.0000 -0.1861915266
C   C14       1.0  0.84360  0.54170  0.56083  1.0000 0.2507036781
C   C15       1.0  0.88190  0.36540  0.00827  1.0000 0.5601146301
C   C16       1.0  0.57020  0.79730  0.83497  1.0000 -0.0357977079
C   C17       1.0  0.54860  0.69140  0.82587  1.0000 0.6525723071
C   C18       1.0  0.61760  0.99530  0.85177  1.0000 0.2507036781
C   C19       1.0  0.60420  0.93300  0.89277  1.0000 -0.2107274452
C   C20       1.0  0.74390  0.30440  0.94347  1.0000 -0.0632024892
C   C21       1.0  0.58080  0.83460  0.88387  1.0000 -0.0685094216
C   C22       1.0  0.60500  0.95880  0.80277  1.0000 -0.1861915266
C   C23       1.0  0.81840  0.29380  0.96767  1.0000 -0.0357977079
C   C24       1.0  0.57910  0.85960  0.79517  1.0000 -0.0632024892
C   C25       1.0  0.83170  0.21420  0.95437  1.0000 -0.0685094216
C   C26       1.0  0.77260  0.14540  0.91737  1.0000 -0.2107274452
C   C27       1.0  0.68500  0.23710  0.90577  1.0000 -0.1861915266
C   C28       1.0  0.69810  0.15640  0.89417  1.0000 0.2507036781
C   C29       1.0  0.48350  0.11810  0.34160  1.0000 0.5601146301
C   C30       1.0  0.22710  0.42980  0.16830  1.0000 -0.0357977079
C   C31       1.0  0.14280  0.45140  0.15920  1.0000 0.6525723071
C   C32       1.0  0.37770  0.38240  0.18510  1.0000 0.2507036781
C   C33       1.0  0.32880  0.39580  0.22610  1.0000 -0.2107274452
C   C34       1.0  0.56050  0.25610  0.27680  1.0000 -0.0632024892
C   C35       1.0  0.25380  0.41920  0.21720  1.0000 -0.0685094216
C   C36       1.0  0.35380  0.39500  0.13610  1.0000 -0.1861915266
C   C37       1.0  0.47540  0.18160  0.30100  1.0000 -0.0357977079
C   C38       1.0  0.28050  0.42090  0.12850  1.0000 -0.0632024892
C   C39       1.0  0.38250  0.16830  0.28770  1.0000 -0.0685094216
C   C40       1.0  0.37280  0.22740  0.25070  1.0000 -0.2107274452
C   C41       1.0  0.55210  0.31500  0.23910  1.0000 -0.1861915266
C   C42       1.0  0.45830  0.30190  0.22750  1.0000 0.2507036781
C   C43       1.0  0.36540  0.48350  0.67493  1.0000 0.5601146301
C   C44       1.0  0.79730  0.22710  0.50163  1.0000 -0.0357977079
C   C45       1.0  0.69140  0.14280  0.49253  1.0000 0.6525723071
C   C46       1.0  0.99530  0.37770  0.51843  1.0000 0.2507036781
C   C47       1.0  0.93300  0.32880  0.55943  1.0000 -0.2107274452
C   C48       1.0  0.30440  0.56050  0.61013  1.0000 -0.0632024892
C   C49       1.0  0.83460  0.25380  0.55053  1.0000 -0.0685094216
C   C50       1.0  0.95880  0.35380  0.46943  1.0000 -0.1861915266
C   C51       1.0  0.29380  0.47540  0.63433  1.0000 -0.0357977079
C   C52       1.0  0.85960  0.28050  0.46183  1.0000 -0.0632024892
C   C53       1.0  0.21420  0.38250  0.62103  1.0000 -0.0685094216
C   C54       1.0  0.14540  0.37280  0.58403  1.0000 -0.2107274452
C   C55       1.0  0.23710  0.55210  0.57243  1.0000 -0.1861915266
C   C56       1.0  0.15640  0.45830  0.56083  1.0000 0.2507036781
C   C57       1.0  0.11810  0.63460  0.00827  1.0000 0.5601146301
C   C58       1.0  0.42980  0.20270  0.83497  1.0000 -0.0357977079
C   C59       1.0  0.45140  0.30860  0.82587  1.0000 0.6525723071
C   C60       1.0  0.38240  0.00470  0.85177  1.0000 0.2507036781
C   C61       1.0  0.39580  0.06700  0.89277  1.0000 -0.2107274452
C   C62       1.0  0.25610  0.69560  0.94347  1.0000 -0.0632024892
C   C63       1.0  0.41920  0.16540  0.88387  1.0000 -0.0685094216
C   C64       1.0  0.39500  0.04120  0.80277  1.0000 -0.1861915266
C   C65       1.0  0.18160  0.70620  0.96767  1.0000 -0.0357977079
C   C66       1.0  0.42090  0.14040  0.79517  1.0000 -0.0632024892
C   C67       1.0  0.16830  0.78580  0.95437  1.0000 -0.0685094216
C   C68       1.0  0.22740  0.85460  0.91737  1.0000 -0.2107274452
C   C69       1.0  0.31500  0.76290  0.90577  1.0000 -0.1861915266
C   C70       1.0  0.30190  0.84360  0.89417  1.0000 0.2507036781
C   C71       1.0  0.51650  0.88190  0.34160  1.0000 0.5601146301
C   C72       1.0  0.77290  0.57020  0.16830  1.0000 -0.0357977079
C   C73       1.0  0.85720  0.54860  0.15920  1.0000 0.6525723071
C   C74       1.0  0.62230  0.61760  0.18510  1.0000 0.2507036781
C   C75       1.0  0.67120  0.60420  0.22610  1.0000 -0.2107274452
C   C76       1.0  0.43950  0.74390  0.27680  1.0000 -0.0632024892
C   C77       1.0  0.74620  0.58080  0.21720  1.0000 -0.0685094216
C   C78       1.0  0.64620  0.60500  0.13610  1.0000 -0.1861915266
C   C79       1.0  0.52460  0.81840  0.30100  1.0000 -0.0357977079
C   C80       1.0  0.71950  0.57910  0.12850  1.0000 -0.0632024892
C   C81       1.0  0.61750  0.83170  0.28770  1.0000 -0.0685094216
C   C82       1.0  0.62720  0.77260  0.25070  1.0000 -0.2107274452
C   C83       1.0  0.44790  0.68500  0.23910  1.0000 -0.1861915266
C   C84       1.0  0.54170  0.69810  0.22750  1.0000 0.2507036781
C   C85       1.0  0.11810  0.48350  0.32507  1.0000 0.5601146301
C   C86       1.0  0.42980  0.22710  0.49837  1.0000 -0.0357977079
C   C87       1.0  0.45140  0.14280  0.50747  1.0000 0.6525723071
C   C88       1.0  0.38240  0.37770  0.48157  1.0000 0.2507036781
C   C89       1.0  0.39580  0.32880  0.44057  1.0000 -0.2107274452
C   C90       1.0  0.25610  0.56050  0.38987  1.0000 -0.0632024892
C   C91       1.0  0.41920  0.25380  0.44947  1.0000 -0.0685094216
C   C92       1.0  0.39500  0.35380  0.53057  1.0000 -0.1861915266
C   C93       1.0  0.18160  0.47540  0.36567  1.0000 -0.0357977079
C   C94       1.0  0.42090  0.28050  0.53817  1.0000 -0.0632024892
C   C95       1.0  0.16830  0.38250  0.37897  1.0000 -0.0685094216
C   C96       1.0  0.22740  0.37280  0.41597  1.0000 -0.2107274452
C   C97       1.0  0.31500  0.55210  0.42757  1.0000 -0.1861915266
C   C98       1.0  0.30190  0.45830  0.43917  1.0000 0.2507036781
C   C99       1.0  0.51650  0.63460  0.99173  1.0000 0.5601146301
C   C100      1.0  0.77290  0.20270  0.16503  1.0000 -0.0357977079
C   C101      1.0  0.85720  0.30860  0.17413  1.0000 0.6525723071
C   C102      1.0  0.62230  0.00470  0.14823  1.0000 0.2507036781
C   C103      1.0  0.67120  0.06700  0.10723  1.0000 -0.2107274452
C   C104      1.0  0.43950  0.69560  0.05653  1.0000 -0.0632024892
C   C105      1.0  0.74620  0.16540  0.11613  1.0000 -0.0685094216
C   C106      1.0  0.64620  0.04120  0.19723  1.0000 -0.1861915266
C   C107      1.0  0.52460  0.70620  0.03233  1.0000 -0.0357977079
C   C108      1.0  0.71950  0.14040  0.20483  1.0000 -0.0632024892
C   C109      1.0  0.61750  0.78580  0.04563  1.0000 -0.0685094216
C   C110      1.0  0.62720  0.85460  0.08263  1.0000 -0.2107274452
C   C111      1.0  0.44790  0.76290  0.09423  1.0000 -0.1861915266
C   C112      1.0  0.54170  0.84360  0.10583  1.0000 0.2507036781
C   C113      1.0  0.36540  0.88190  0.65840  1.0000 0.5601146301
C   C114      1.0  0.79730  0.57020  0.83170  1.0000 -0.0357977079
C   C115      1.0  0.69140  0.54860  0.84080  1.0000 0.6525723071
C   C116      1.0  0.99530  0.61760  0.81490  1.0000 0.2507036781
C   C117      1.0  0.93300  0.60420  0.77390  1.0000 -0.2107274452
C   C118      1.0  0.30440  0.74390  0.72320  1.0000 -0.0632024892
C   C119      1.0  0.83460  0.58080  0.78280  1.0000 -0.0685094216
C   C120      1.0  0.95880  0.60500  0.86390  1.0000 -0.1861915266
C   C121      1.0  0.29380  0.81840  0.69900  1.0000 -0.0357977079
C   C122      1.0  0.85960  0.57910  0.87150  1.0000 -0.0632024892
C   C123      1.0  0.21420  0.83170  0.71230  1.0000 -0.0685094216
C   C124      1.0  0.14540  0.77260  0.74930  1.0000 -0.2107274452
C   C125      1.0  0.23710  0.68500  0.76090  1.0000 -0.1861915266
C   C126      1.0  0.15640  0.69810  0.77250  1.0000 0.2507036781
C   C127      1.0  0.88190  0.51650  0.32507  1.0000 0.5601146301
C   C128      1.0  0.57020  0.77290  0.49837  1.0000 -0.0357977079
C   C129      1.0  0.54860  0.85720  0.50747  1.0000 0.6525723071
C   C130      1.0  0.61760  0.62230  0.48157  1.0000 0.2507036781
C   C131      1.0  0.60420  0.67120  0.44057  1.0000 -0.2107274452
C   C132      1.0  0.74390  0.43950  0.38987  1.0000 -0.0632024892
C   C133      1.0  0.58080  0.74620  0.44947  1.0000 -0.0685094216
C   C134      1.0  0.60500  0.64620  0.53057  1.0000 -0.1861915266
C   C135      1.0  0.81840  0.52460  0.36567  1.0000 -0.0357977079
C   C136      1.0  0.57910  0.71950  0.53817  1.0000 -0.0632024892
C   C137      1.0  0.83170  0.61750  0.37897  1.0000 -0.0685094216
C   C138      1.0  0.77260  0.62720  0.41597  1.0000 -0.2107274452
C   C139      1.0  0.68500  0.44790  0.42757  1.0000 -0.1861915266
C   C140      1.0  0.69810  0.54170  0.43917  1.0000 0.2507036781
C   C141      1.0  0.48350  0.36540  0.99173  1.0000 0.5601146301
C   C142      1.0  0.22710  0.79730  0.16503  1.0000 -0.0357977079
C   C143      1.0  0.14280  0.69140  0.17413  1.0000 0.6525723071
C   C144      1.0  0.37770  0.99530  0.14823  1.0000 0.2507036781
C   C145      1.0  0.32880  0.93300  0.10723  1.0000 -0.2107274452
C   C146      1.0  0.56050  0.30440  0.05653  1.0000 -0.0632024892
C   C147      1.0  0.25380  0.83460  0.11613  1.0000 -0.0685094216
C   C148      1.0  0.35380  0.95880  0.19723  1.0000 -0.1861915266
C   C149      1.0  0.47540  0.29380  0.03233  1.0000 -0.0357977079
C   C150      1.0  0.28050  0.85960  0.20483  1.0000 -0.0632024892
C   C151      1.0  0.38250  0.21420  0.04563  1.0000 -0.0685094216
C   C152      1.0  0.37280  0.14540  0.08263  1.0000 -0.2107274452
C   C153      1.0  0.55210  0.23710  0.09423  1.0000 -0.1861915266
C   C154      1.0  0.45830  0.15640  0.10583  1.0000 0.2507036781
C   C155      1.0  0.63460  0.11810  0.65840  1.0000 0.5601146301
C   C156      1.0  0.20270  0.42980  0.83170  1.0000 -0.0357977079
C   C157      1.0  0.30860  0.45140  0.84080  1.0000 0.6525723071
C   C158      1.0  0.00470  0.38240  0.81490  1.0000 0.2507036781
C   C159      1.0  0.06700  0.39580  0.77390  1.0000 -0.2107274452
C   C160      1.0  0.69560  0.25610  0.72320  1.0000 -0.0632024892
C   C161      1.0  0.16540  0.41920  0.78280  1.0000 -0.0685094216
C   C162      1.0  0.04120  0.39500  0.86390  1.0000 -0.1861915266
C   C163      1.0  0.70620  0.18160  0.69900  1.0000 -0.0357977079
C   C164      1.0  0.14040  0.42090  0.87150  1.0000 -0.0632024892
C   C165      1.0  0.78580  0.16830  0.71230  1.0000 -0.0685094216
C   C166      1.0  0.85460  0.22740  0.74930  1.0000 -0.2107274452
C   C167      1.0  0.76290  0.31500  0.76090  1.0000 -0.1861915266
C   C168      1.0  0.84360  0.30190  0.77250  1.0000 0.2507036781
O   O1        1.0  0.56440  0.43190  0.68933  1.0000 -0.5941272148
O   O2        1.0  0.33500  0.88650  0.44713  1.0000 -0.6298752048
O   O3        1.0  0.64380  0.59620  0.69603  1.0000 -0.6091620196
O   O4        1.0  0.36570  0.89470  0.53013  1.0000 -0.681123949
O   O5        1.0  0.90610  0.54140  0.52283  1.0000 -0.20432498
O   O6        1.0  0.86750  0.43560  0.02267  1.0000 -0.5941272148
O   O7        1.0  0.55150  0.66500  0.78047  1.0000 -0.6298752048
O   O8        1.0  0.95240  0.35620  0.02937  1.0000 -0.6091620196
O   O9        1.0  0.52900  0.63430  0.86347  1.0000 -0.681123949
O   O10       1.0  0.63530  0.09390  0.85617  1.0000 -0.20432498
O   O11       1.0  0.56810  0.13250  0.35600  1.0000 -0.5941272148
O   O12       1.0  0.11350  0.44850  0.11380  1.0000 -0.6298752048
O   O13       1.0  0.40380  0.04760  0.36270  1.0000 -0.6091620196
O   O14       1.0  0.10530  0.47100  0.19680  1.0000 -0.681123949
O   O15       1.0  0.45860  0.36470  0.18950  1.0000 -0.20432498
O   O16       1.0  0.43560  0.56810  0.68933  1.0000 -0.5941272148
O   O17       1.0  0.66500  0.11350  0.44713  1.0000 -0.6298752048
O   O18       1.0  0.35620  0.40380  0.69603  1.0000 -0.6091620196
O   O19       1.0  0.63430  0.10530  0.53013  1.0000 -0.681123949
O   O20       1.0  0.09390  0.45860  0.52283  1.0000 -0.20432498
O   O21       1.0  0.13250  0.56440  0.02267  1.0000 -0.5941272148
O   O22       1.0  0.44850  0.33500  0.78047  1.0000 -0.6298752048
O   O23       1.0  0.04760  0.64380  0.02937  1.0000 -0.6091620196
O   O24       1.0  0.47100  0.36570  0.86347  1.0000 -0.681123949
O   O25       1.0  0.36470  0.90610  0.85617  1.0000 -0.20432498
O   O26       1.0  0.43190  0.86750  0.35600  1.0000 -0.5941272148
O   O27       1.0  0.88650  0.55150  0.11380  1.0000 -0.6298752048
O   O28       1.0  0.59620  0.95240  0.36270  1.0000 -0.6091620196
O   O29       1.0  0.89470  0.52900  0.19680  1.0000 -0.681123949
O   O30       1.0  0.54140  0.63530  0.18950  1.0000 -0.20432498
O   O31       1.0  0.13250  0.56810  0.31067  1.0000 -0.5941272148
O   O32       1.0  0.44850  0.11350  0.55287  1.0000 -0.6298752048
O   O33       1.0  0.04760  0.40380  0.30397  1.0000 -0.6091620196
O   O34       1.0  0.47100  0.10530  0.46987  1.0000 -0.681123949
O   O35       1.0  0.36470  0.45860  0.47717  1.0000 -0.20432498
O   O36       1.0  0.43190  0.56440  0.97733  1.0000 -0.5941272148
O   O37       1.0  0.88650  0.33500  0.21953  1.0000 -0.6298752048
O   O38       1.0  0.59620  0.64380  0.97063  1.0000 -0.6091620196
O   O39       1.0  0.89470  0.36570  0.13653  1.0000 -0.681123949
O   O40       1.0  0.54140  0.90610  0.14383  1.0000 -0.20432498
O   O41       1.0  0.43560  0.86750  0.64400  1.0000 -0.5941272148
O   O42       1.0  0.66500  0.55150  0.88620  1.0000 -0.6298752048
O   O43       1.0  0.35620  0.95240  0.63730  1.0000 -0.6091620196
O   O44       1.0  0.63430  0.52900  0.80320  1.0000 -0.681123949
O   O45       1.0  0.09390  0.63530  0.81050  1.0000 -0.20432498
O   O46       1.0  0.86750  0.43190  0.31067  1.0000 -0.5941272148
O   O47       1.0  0.55150  0.88650  0.55287  1.0000 -0.6298752048
O   O48       1.0  0.95240  0.59620  0.30397  1.0000 -0.6091620196
O   O49       1.0  0.52900  0.89470  0.46987  1.0000 -0.681123949
O   O50       1.0  0.63530  0.54140  0.47717  1.0000 -0.20432498
O   O51       1.0  0.56810  0.43560  0.97733  1.0000 -0.5941272148
O   O52       1.0  0.11350  0.66500  0.21953  1.0000 -0.6298752048
O   O53       1.0  0.40380  0.35620  0.97063  1.0000 -0.6091620196
O   O54       1.0  0.10530  0.63430  0.13653  1.0000 -0.681123949
O   O55       1.0  0.45860  0.09390  0.14383  1.0000 -0.20432498
O   O56       1.0  0.56440  0.13250  0.64400  1.0000 -0.5941272148
O   O57       1.0  0.33500  0.44850  0.88620  1.0000 -0.6298752048
O   O58       1.0  0.64380  0.04760  0.63730  1.0000 -0.6091620196
O   O59       1.0  0.36570  0.47100  0.80320  1.0000 -0.681123949
O   O60       1.0  0.90610  0.36470  0.81050  1.0000 -0.20432498
