# DDEC6 charges by PACMAN v1.1 (https://github.com/mtap-research/PACMAN-charge/)
data_2018[Cu][nan]3[ASR]11
_chemical_formula_sum              "Cu12 H112 C200 N8 O48"
_cell_length_a       33.0371
_cell_length_b       33.0371
_cell_length_c       33.0371
_cell_angle_alpha    145.333
_cell_angle_beta     145.333
_cell_angle_gamma    49.8384

_symmetry_space_group_name_H-M    "P 1"
_symmetry_Int_Tables_number       1

loop_
  _symmetry_equiv_pos_as_xyz
  'x, y, z'

loop_
  _atom_site_type_symbol
  _atom_site_label
  _atom_site_symmetry_multiplicity
  _atom_site_fract_x
  _atom_site_fract_y
  _atom_site_fract_z
  _atom_site_occupancy
  _atom_site_charge
Cu  Cu1       1.0  0.27198  0.77198  0.50000  1.0000 0.8578507072
Cu  Cu2       1.0  0.52198  0.52198  0.00000  1.0000 0.8578507072
Cu  Cu3       1.0  0.47802  0.47802  0.00000  1.0000 0.8578507072
Cu  Cu4       1.0  0.22802  0.72802  0.50000  1.0000 0.8578507072
Cu  Cu5       1.0  0.87194  0.55566  0.68372  1.0000 0.7639990291
Cu  Cu6       1.0  0.87194  0.18822  0.31628  1.0000 0.7639990291
Cu  Cu7       1.0  0.30566  0.12194  0.18372  1.0000 0.7639990291
Cu  Cu8       1.0  0.93822  0.12194  0.81628  1.0000 0.7639990291
Cu  Cu9       1.0  0.87806  0.69434  0.81628  1.0000 0.7639990291
Cu  Cu10      1.0  0.87806  0.06178  0.18372  1.0000 0.7639990291
Cu  Cu11      1.0  0.81178  0.12806  0.68372  1.0000 0.7639990291
Cu  Cu12      1.0  0.44434  0.12806  0.31628  1.0000 0.7639990291
H   H1        1.0  0.67710  0.49130  0.53240  1.0000 0.1283500726
H   H2        1.0  0.57480  0.47210  0.47310  1.0000 0.1124081694
H   H3        1.0  0.57830  0.68370  0.66540  1.0000 0.1124081694
H   H4        1.0  0.68090  0.70180  0.72510  1.0000 0.1283500726
H   H5        1.0  0.45500  0.65120  0.54360  1.0000 0.1283500726
H   H6        1.0  0.95890  0.14470  0.46760  1.0000 0.1283500726
H   H7        1.0  0.99900  0.10170  0.52690  1.0000 0.1124081694
H   H8        1.0  0.01830  0.91290  0.33460  1.0000 0.1124081694
H   H9        1.0  0.97670  0.95580  0.27490  1.0000 0.1283500726
H   H10       1.0  0.10760  0.91140  0.45640  1.0000 0.1283500726
H   H11       1.0  0.24130  0.20890  0.31420  1.0000 0.1283500726
H   H12       1.0  0.22210  0.24900  0.39730  1.0000 0.1124081694
H   H13       1.0  0.43370  0.26830  0.60540  1.0000 0.1124081694
H   H14       1.0  0.45180  0.22670  0.52090  1.0000 0.1283500726
H   H15       1.0  0.40120  0.35760  0.69620  1.0000 0.1283500726
H   H16       1.0  0.89470  0.92710  0.68580  1.0000 0.1283500726
H   H17       1.0  0.85170  0.82480  0.60270  1.0000 0.1124081694
H   H18       1.0  0.66290  0.82830  0.39460  1.0000 0.1124081694
H   H19       1.0  0.70580  0.93090  0.47910  1.0000 0.1283500726
H   H20       1.0  0.66140  0.70500  0.30380  1.0000 0.1283500726
H   H21       1.0  0.79110  0.75870  0.68580  1.0000 0.1283500726
H   H22       1.0  0.75100  0.77790  0.60270  1.0000 0.1124081694
H   H23       1.0  0.73170  0.56630  0.39460  1.0000 0.1124081694
H   H24       1.0  0.77330  0.54820  0.47910  1.0000 0.1283500726
H   H25       1.0  0.64240  0.59880  0.30380  1.0000 0.1283500726
H   H26       1.0  0.07290  0.10530  0.31420  1.0000 0.1283500726
H   H27       1.0  0.17520  0.14830  0.39730  1.0000 0.1124081694
H   H28       1.0  0.17170  0.33710  0.60540  1.0000 0.1124081694
H   H29       1.0  0.06910  0.29420  0.52090  1.0000 0.1283500726
H   H30       1.0  0.29500  0.33860  0.69620  1.0000 0.1283500726
H   H31       1.0  0.85530  0.04110  0.53240  1.0000 0.1283500726
H   H32       1.0  0.89830  0.00100  0.47310  1.0000 0.1124081694
H   H33       1.0  0.08710  0.98170  0.66540  1.0000 0.1124081694
H   H34       1.0  0.04420  0.02330  0.72510  1.0000 0.1283500726
H   H35       1.0  0.08860  0.89240  0.54360  1.0000 0.1283500726
H   H36       1.0  0.50870  0.32290  0.46760  1.0000 0.1283500726
H   H37       1.0  0.52790  0.42520  0.52690  1.0000 0.1124081694
H   H38       1.0  0.31630  0.42170  0.33460  1.0000 0.1124081694
H   H39       1.0  0.29820  0.31910  0.27490  1.0000 0.1283500726
H   H40       1.0  0.34880  0.54500  0.45640  1.0000 0.1283500726
H   H41       1.0  0.07290  0.75870  0.96760  1.0000 0.1283500726
H   H42       1.0  0.17520  0.77790  0.02690  1.0000 0.1124081694
H   H43       1.0  0.17170  0.56630  0.83460  1.0000 0.1124081694
H   H44       1.0  0.06910  0.54820  0.77490  1.0000 0.1283500726
H   H45       1.0  0.29500  0.59880  0.95640  1.0000 0.1283500726
H   H46       1.0  0.79110  0.10530  0.03240  1.0000 0.1283500726
H   H47       1.0  0.75100  0.14830  0.97310  1.0000 0.1124081694
H   H48       1.0  0.73170  0.33710  0.16540  1.0000 0.1124081694
H   H49       1.0  0.77330  0.29420  0.22510  1.0000 0.1283500726
H   H50       1.0  0.64240  0.33860  0.04360  1.0000 0.1283500726
H   H51       1.0  0.50870  0.04110  0.18580  1.0000 0.1283500726
H   H52       1.0  0.52790  0.00100  0.10270  1.0000 0.1124081694
H   H53       1.0  0.31630  0.98170  0.89460  1.0000 0.1124081694
H   H54       1.0  0.29820  0.02330  0.97910  1.0000 0.1283500726
H   H55       1.0  0.34880  0.89240  0.80380  1.0000 0.1283500726
H   H56       1.0  0.85530  0.32290  0.81420  1.0000 0.1283500726
H   H57       1.0  0.89830  0.42520  0.89730  1.0000 0.1124081694
H   H58       1.0  0.08710  0.42170  0.10540  1.0000 0.1124081694
H   H59       1.0  0.04420  0.31910  0.02090  1.0000 0.1283500726
H   H60       1.0  0.08860  0.54500  0.19620  1.0000 0.1283500726
H   H61       1.0  0.95890  0.49130  0.81420  1.0000 0.1283500726
H   H62       1.0  0.99900  0.47210  0.89730  1.0000 0.1124081694
H   H63       1.0  0.01830  0.68370  0.10540  1.0000 0.1124081694
H   H64       1.0  0.97670  0.70180  0.02090  1.0000 0.1283500726
H   H65       1.0  0.10760  0.65120  0.19620  1.0000 0.1283500726
H   H66       1.0  0.67710  0.14470  0.18580  1.0000 0.1283500726
H   H67       1.0  0.57480  0.10170  0.10270  1.0000 0.1124081694
H   H68       1.0  0.57830  0.91290  0.89460  1.0000 0.1124081694
H   H69       1.0  0.68090  0.95580  0.97910  1.0000 0.1283500726
H   H70       1.0  0.45500  0.91140  0.80380  1.0000 0.1283500726
H   H71       1.0  0.89470  0.20890  0.96760  1.0000 0.1283500726
H   H72       1.0  0.85170  0.24900  0.02690  1.0000 0.1124081694
H   H73       1.0  0.66290  0.26830  0.83460  1.0000 0.1124081694
H   H74       1.0  0.70580  0.22670  0.77490  1.0000 0.1283500726
H   H75       1.0  0.66140  0.35760  0.95640  1.0000 0.1283500726
H   H76       1.0  0.24130  0.92710  0.03240  1.0000 0.1283500726
H   H77       1.0  0.22210  0.82480  0.97310  1.0000 0.1124081694
H   H78       1.0  0.43370  0.82830  0.16540  1.0000 0.1124081694
H   H79       1.0  0.45180  0.93090  0.22510  1.0000 0.1283500726
H   H80       1.0  0.40120  0.70500  0.04360  1.0000 0.1283500726
H   H81       1.0  0.89930  0.46010  0.56080  1.0000 0.1124081694
H   H82       1.0  0.82740  0.44740  0.62000  1.0000 0.1388676698
H   H83       1.0  0.79490  0.35430  0.55940  1.0000 0.1124081694
H   H84       1.0  0.89930  0.33850  0.43920  1.0000 0.1124081694
H   H85       1.0  0.82740  0.20740  0.38000  1.0000 0.1388676698
H   H86       1.0  0.79490  0.23550  0.44060  1.0000 0.1124081694
H   H87       1.0  0.21010  0.14930  0.06080  1.0000 0.1124081694
H   H88       1.0  0.19740  0.07740  0.12000  1.0000 0.1388676698
H   H89       1.0  0.10430  0.04490  0.05940  1.0000 0.1124081694
H   H90       1.0  0.08850  0.14930  0.93920  1.0000 0.1124081694
H   H91       1.0  0.95740  0.07740  0.88000  1.0000 0.1388676698
H   H92       1.0  0.98550  0.04490  0.94060  1.0000 0.1124081694
H   H93       1.0  0.85070  0.78990  0.93920  1.0000 0.1124081694
H   H94       1.0  0.92260  0.80260  0.88000  1.0000 0.1388676698
H   H95       1.0  0.95510  0.89570  0.94060  1.0000 0.1124081694
H   H96       1.0  0.85070  0.91150  0.06080  1.0000 0.1124081694
H   H97       1.0  0.92260  0.04260  0.12000  1.0000 0.1388676698
H   H98       1.0  0.95510  0.01450  0.05940  1.0000 0.1124081694
H   H99       1.0  0.66150  0.10070  0.56080  1.0000 0.1124081694
H   H100      1.0  0.79260  0.17260  0.62000  1.0000 0.1388676698
H   H101      1.0  0.76450  0.20510  0.55940  1.0000 0.1124081694
H   H102      1.0  0.53990  0.10070  0.43920  1.0000 0.1124081694
H   H103      1.0  0.55260  0.17260  0.38000  1.0000 0.1388676698
H   H104      1.0  0.64570  0.20510  0.44060  1.0000 0.1124081694
H   H105      1.0  0.52710  0.47290  0.50000  1.0000 0.1124081694
H   H106      1.0  0.97290  0.02710  0.50000  1.0000 0.1124081694
H   H107      1.0  0.22290  0.22290  0.44580  1.0000 0.1124081694
H   H108      1.0  0.77710  0.77710  0.55420  1.0000 0.1124081694
H   H109      1.0  0.22290  0.77710  0.00000  1.0000 0.1124081694
H   H110      1.0  0.77710  0.22290  0.00000  1.0000 0.1124081694
H   H111      1.0  0.52710  0.02710  0.05420  1.0000 0.1124081694
H   H112      1.0  0.97290  0.47290  0.94580  1.0000 0.1124081694
C   C1        1.0  0.75812  0.60832  0.67620  1.0000 0.5633809782
C   C2        1.0  0.68956  0.59846  0.63650  1.0000 -0.0194659012
C   C3        1.0  0.65770  0.53000  0.56010  1.0000 -0.0989081814
C   C4        1.0  0.59571  0.51831  0.52380  1.0000 -0.1540243917
C   C5        1.0  0.56632  0.57582  0.56390  1.0000 0.0734522665
C   C6        1.0  0.59839  0.64459  0.63900  1.0000 -0.1540243917
C   C7        1.0  0.66018  0.65568  0.67510  1.0000 -0.0989081814
C   C8        1.0  0.50255  0.56525  0.53010  1.0000 0.0757240966
C   C9        1.0  0.45078  0.61308  0.52690  1.0000 -0.1578782958
C   C10       1.0  0.93212  0.08192  0.32380  1.0000 0.5633809782
C   C11       1.0  0.96196  0.05306  0.36350  1.0000 -0.0194659012
C   C12       1.0  0.96990  0.09760  0.43990  1.0000 -0.0989081814
C   C13       1.0  0.99451  0.07191  0.47620  1.0000 -0.1578782958
C   C14       1.0  0.01192  0.00242  0.43610  1.0000 0.0734522665
C   C15       1.0  0.00559  0.95939  0.36100  1.0000 -0.1540243917
C   C16       1.0  0.98058  0.98508  0.32490  1.0000 -0.0989081814
C   C17       1.0  0.03515  0.97245  0.46990  1.0000 0.0757240966
C   C18       1.0  0.08618  0.92388  0.47310  1.0000 -0.1578782958
C   C19       1.0  0.35832  0.18212  0.35020  1.0000 0.5633809782
C   C20       1.0  0.34846  0.21196  0.40890  1.0000 -0.0194659012
C   C21       1.0  0.28000  0.21990  0.37230  1.0000 -0.0989081814
C   C22       1.0  0.26831  0.24451  0.42260  1.0000 -0.1578782958
C   C23       1.0  0.32582  0.26192  0.50950  1.0000 0.0734522665
C   C24       1.0  0.39459  0.25559  0.54620  1.0000 -0.1540243917
C   C25       1.0  0.40568  0.23058  0.49550  1.0000 -0.0989081814
C   C26       1.0  0.31525  0.28515  0.56270  1.0000 0.0757240966
C   C27       1.0  0.36308  0.33618  0.66230  1.0000 -0.1578782958
C   C28       1.0  0.83192  0.00812  0.64980  1.0000 0.5633809782
C   C29       1.0  0.80306  0.93956  0.59110  1.0000 -0.0194659012
C   C30       1.0  0.84760  0.90770  0.62770  1.0000 -0.0989081814
C   C31       1.0  0.82191  0.84571  0.57740  1.0000 -0.1540243917
C   C32       1.0  0.75242  0.81632  0.49050  1.0000 0.0734522665
C   C33       1.0  0.70939  0.84839  0.45380  1.0000 -0.1540243917
C   C34       1.0  0.73508  0.91018  0.50450  1.0000 -0.0989081814
C   C35       1.0  0.72245  0.75255  0.43730  1.0000 0.0757240966
C   C36       1.0  0.67388  0.70078  0.33770  1.0000 -0.1578782958
C   C37       1.0  0.81788  0.64168  0.64980  1.0000 0.5633809782
C   C38       1.0  0.78804  0.65154  0.59110  1.0000 -0.0194659012
C   C39       1.0  0.78010  0.72000  0.62770  1.0000 -0.0989081814
C   C40       1.0  0.75549  0.73169  0.57740  1.0000 -0.1540243917
C   C41       1.0  0.73808  0.67418  0.49050  1.0000 0.0734522665
C   C42       1.0  0.74441  0.60541  0.45380  1.0000 -0.1540243917
C   C43       1.0  0.76942  0.59432  0.50450  1.0000 -0.0989081814
C   C44       1.0  0.71485  0.68475  0.43730  1.0000 0.0757240966
C   C45       1.0  0.66382  0.63692  0.33770  1.0000 -0.1578782958
C   C46       1.0  0.99188  0.16808  0.35020  1.0000 0.5633809782
C   C47       1.0  0.06044  0.19694  0.40890  1.0000 -0.0194659012
C   C48       1.0  0.09230  0.15240  0.37230  1.0000 -0.0989081814
C   C49       1.0  0.15429  0.17809  0.42260  1.0000 -0.1578782958
C   C50       1.0  0.18368  0.24758  0.50950  1.0000 0.0734522665
C   C51       1.0  0.15161  0.29061  0.54620  1.0000 -0.1540243917
C   C52       1.0  0.08982  0.26492  0.49550  1.0000 -0.0989081814
C   C53       1.0  0.24745  0.27755  0.56270  1.0000 0.0757240966
C   C54       1.0  0.29922  0.32612  0.66230  1.0000 -0.1578782958
C   C55       1.0  0.91808  0.06788  0.67620  1.0000 0.5633809782
C   C56       1.0  0.94694  0.03804  0.63650  1.0000 -0.0194659012
C   C57       1.0  0.90240  0.03010  0.56010  1.0000 -0.0989081814
C   C58       1.0  0.92809  0.00549  0.52380  1.0000 -0.1540243917
C   C59       1.0  0.99758  0.98808  0.56390  1.0000 0.0734522665
C   C60       1.0  0.04061  0.99441  0.63900  1.0000 -0.1540243917
C   C61       1.0  0.01492  0.01942  0.67510  1.0000 -0.0989081814
C   C62       1.0  0.02755  0.96485  0.53010  1.0000 0.0757240966
C   C63       1.0  0.07612  0.91382  0.52690  1.0000 -0.1578782958
C   C64       1.0  0.39168  0.24188  0.32380  1.0000 0.5633809782
C   C65       1.0  0.40154  0.31044  0.36350  1.0000 -0.0194659012
C   C66       1.0  0.47000  0.34230  0.43990  1.0000 -0.0989081814
C   C67       1.0  0.48169  0.40429  0.47620  1.0000 -0.1578782958
C   C68       1.0  0.42418  0.43368  0.43610  1.0000 0.0734522665
C   C69       1.0  0.35541  0.40161  0.36100  1.0000 -0.1540243917
C   C70       1.0  0.34432  0.33982  0.32490  1.0000 -0.0989081814
C   C71       1.0  0.43475  0.49745  0.46990  1.0000 0.0757240966
C   C72       1.0  0.38692  0.54922  0.47310  1.0000 -0.1578782958
C   C73       1.0  0.99188  0.64168  0.82380  1.0000 0.5633809782
C   C74       1.0  0.06044  0.65154  0.86350  1.0000 -0.0194659012
C   C75       1.0  0.09230  0.72000  0.93990  1.0000 -0.0989081814
C   C76       1.0  0.15429  0.73169  0.97620  1.0000 -0.1540243917
C   C77       1.0  0.18368  0.67418  0.93610  1.0000 0.0734522665
C   C78       1.0  0.15161  0.60541  0.86100  1.0000 -0.1540243917
C   C79       1.0  0.08982  0.59432  0.82490  1.0000 -0.0989081814
C   C80       1.0  0.24745  0.68475  0.96990  1.0000 0.0757240966
C   C81       1.0  0.29922  0.63692  0.97310  1.0000 -0.1578782958
C   C82       1.0  0.81788  0.16808  0.17620  1.0000 0.5633809782
C   C83       1.0  0.78804  0.19694  0.13650  1.0000 -0.0194659012
C   C84       1.0  0.78010  0.15240  0.06010  1.0000 -0.0989081814
C   C85       1.0  0.75549  0.17809  0.02380  1.0000 -0.1540243917
C   C86       1.0  0.73808  0.24758  0.06390  1.0000 0.0734522665
C   C87       1.0  0.74441  0.29061  0.13900  1.0000 -0.1540243917
C   C88       1.0  0.76942  0.26492  0.17510  1.0000 -0.0989081814
C   C89       1.0  0.71485  0.27755  0.03010  1.0000 0.0757240966
C   C90       1.0  0.66382  0.32612  0.02690  1.0000 -0.1578782958
C   C91       1.0  0.39168  0.06788  0.14980  1.0000 0.5633809782
C   C92       1.0  0.40154  0.03804  0.09110  1.0000 -0.0194659012
C   C93       1.0  0.47000  0.03010  0.12770  1.0000 -0.0989081814
C   C94       1.0  0.48169  0.00549  0.07740  1.0000 -0.1540243917
C   C95       1.0  0.42418  0.98808  0.99050  1.0000 0.0734522665
C   C96       1.0  0.35541  0.99441  0.95380  1.0000 -0.1540243917
C   C97       1.0  0.34432  0.01942  0.00450  1.0000 -0.0989081814
C   C98       1.0  0.43475  0.96485  0.93730  1.0000 0.0757240966
C   C99       1.0  0.38692  0.91382  0.83770  1.0000 -0.1578782958
C   C100      1.0  0.91808  0.24188  0.85020  1.0000 0.5633809782
C   C101      1.0  0.94694  0.31044  0.90890  1.0000 -0.0194659012
C   C102      1.0  0.90240  0.34230  0.87230  1.0000 -0.0989081814
C   C103      1.0  0.92809  0.40429  0.92260  1.0000 -0.1578782958
C   C104      1.0  0.99758  0.43368  0.00950  1.0000 0.0734522665
C   C105      1.0  0.04061  0.40161  0.04620  1.0000 -0.1540243917
C   C106      1.0  0.01492  0.33982  0.99550  1.0000 -0.0989081814
C   C107      1.0  0.02755  0.49745  0.06270  1.0000 0.0757240966
C   C108      1.0  0.07612  0.54922  0.16230  1.0000 -0.1578782958
C   C109      1.0  0.93212  0.60832  0.85020  1.0000 0.5633809782
C   C110      1.0  0.96196  0.59846  0.90890  1.0000 -0.0194659012
C   C111      1.0  0.96990  0.53000  0.87230  1.0000 -0.0989081814
C   C112      1.0  0.99451  0.51831  0.92260  1.0000 -0.1578782958
C   C113      1.0  0.01192  0.57582  0.00950  1.0000 0.0734522665
C   C114      1.0  0.00559  0.64459  0.04620  1.0000 -0.1540243917
C   C115      1.0  0.98058  0.65568  0.99550  1.0000 -0.0989081814
C   C116      1.0  0.03515  0.56525  0.06270  1.0000 0.0757240966
C   C117      1.0  0.08618  0.61308  0.16230  1.0000 -0.1578782958
C   C118      1.0  0.75812  0.08192  0.14980  1.0000 0.5633809782
C   C119      1.0  0.68956  0.05306  0.09110  1.0000 -0.0194659012
C   C120      1.0  0.65770  0.09760  0.12770  1.0000 -0.0989081814
C   C121      1.0  0.59571  0.07191  0.07740  1.0000 -0.1540243917
C   C122      1.0  0.56632  0.00242  0.99050  1.0000 0.0734522665
C   C123      1.0  0.59839  0.95939  0.95380  1.0000 -0.1540243917
C   C124      1.0  0.66018  0.98508  0.00450  1.0000 -0.0989081814
C   C125      1.0  0.50255  0.97245  0.93730  1.0000 0.0757240966
C   C126      1.0  0.45078  0.92388  0.83770  1.0000 -0.1578782958
C   C127      1.0  0.83192  0.18212  0.82380  1.0000 0.5633809782
C   C128      1.0  0.80306  0.21196  0.86350  1.0000 -0.0194659012
C   C129      1.0  0.84760  0.21990  0.93990  1.0000 -0.0989081814
C   C130      1.0  0.82191  0.24451  0.97620  1.0000 -0.1540243917
C   C131      1.0  0.75242  0.26192  0.93610  1.0000 0.0734522665
C   C132      1.0  0.70939  0.25559  0.86100  1.0000 -0.1540243917
C   C133      1.0  0.73508  0.23058  0.82490  1.0000 -0.0989081814
C   C134      1.0  0.72245  0.28515  0.96990  1.0000 0.0757240966
C   C135      1.0  0.67388  0.33618  0.97310  1.0000 -0.1578782958
C   C136      1.0  0.35832  0.00812  0.17620  1.0000 0.5633809782
C   C137      1.0  0.34846  0.93956  0.13650  1.0000 -0.0194659012
C   C138      1.0  0.28000  0.90770  0.06010  1.0000 -0.0989081814
C   C139      1.0  0.26831  0.84571  0.02380  1.0000 -0.1578782958
C   C140      1.0  0.32582  0.81632  0.06390  1.0000 0.0734522665
C   C141      1.0  0.39459  0.84839  0.13900  1.0000 -0.1540243917
C   C142      1.0  0.40568  0.91018  0.17510  1.0000 -0.0989081814
C   C143      1.0  0.31525  0.75255  0.03010  1.0000 0.0757240966
C   C144      1.0  0.36308  0.70078  0.02690  1.0000 -0.1578782958
C   C145      1.0  0.88565  0.42375  0.53810  1.0000 0.060153884
C   C146      1.0  0.84857  0.38757  0.53900  1.0000 0.1930307812
C   C147      1.0  0.82791  0.40071  0.57280  1.0000 -0.183074695
C   C148      1.0  0.80848  0.34478  0.53630  1.0000 -0.1068746493
C   C149      1.0  0.88565  0.34755  0.46190  1.0000 0.060153884
C   C150      1.0  0.84857  0.30957  0.46100  1.0000 0.1930307812
C   C151      1.0  0.82791  0.25511  0.42720  1.0000 -0.183074695
C   C152      1.0  0.80848  0.27218  0.46370  1.0000 -0.1068746493
C   C153      1.0  0.17375  0.13565  0.03810  1.0000 0.060153884
C   C154      1.0  0.13757  0.09857  0.03900  1.0000 0.1930307812
C   C155      1.0  0.15071  0.07791  0.07280  1.0000 -0.183074695
C   C156      1.0  0.09478  0.05848  0.03630  1.0000 -0.1068746493
C   C157      1.0  0.09755  0.13565  0.96190  1.0000 0.060153884
C   C158      1.0  0.05957  0.09857  0.96100  1.0000 0.1930307812
C   C159      1.0  0.00511  0.07791  0.92720  1.0000 -0.183074695
C   C160      1.0  0.02218  0.05848  0.96370  1.0000 -0.1068746493
C   C161      1.0  0.86435  0.82625  0.96190  1.0000 0.060153884
C   C162      1.0  0.90143  0.86243  0.96100  1.0000 0.1930307812
C   C163      1.0  0.92209  0.84929  0.92720  1.0000 -0.183074695
C   C164      1.0  0.94152  0.90522  0.96370  1.0000 -0.1068746493
C   C165      1.0  0.86435  0.90245  0.03810  1.0000 0.060153884
C   C166      1.0  0.90143  0.94043  0.03900  1.0000 0.1930307812
C   C167      1.0  0.92209  0.99489  0.07280  1.0000 -0.183074695
C   C168      1.0  0.94152  0.97782  0.03630  1.0000 -0.1068746493
C   C169      1.0  0.65245  0.11435  0.53810  1.0000 0.060153884
C   C170      1.0  0.69043  0.15143  0.53900  1.0000 0.1930307812
C   C171      1.0  0.74489  0.17209  0.57280  1.0000 -0.183074695
C   C172      1.0  0.72782  0.19152  0.53630  1.0000 -0.1068746493
C   C173      1.0  0.57625  0.11435  0.46190  1.0000 0.060153884
C   C174      1.0  0.61243  0.15143  0.46100  1.0000 0.1930307812
C   C175      1.0  0.59929  0.17209  0.42720  1.0000 -0.183074695
C   C176      1.0  0.65522  0.19152  0.46370  1.0000 -0.1068746493
C   C177      1.0  0.39410  0.60590  0.50000  1.0000 -0.0194659012
C   C178      1.0  0.34100  0.65900  0.50000  1.0000 0.5786352373
C   C179      1.0  0.49370  0.50630  0.50000  1.0000 -0.1870394991
C   C180      1.0  0.10590  0.89410  0.50000  1.0000 -0.0194659012
C   C181      1.0  0.15900  0.84100  0.50000  1.0000 0.5786352373
C   C182      1.0  0.00630  0.99370  0.50000  1.0000 -0.1870394991
C   C183      1.0  0.35590  0.35590  0.71180  1.0000 -0.0194659012
C   C184      1.0  0.40900  0.40900  0.81800  1.0000 0.5786352373
C   C185      1.0  0.25630  0.25630  0.51260  1.0000 -0.1870394991
C   C186      1.0  0.64410  0.64410  0.28820  1.0000 -0.0194659012
C   C187      1.0  0.59100  0.59100  0.18200  1.0000 0.5786352373
C   C188      1.0  0.74370  0.74370  0.48740  1.0000 -0.1870394991
C   C189      1.0  0.35590  0.64410  0.00000  1.0000 -0.0194659012
C   C190      1.0  0.40900  0.59100  0.00000  1.0000 0.5786352373
C   C191      1.0  0.25630  0.74370  0.00000  1.0000 -0.1870394991
C   C192      1.0  0.64410  0.35590  0.00000  1.0000 -0.0194659012
C   C193      1.0  0.59100  0.40900  0.00000  1.0000 0.5786352373
C   C194      1.0  0.74370  0.25630  0.00000  1.0000 -0.1870394991
C   C195      1.0  0.39410  0.89410  0.78820  1.0000 -0.0194659012
C   C196      1.0  0.34100  0.84100  0.68200  1.0000 0.5786352373
C   C197      1.0  0.49370  0.99370  0.98740  1.0000 -0.1870394991
C   C198      1.0  0.10590  0.60590  0.21180  1.0000 -0.0194659012
C   C199      1.0  0.15900  0.65900  0.31800  1.0000 0.5786352373
C   C200      1.0  0.00630  0.50630  0.01260  1.0000 -0.1870394991
N   N1        1.0  0.86776  0.44066  0.57290  1.0000 -0.2485279822
N   N2        1.0  0.86776  0.29486  0.42710  1.0000 -0.2485279822
N   N3        1.0  0.19066  0.11776  0.07290  1.0000 -0.2485279822
N   N4        1.0  0.04486  0.11776  0.92710  1.0000 -0.2485279822
N   N5        1.0  0.88224  0.80934  0.92710  1.0000 -0.2485279822
N   N6        1.0  0.88224  0.95514  0.07290  1.0000 -0.2485279822
N   N7        1.0  0.70514  0.13224  0.57290  1.0000 -0.2485279822
N   N8        1.0  0.55934  0.13224  0.42710  1.0000 -0.2485279822
O   O1        1.0  0.78559  0.67119  0.74820  1.0000 -0.4921396252
O   O2        1.0  0.77982  0.55302  0.63360  1.0000 -0.5055703306
O   O3        1.0  0.33857  0.69865  0.49990  1.0000 -0.5177453839
O   O4        1.0  0.92299  0.03739  0.25180  1.0000 -0.4921396252
O   O5        1.0  0.91942  0.14622  0.36640  1.0000 -0.5055703306
O   O6        1.0  0.19875  0.83867  0.50010  1.0000 -0.5177453839
O   O7        1.0  0.42119  0.17299  0.38560  1.0000 -0.4921396252
O   O8        1.0  0.30302  0.16942  0.27320  1.0000 -0.5055703306
O   O9        1.0  0.44865  0.44875  0.86008  1.0000 -0.5177453839
O   O10       1.0  0.78739  0.03559  0.61440  1.0000 -0.4921396252
O   O11       1.0  0.89622  0.02982  0.72680  1.0000 -0.5055703306
O   O12       1.0  0.58867  0.58857  0.13992  1.0000 -0.5177453839
O   O13       1.0  0.82701  0.57881  0.61440  1.0000 -0.4921396252
O   O14       1.0  0.83058  0.69698  0.72680  1.0000 -0.5055703306
O   O15       1.0  0.55125  0.55135  0.13992  1.0000 -0.5177453839
O   O16       1.0  0.96441  0.21261  0.38560  1.0000 -0.4921396252
O   O17       1.0  0.97018  0.10378  0.27320  1.0000 -0.5055703306
O   O18       1.0  0.41143  0.41133  0.86008  1.0000 -0.5177453839
O   O19       1.0  0.96261  0.07701  0.74820  1.0000 -0.4921396252
O   O20       1.0  0.85378  0.08058  0.63360  1.0000 -0.5055703306
O   O21       1.0  0.16133  0.80125  0.49990  1.0000 -0.5177453839
O   O22       1.0  0.32881  0.21441  0.25180  1.0000 -0.4921396252
O   O23       1.0  0.44698  0.22018  0.36640  1.0000 -0.5055703306
O   O24       1.0  0.30135  0.66143  0.50010  1.0000 -0.5177453839
O   O25       1.0  0.96441  0.57881  0.75180  1.0000 -0.4921396252
O   O26       1.0  0.97018  0.69698  0.86640  1.0000 -0.5055703306
O   O27       1.0  0.41143  0.55135  0.00010  1.0000 -0.5177453839
O   O28       1.0  0.82701  0.21261  0.24820  1.0000 -0.4921396252
O   O29       1.0  0.83058  0.10378  0.13360  1.0000 -0.5055703306
O   O30       1.0  0.55125  0.41133  0.99990  1.0000 -0.5177453839
O   O31       1.0  0.32881  0.07701  0.11440  1.0000 -0.4921396252
O   O32       1.0  0.44698  0.08058  0.22680  1.0000 -0.5055703306
O   O33       1.0  0.30135  0.80125  0.63992  1.0000 -0.5177453839
O   O34       1.0  0.96261  0.21441  0.88560  1.0000 -0.4921396252
O   O35       1.0  0.85378  0.22018  0.77320  1.0000 -0.5055703306
O   O36       1.0  0.16133  0.66143  0.36008  1.0000 -0.5177453839
O   O37       1.0  0.92299  0.67119  0.88560  1.0000 -0.4921396252
O   O38       1.0  0.91942  0.55302  0.77320  1.0000 -0.5055703306
O   O39       1.0  0.19875  0.69865  0.36008  1.0000 -0.5177453839
O   O40       1.0  0.78559  0.03739  0.11440  1.0000 -0.4921396252
O   O41       1.0  0.77982  0.14622  0.22680  1.0000 -0.5055703306
O   O42       1.0  0.33857  0.83867  0.63992  1.0000 -0.5177453839
O   O43       1.0  0.78739  0.17299  0.75180  1.0000 -0.4921396252
O   O44       1.0  0.89622  0.16942  0.86640  1.0000 -0.5055703306
O   O45       1.0  0.58867  0.44875  0.00010  1.0000 -0.5177453839
O   O46       1.0  0.42119  0.03559  0.24820  1.0000 -0.4921396252
O   O47       1.0  0.30302  0.02982  0.13360  1.0000 -0.5055703306
O   O48       1.0  0.44865  0.58857  0.99990  1.0000 -0.5177453839
