# DDEC6 charges by PACMAN v1.1 (https://github.com/mtap-research/PACMAN-charge/)
data_2018[Cu][fes]2[ASR]1
_chemical_formula_sum              "Cu4 H20 C36 N16 F24"
_cell_length_a       9.8425
_cell_length_b       12.2763
_cell_length_c       13.213
_cell_angle_alpha    83.306
_cell_angle_beta     85.895
_cell_angle_gamma    75.71

_symmetry_space_group_name_H-M    "P 1"
_symmetry_Int_Tables_number       1

loop_
  _symmetry_equiv_pos_as_xyz
  'x, y, z'

loop_
  _atom_site_type_symbol
  _atom_site_label
  _atom_site_symmetry_multiplicity
  _atom_site_fract_x
  _atom_site_fract_y
  _atom_site_fract_z
  _atom_site_occupancy
  _atom_site_charge
Cu  Cu1       1.0  0.38038  0.59956  0.22900  1.0000 0.2515847528
Cu  Cu2       1.0  0.22229  0.78055  0.39076  1.0000 0.2598554039
Cu  Cu3       1.0  0.61962  0.40044  0.77100  1.0000 0.2515847528
Cu  Cu4       1.0  0.77771  0.21945  0.60924  1.0000 0.2598554039
H   H1        1.0  0.89290  0.53460  0.32230  1.0000 0.1275572919
H   H2        1.0  0.63260  0.92190  0.21180  1.0000 0.1388148138
H   H3        1.0  0.62610  0.57240  0.36540  1.0000 0.1084797525
H   H4        1.0  0.75990  0.44640  0.48290  1.0000 0.1084797525
H   H5        1.0  0.53660  0.22800  0.45820  1.0000 0.1188275419
H   H6        1.0  0.40480  0.35240  0.33850  1.0000 0.1084797525
H   H7        1.0  0.14860  0.86350  0.59700  1.0000 0.1188275419
H   H8        1.0  0.00370  0.99160  0.32890  1.0000 0.1188275419
H   H9        1.0  0.59830  0.40690  0.14560  1.0000 0.1188275419
H   H10       1.0  0.31320  0.65100  0.00930  1.0000 0.1275572919
H   H11       1.0  0.10710  0.46540  0.67770  1.0000 0.1275572919
H   H12       1.0  0.36740  0.07810  0.78820  1.0000 0.1388148138
H   H13       1.0  0.37390  0.42760  0.63460  1.0000 0.1084797525
H   H14       1.0  0.24010  0.55360  0.51710  1.0000 0.1084797525
H   H15       1.0  0.46340  0.77200  0.54180  1.0000 0.1188275419
H   H16       1.0  0.59520  0.64760  0.66150  1.0000 0.1188275419
H   H17       1.0  0.85140  0.13650  0.40300  1.0000 0.1188275419
H   H18       1.0  0.99630  0.00840  0.67110  1.0000 0.1188275419
H   H19       1.0  0.40170  0.59310  0.85440  1.0000 0.1188275419
H   H20       1.0  0.68680  0.34900  0.99070  1.0000 0.1275572919
C   C1        1.0  0.09210  0.54040  0.25860  1.0000 -0.0157378872
C   C2        1.0  0.97230  0.56600  0.31930  1.0000 -0.2186252168
C   C3        1.0  0.99390  0.64780  0.37460  1.0000 -0.0286897933
C   C4        1.0  0.12320  0.45800  0.18090  1.0000 0.6309342229
C   C5        1.0  0.89780  0.70750  0.45290  1.0000 0.6374444508
C   C6        1.0  0.56610  0.77500  0.19850  1.0000 -0.0286897933
C   C7        1.0  0.56640  0.87740  0.22980  1.0000 -0.2011394786
C   C8        1.0  0.44790  0.90070  0.29350  1.0000 -0.0286897933
C   C9        1.0  0.66820  0.71100  0.12630  1.0000 0.6309342229
C   C10       1.0  0.39360  0.00240  0.34790  1.0000 0.6374444508
C   C11       1.0  0.60620  0.50045  0.38302  1.0000 0.0297694111
C   C12       1.0  0.68610  0.42495  0.45379  1.0000 0.0166663407
C   C13       1.0  0.55800  0.29920  0.43930  1.0000 0.0166663407
C   C14       1.0  0.47840  0.37390  0.36782  1.0000 0.0166663407
C   C15       1.0  0.08720  0.91970  0.55494  1.0000 0.0297694111
C   C16       1.0  0.00390  0.99330  0.40055  1.0000 0.0297694111
C   C17       1.0  0.55580  0.44720  0.08557  1.0000 0.0297694111
C   C18       1.0  0.39150  0.58790  0.00722  1.0000 0.0297694111
C   C19       1.0  0.90790  0.45960  0.74140  1.0000 -0.0157378872
C   C20       1.0  0.02770  0.43400  0.68070  1.0000 -0.2186252168
C   C21       1.0  0.00610  0.35220  0.62540  1.0000 -0.0286897933
C   C22       1.0  0.87680  0.54200  0.81910  1.0000 0.6309342229
C   C23       1.0  0.10220  0.29250  0.54710  1.0000 0.6374444508
C   C24       1.0  0.43390  0.22500  0.80150  1.0000 -0.0286897933
C   C25       1.0  0.43360  0.12260  0.77020  1.0000 -0.2011394786
C   C26       1.0  0.55210  0.09930  0.70650  1.0000 -0.0286897933
C   C27       1.0  0.33180  0.28900  0.87370  1.0000 0.6309342229
C   C28       1.0  0.60640  0.99760  0.65210  1.0000 0.6374444508
C   C29       1.0  0.39380  0.49955  0.61698  1.0000 0.0297694111
C   C30       1.0  0.31390  0.57505  0.54621  1.0000 0.0166663407
C   C31       1.0  0.44200  0.70080  0.56070  1.0000 0.0166663407
C   C32       1.0  0.52160  0.62610  0.63218  1.0000 0.0166663407
C   C33       1.0  0.91280  0.08030  0.44506  1.0000 0.0297694111
C   C34       1.0  0.99610  0.00670  0.59945  1.0000 0.0297694111
C   C35       1.0  0.44420  0.55280  0.91443  1.0000 0.0297694111
C   C36       1.0  0.60850  0.41210  0.99278  1.0000 0.0297694111
N   N1        1.0  0.18164  0.60245  0.27539  1.0000 -0.1702668392
N   N2        1.0  0.11976  0.67089  0.34864  1.0000 -0.1757288135
N   N3        1.0  0.45380  0.73804  0.24007  1.0000 -0.1702668392
N   N4        1.0  0.38000  0.81692  0.30010  1.0000 -0.1702668392
N   N5        1.0  0.50186  0.47575  0.33858  1.0000 -0.1869222826
N   N6        1.0  0.66387  0.32288  0.48305  1.0000 -0.1869222826
N   N7        1.0  0.09250  0.91118  0.45467  1.0000 -0.1702668392
N   N8        1.0  0.44660  0.53616  0.09467  1.0000 -0.1702668392
N   N9        1.0  0.81836  0.39755  0.72461  1.0000 -0.1649402237
N   N10       1.0  0.88024  0.32911  0.65136  1.0000 -0.1757288135
N   N11       1.0  0.54620  0.26196  0.75993  1.0000 -0.1702668392
N   N12       1.0  0.62000  0.18308  0.69990  1.0000 -0.1702668392
N   N13       1.0  0.49814  0.52425  0.66142  1.0000 -0.1869222826
N   N14       1.0  0.33613  0.67712  0.51695  1.0000 -0.1869222826
N   N15       1.0  0.90750  0.08882  0.54533  1.0000 -0.1702668392
N   N16       1.0  0.55340  0.46384  0.90533  1.0000 -0.1702668392
F   F1        1.0  0.24480  0.38168  0.19407  1.0000 -0.2098321533
F   F2        1.0  0.13080  0.50651  0.08635  1.0000 -0.2098321533
F   F3        1.0  0.02330  0.40136  0.18506  1.0000 -0.2011394786
F   F4        1.0  0.95992  0.70875  0.53931  1.0000 -0.2098321533
F   F5        1.0  0.83884  0.81451  0.42180  1.0000 -0.2011394786
F   F6        1.0  0.79100  0.65728  0.47808  1.0000 -0.2186252168
F   F7        1.0  0.71503  0.60133  0.15974  1.0000 -0.2186252168
F   F8        1.0  0.61720  0.71275  0.03472  1.0000 -0.2098321533
F   F9        1.0  0.78200  0.75280  0.11089  1.0000 -0.2011394786
F   F10       1.0  0.37390  0.98026  0.44848  1.0000 -0.2186252168
F   F11       1.0  0.26970  0.06420  0.31438  1.0000 -0.2098321533
F   F12       1.0  0.48200  0.07055  0.33450  1.0000 -0.2186252168
F   F13       1.0  0.75520  0.61832  0.80593  1.0000 -0.2098321533
F   F14       1.0  0.86920  0.49349  0.91365  1.0000 -0.2098321533
F   F15       1.0  0.97670  0.59864  0.81494  1.0000 -0.2011394786
F   F16       1.0  0.04008  0.29125  0.46069  1.0000 -0.2098321533
F   F17       1.0  0.16116  0.18549  0.57820  1.0000 -0.2011394786
F   F18       1.0  0.20900  0.34272  0.52192  1.0000 -0.2186252168
F   F19       1.0  0.28497  0.39867  0.84026  1.0000 -0.2186252168
F   F20       1.0  0.38280  0.28725  0.96528  1.0000 -0.2098321533
F   F21       1.0  0.21800  0.24720  0.88911  1.0000 -0.2011394786
F   F22       1.0  0.62610  0.01974  0.55152  1.0000 -0.2186252168
F   F23       1.0  0.73030  0.93580  0.68562  1.0000 -0.2098321533
F   F24       1.0  0.51800  0.92945  0.66550  1.0000 -0.2186252168
