# DDEC6 charges by PACMAN v1.1 (https://github.com/mtap-research/PACMAN-charge/)
data_2018[In][nan]2[ASR]1
_chemical_formula_sum              "In4 H56 C112 N8 O24"
_cell_length_a       7.0363
_cell_length_b       33.4145
_cell_length_c       14.3602
_cell_angle_alpha    90
_cell_angle_beta     105.946
_cell_angle_gamma    90

_symmetry_space_group_name_H-M    "P 1"
_symmetry_Int_Tables_number       1

loop_
  _symmetry_equiv_pos_as_xyz
  'x, y, z'

loop_
  _atom_site_type_symbol
  _atom_site_label
  _atom_site_symmetry_multiplicity
  _atom_site_fract_x
  _atom_site_fract_y
  _atom_site_fract_z
  _atom_site_occupancy
  _atom_site_charge
In  In1       1.0  0.17187  0.17168  0.20173  1.0000 1.3422036697
In  In2       1.0  0.82813  0.67168  0.29827  1.0000 1.3422036697
In  In3       1.0  0.82813  0.82832  0.79827  1.0000 1.3422036697
In  In4       1.0  0.17187  0.32832  0.70173  1.0000 1.3422036697
H   H1        1.0  0.49270  0.19450  0.76850  1.0000 0.1292348434
H   H2        1.0  0.17210  0.18830  0.82220  1.0000 0.1292348434
H   H3        1.0  0.76380  0.11320  0.64560  1.0000 0.1205663276
H   H4        1.0  0.85510  0.16340  0.35960  1.0000 0.1393088951
H   H5        1.0  0.82280  0.09580  0.93320  1.0000 0.1205663276
H   H6        1.0  0.49540  0.13300  0.52030  1.0000 0.1292348434
H   H7        1.0  0.65400  0.03840  0.94870  1.0000 0.1110804877
H   H8        1.0  0.66820  0.25070  0.74350  1.0000 0.1393088951
H   H9        1.0  0.12530  0.14750  0.48680  1.0000 0.1292348434
H   H10       1.0  0.33460  0.91620  0.84380  1.0000 0.1393088951
H   H11       1.0  0.03550  0.03770  0.86490  1.0000 0.1292348434
H   H12       1.0  0.00450  0.13320  0.85430  1.0000 0.1205663276
H   H13       1.0  0.86470  0.97870  0.86690  1.0000 0.1205663276
H   H14       1.0  0.51030  0.97500  0.84980  1.0000 0.1205663276
H   H15       1.0  0.50730  0.69450  0.73150  1.0000 0.1292348434
H   H16       1.0  0.82790  0.68830  0.67780  1.0000 0.1292348434
H   H17       1.0  0.23620  0.61320  0.85440  1.0000 0.1205663276
H   H18       1.0  0.14490  0.66340  0.14040  1.0000 0.1393088951
H   H19       1.0  0.17720  0.59580  0.56680  1.0000 0.1205663276
H   H20       1.0  0.50460  0.63300  0.97970  1.0000 0.1292348434
H   H21       1.0  0.34600  0.53840  0.55130  1.0000 0.1110804877
H   H22       1.0  0.33180  0.75070  0.75650  1.0000 0.1393088951
H   H23       1.0  0.87470  0.64750  0.01320  1.0000 0.1292348434
H   H24       1.0  0.66540  0.41620  0.65620  1.0000 0.1393088951
H   H25       1.0  0.96450  0.53770  0.63510  1.0000 0.1292348434
H   H26       1.0  0.99550  0.63320  0.64570  1.0000 0.1205663276
H   H27       1.0  0.13530  0.47870  0.63310  1.0000 0.1205663276
H   H28       1.0  0.48970  0.47500  0.65020  1.0000 0.1205663276
H   H29       1.0  0.50730  0.80550  0.23150  1.0000 0.1292348434
H   H30       1.0  0.82790  0.81170  0.17780  1.0000 0.1292348434
H   H31       1.0  0.23620  0.88680  0.35440  1.0000 0.1205663276
H   H32       1.0  0.14490  0.83660  0.64040  1.0000 0.1393088951
H   H33       1.0  0.17720  0.90420  0.06680  1.0000 0.1205663276
H   H34       1.0  0.50460  0.86700  0.47970  1.0000 0.1292348434
H   H35       1.0  0.34600  0.96160  0.05130  1.0000 0.1110804877
H   H36       1.0  0.33180  0.74930  0.25650  1.0000 0.1393088951
H   H37       1.0  0.87470  0.85250  0.51320  1.0000 0.1292348434
H   H38       1.0  0.66540  0.08380  0.15620  1.0000 0.1393088951
H   H39       1.0  0.96450  0.96230  0.13510  1.0000 0.1292348434
H   H40       1.0  0.99550  0.86680  0.14570  1.0000 0.1205663276
H   H41       1.0  0.13530  0.02130  0.13310  1.0000 0.1205663276
H   H42       1.0  0.48970  0.02500  0.15020  1.0000 0.1205663276
H   H43       1.0  0.49270  0.30550  0.26850  1.0000 0.1292348434
H   H44       1.0  0.17210  0.31170  0.32220  1.0000 0.1292348434
H   H45       1.0  0.76380  0.38680  0.14560  1.0000 0.1205663276
H   H46       1.0  0.85510  0.33660  0.85960  1.0000 0.1393088951
H   H47       1.0  0.82280  0.40420  0.43320  1.0000 0.1205663276
H   H48       1.0  0.49540  0.36700  0.02030  1.0000 0.1292348434
H   H49       1.0  0.65400  0.46160  0.44870  1.0000 0.1110804877
H   H50       1.0  0.66820  0.24930  0.24350  1.0000 0.1393088951
H   H51       1.0  0.12530  0.35250  0.98680  1.0000 0.1292348434
H   H52       1.0  0.33460  0.58380  0.34380  1.0000 0.1393088951
H   H53       1.0  0.03550  0.46230  0.36490  1.0000 0.1292348434
H   H54       1.0  0.00450  0.36680  0.35430  1.0000 0.1205663276
H   H55       1.0  0.86470  0.52130  0.36690  1.0000 0.1205663276
H   H56       1.0  0.51030  0.52500  0.34980  1.0000 0.1205663276
C   C1        1.0  0.61550  0.12136  0.82370  1.0000 0.0265943128
C   C2        1.0  0.64710  0.14864  0.42750  1.0000 -0.0119774802
C   C3        1.0  0.62920  0.19311  0.77970  1.0000 -0.118719637
C   C4        1.0  0.04430  0.25969  0.75270  1.0000 0.5501262476
C   C5        1.0  0.28830  0.01276  0.85590  1.0000 0.0843309963
C   C6        1.0  0.42335  0.11415  0.76595  1.0000 0.0843309963
C   C7        1.0  0.03580  0.18961  0.81150  1.0000 -0.0896799988
C   C8        1.0  0.78290  0.12358  0.58870  1.0000 -0.111390512
C   C9        1.0  0.31661  0.07998  0.78071  1.0000 0.1110804877
C   C10       1.0  0.97270  0.12801  0.57850  1.0000 0.0472236308
C   C11       1.0  0.83710  0.15355  0.41710  1.0000 -0.0815022313
C   C12       1.0  0.69570  0.09214  0.89280  1.0000 -0.1576147913
C   C13       1.0  0.93810  0.22448  0.77750  1.0000 -0.0180881224
C   C14       1.0  0.14610  0.11572  0.65810  1.0000 0.3157103141
C   C15       1.0  0.62220  0.13486  0.51280  1.0000 -0.0896799988
C   C16       1.0  0.59130  0.05744  0.90350  1.0000 -0.1576147913
C   C17       1.0  0.73440  0.22675  0.76360  1.0000 -0.0815022313
C   C18       1.0  0.99830  0.14365  0.49290  1.0000 -0.111390512
C   C19       1.0  0.72970  0.15720  0.81270  1.0000 0.0843309963
C   C20       1.0  0.27420  0.94062  0.84840  1.0000 -0.0896799988
C   C21       1.0  0.09690  0.01337  0.86120  1.0000 -0.1317653279
C   C22       1.0  0.93490  0.15635  0.83000  1.0000 -0.1381052281
C   C23       1.0  0.39860  0.05053  0.84930  1.0000 0.0177881815
C   C24       1.0  0.07770  0.94150  0.85240  1.0000 -0.0119774802
C   C25       1.0  0.99310  0.97782  0.86110  1.0000 -0.102127261
C   C26       1.0  0.96610  0.90260  0.84310  1.0000 0.540970989
C   C27       1.0  0.37890  0.97587  0.85110  1.0000 -0.1381052281
C   C28       1.0  0.47240  0.15739  0.34420  1.0000 0.5501262476
C   C29       1.0  0.38450  0.62136  0.67630  1.0000 0.0265943128
C   C30       1.0  0.35290  0.64864  0.07250  1.0000 -0.0119774802
C   C31       1.0  0.37080  0.69311  0.72030  1.0000 -0.118719637
C   C32       1.0  0.95570  0.75969  0.74730  1.0000 0.5501262476
C   C33       1.0  0.71170  0.51276  0.64410  1.0000 0.0843309963
C   C34       1.0  0.57665  0.61415  0.73405  1.0000 0.0843309963
C   C35       1.0  0.96420  0.68961  0.68850  1.0000 -0.0896799988
C   C36       1.0  0.21710  0.62358  0.91130  1.0000 -0.111390512
C   C37       1.0  0.68339  0.57998  0.71929  1.0000 0.1110804877
C   C38       1.0  0.02730  0.62801  0.92150  1.0000 0.0472236308
C   C39       1.0  0.16290  0.65355  0.08290  1.0000 -0.0815022313
C   C40       1.0  0.30430  0.59214  0.60720  1.0000 -0.1576147913
C   C41       1.0  0.06190  0.72448  0.72250  1.0000 -0.0180881224
C   C42       1.0  0.85390  0.61572  0.84190  1.0000 0.3157103141
C   C43       1.0  0.37780  0.63486  0.98720  1.0000 -0.0896799988
C   C44       1.0  0.40870  0.55744  0.59650  1.0000 -0.1576147913
C   C45       1.0  0.26560  0.72675  0.73640  1.0000 -0.0815022313
C   C46       1.0  0.00170  0.64365  0.00710  1.0000 -0.111390512
C   C47       1.0  0.27030  0.65720  0.68730  1.0000 0.0843309963
C   C48       1.0  0.72580  0.44062  0.65160  1.0000 -0.0896799988
C   C49       1.0  0.90310  0.51337  0.63880  1.0000 -0.1317653279
C   C50       1.0  0.06510  0.65635  0.67000  1.0000 -0.1381052281
C   C51       1.0  0.60140  0.55053  0.65070  1.0000 0.0177881815
C   C52       1.0  0.92230  0.44150  0.64760  1.0000 -0.0119774802
C   C53       1.0  0.00690  0.47782  0.63890  1.0000 -0.102127261
C   C54       1.0  0.03390  0.40260  0.65690  1.0000 0.540970989
C   C55       1.0  0.62110  0.47587  0.64890  1.0000 -0.1381052281
C   C56       1.0  0.52760  0.65739  0.15580  1.0000 0.5501262476
C   C57       1.0  0.38450  0.87864  0.17630  1.0000 0.0265943128
C   C58       1.0  0.35290  0.85136  0.57250  1.0000 -0.0119774802
C   C59       1.0  0.37080  0.80689  0.22030  1.0000 -0.118719637
C   C60       1.0  0.95570  0.74031  0.24730  1.0000 0.5501262476
C   C61       1.0  0.71170  0.98724  0.14410  1.0000 0.0843309963
C   C62       1.0  0.57665  0.88585  0.23405  1.0000 0.0843309963
C   C63       1.0  0.96420  0.81039  0.18850  1.0000 -0.0896799988
C   C64       1.0  0.21710  0.87642  0.41130  1.0000 -0.111390512
C   C65       1.0  0.68339  0.92002  0.21929  1.0000 0.1110804877
C   C66       1.0  0.02730  0.87199  0.42150  1.0000 0.0472236308
C   C67       1.0  0.16290  0.84645  0.58290  1.0000 -0.0815022313
C   C68       1.0  0.30430  0.90786  0.10720  1.0000 -0.1576147913
C   C69       1.0  0.06190  0.77552  0.22250  1.0000 -0.0180881224
C   C70       1.0  0.85390  0.88428  0.34190  1.0000 0.3157103141
C   C71       1.0  0.37780  0.86514  0.48720  1.0000 -0.0896799988
C   C72       1.0  0.40870  0.94256  0.09650  1.0000 -0.1576147913
C   C73       1.0  0.26560  0.77325  0.23640  1.0000 -0.0815022313
C   C74       1.0  0.00170  0.85635  0.50710  1.0000 -0.111390512
C   C75       1.0  0.27030  0.84280  0.18730  1.0000 0.0843309963
C   C76       1.0  0.72580  0.05938  0.15160  1.0000 -0.0896799988
C   C77       1.0  0.90310  0.98663  0.13880  1.0000 -0.1317653279
C   C78       1.0  0.06510  0.84365  0.17000  1.0000 -0.1381052281
C   C79       1.0  0.60140  0.94947  0.15070  1.0000 0.0177881815
C   C80       1.0  0.92230  0.05850  0.14760  1.0000 -0.0119774802
C   C81       1.0  0.00690  0.02218  0.13890  1.0000 -0.102127261
C   C82       1.0  0.03390  0.09740  0.15690  1.0000 0.540970989
C   C83       1.0  0.62110  0.02413  0.14890  1.0000 -0.1381052281
C   C84       1.0  0.52760  0.84261  0.65580  1.0000 0.5501262476
C   C85       1.0  0.61550  0.37864  0.32370  1.0000 0.0265943128
C   C86       1.0  0.64710  0.35136  0.92750  1.0000 -0.0119774802
C   C87       1.0  0.62920  0.30689  0.27970  1.0000 -0.118719637
C   C88       1.0  0.04430  0.24031  0.25270  1.0000 0.5501262476
C   C89       1.0  0.28830  0.48724  0.35590  1.0000 0.0843309963
C   C90       1.0  0.42335  0.38585  0.26595  1.0000 0.0843309963
C   C91       1.0  0.03580  0.31039  0.31150  1.0000 -0.0896799988
C   C92       1.0  0.78290  0.37642  0.08870  1.0000 -0.111390512
C   C93       1.0  0.31661  0.42002  0.28071  1.0000 0.1110804877
C   C94       1.0  0.97270  0.37199  0.07850  1.0000 0.0472236308
C   C95       1.0  0.83710  0.34645  0.91710  1.0000 -0.0815022313
C   C96       1.0  0.69570  0.40786  0.39280  1.0000 -0.1576147913
C   C97       1.0  0.93810  0.27552  0.27750  1.0000 -0.0180881224
C   C98       1.0  0.14610  0.38428  0.15810  1.0000 0.3157103141
C   C99       1.0  0.62220  0.36514  0.01280  1.0000 -0.0896799988
C   C100      1.0  0.59130  0.44256  0.40350  1.0000 -0.1576147913
C   C101      1.0  0.73440  0.27325  0.26360  1.0000 -0.0815022313
C   C102      1.0  0.99830  0.35635  0.99290  1.0000 -0.111390512
C   C103      1.0  0.72970  0.34280  0.31270  1.0000 0.0843309963
C   C104      1.0  0.27420  0.55938  0.34840  1.0000 -0.0896799988
C   C105      1.0  0.09690  0.48663  0.36120  1.0000 -0.1317653279
C   C106      1.0  0.93490  0.34365  0.33000  1.0000 -0.1381052281
C   C107      1.0  0.39860  0.44947  0.34930  1.0000 0.0177881815
C   C108      1.0  0.07770  0.55850  0.35240  1.0000 -0.0119774802
C   C109      1.0  0.99310  0.52218  0.36110  1.0000 -0.102127261
C   C110      1.0  0.96610  0.59740  0.34310  1.0000 0.540970989
C   C111      1.0  0.37890  0.52413  0.35110  1.0000 -0.1381052281
C   C112      1.0  0.47240  0.34261  0.84420  1.0000 0.5501262476
N   N1        1.0  0.31034  0.13581  0.68724  1.0000 -0.3793470259
N   N2        1.0  0.13779  0.08190  0.71169  1.0000 -0.4020599122
N   N3        1.0  0.68966  0.63581  0.81276  1.0000 -0.3793470259
N   N4        1.0  0.86221  0.58190  0.78831  1.0000 -0.4020599122
N   N5        1.0  0.68966  0.86419  0.31276  1.0000 -0.3793470259
N   N6        1.0  0.86221  0.91810  0.28831  1.0000 -0.4020599122
N   N7        1.0  0.31034  0.36419  0.18724  1.0000 -0.3793470259
N   N8        1.0  0.13779  0.41810  0.21169  1.0000 -0.4020599122
O   O1        1.0  0.49618  0.16838  0.26408  1.0000 -0.5029873024
O   O2        1.0  0.30194  0.15300  0.35444  1.0000 -0.5125486995
O   O3        1.0  0.93776  0.28999  0.71566  1.0000 -0.5214583497
O   O4        1.0  0.22712  0.26057  0.76572  1.0000 -0.5304796393
O   O5        1.0  0.06001  0.87137  0.83421  1.0000 -0.5125486995
O   O6        1.0  0.78929  0.90177  0.84069  1.0000 -0.5304796393
O   O7        1.0  0.50382  0.66838  0.23592  1.0000 -0.5029873024
O   O8        1.0  0.69806  0.65300  0.14556  1.0000 -0.5125486995
O   O9        1.0  0.06224  0.78999  0.78434  1.0000 -0.5214583497
O   O10       1.0  0.77288  0.76057  0.73428  1.0000 -0.5304796393
O   O11       1.0  0.93999  0.37137  0.66579  1.0000 -0.5125486995
O   O12       1.0  0.21071  0.40177  0.65931  1.0000 -0.5304796393
O   O13       1.0  0.50382  0.83162  0.73592  1.0000 -0.5029873024
O   O14       1.0  0.69806  0.84700  0.64556  1.0000 -0.5125486995
O   O15       1.0  0.06224  0.71001  0.28434  1.0000 -0.5214583497
O   O16       1.0  0.77288  0.73943  0.23428  1.0000 -0.5304796393
O   O17       1.0  0.93999  0.12863  0.16579  1.0000 -0.5125486995
O   O18       1.0  0.21071  0.09823  0.15931  1.0000 -0.5304796393
O   O19       1.0  0.49618  0.33162  0.76408  1.0000 -0.5029873024
O   O20       1.0  0.30194  0.34700  0.85444  1.0000 -0.5125486995
O   O21       1.0  0.93776  0.21001  0.21566  1.0000 -0.5214583497
O   O22       1.0  0.22712  0.23943  0.26572  1.0000 -0.5304796393
O   O23       1.0  0.06001  0.62863  0.33421  1.0000 -0.5125486995
O   O24       1.0  0.78929  0.59823  0.34069  1.0000 -0.5304796393
