# DDEC6 charges by PACMAN v1.1 (https://github.com/mtap-research/PACMAN-charge/)
data_2018[Eu][bcu]3[ASR]1
_chemical_formula_sum              "Eu8 H84 C128 N4 O56"
_cell_length_a       14.4122
_cell_length_b       19.326
_cell_length_c       24.213
_cell_angle_alpha    90
_cell_angle_beta     90
_cell_angle_gamma    90

_symmetry_space_group_name_H-M    "P 1"
_symmetry_Int_Tables_number       1

loop_
  _symmetry_equiv_pos_as_xyz
  'x, y, z'

loop_
  _atom_site_type_symbol
  _atom_site_label
  _atom_site_symmetry_multiplicity
  _atom_site_fract_x
  _atom_site_fract_y
  _atom_site_fract_z
  _atom_site_occupancy
  _atom_site_charge
Eu  Eu1       1.0  0.72686  0.00000  0.48375  1.0000 2.0788347938
Eu  Eu2       1.0  0.27314  0.00000  0.51625  1.0000 2.0788347938
Eu  Eu3       1.0  0.22686  0.50000  0.01625  1.0000 2.0788347938
Eu  Eu4       1.0  0.77314  0.50000  0.98375  1.0000 2.0788347938
Eu  Eu5       1.0  0.50000  0.10481  0.50000  1.0000 2.1025455812
Eu  Eu6       1.0  0.00000  0.39519  0.00000  1.0000 2.1025455812
Eu  Eu7       1.0  0.50000  0.89519  0.50000  1.0000 2.1025455812
Eu  Eu8       1.0  0.00000  0.60481  0.00000  1.0000 2.1025455812
H   H1        1.0  0.84510  0.85290  0.63620  1.0000 0.1292485449
H   H2        1.0  0.56250  0.79650  0.71760  1.0000 0.1207164073
H   H3        1.0  0.56680  0.85770  0.63520  1.0000 0.1292485449
H   H4        1.0  0.91640  0.70310  0.82930  1.0000 0.1292485449
H   H5        1.0  0.66280  0.66330  0.88290  1.0000 0.1292485449
H   H6        1.0  0.59680  0.72480  0.81060  1.0000 0.1207164073
H   H7        1.0  0.94490  0.69430  0.72500  1.0000 0.1207164073
H   H8        1.0  0.86030  0.69600  0.68430  1.0000 0.1292485449
H   H9        1.0  0.94800  0.74150  0.67240  1.0000 0.1292485449
H   H10       1.0  0.89430  0.86440  0.77320  1.0000 0.352921843
H   H11       1.0  0.15490  0.85290  0.36380  1.0000 0.1292485449
H   H12       1.0  0.43750  0.79650  0.28240  1.0000 0.1207164073
H   H13       1.0  0.43320  0.85770  0.36480  1.0000 0.1292485449
H   H14       1.0  0.08360  0.70310  0.17070  1.0000 0.1292485449
H   H15       1.0  0.33720  0.66330  0.11710  1.0000 0.1292485449
H   H16       1.0  0.40320  0.72480  0.18940  1.0000 0.1207164073
H   H17       1.0  0.05510  0.69430  0.27500  1.0000 0.1207164073
H   H18       1.0  0.13970  0.69600  0.31570  1.0000 0.1292485449
H   H19       1.0  0.05200  0.74150  0.32760  1.0000 0.1292485449
H   H20       1.0  0.10570  0.86440  0.22680  1.0000 0.352921843
H   H21       1.0  0.34510  0.64710  0.86380  1.0000 0.1292485449
H   H22       1.0  0.06250  0.70350  0.78240  1.0000 0.1207164073
H   H23       1.0  0.06680  0.64230  0.86480  1.0000 0.1292485449
H   H24       1.0  0.41640  0.79690  0.67070  1.0000 0.1292485449
H   H25       1.0  0.16280  0.83670  0.61710  1.0000 0.1292485449
H   H26       1.0  0.09680  0.77520  0.68940  1.0000 0.1207164073
H   H27       1.0  0.44490  0.80570  0.77500  1.0000 0.1207164073
H   H28       1.0  0.36030  0.80400  0.81570  1.0000 0.1292485449
H   H29       1.0  0.44800  0.75850  0.82760  1.0000 0.1292485449
H   H30       1.0  0.39430  0.63560  0.72680  1.0000 0.352921843
H   H31       1.0  0.65490  0.64710  0.13620  1.0000 0.1292485449
H   H32       1.0  0.93750  0.70350  0.21760  1.0000 0.1207164073
H   H33       1.0  0.93320  0.64230  0.13520  1.0000 0.1292485449
H   H34       1.0  0.58360  0.79690  0.32930  1.0000 0.1292485449
H   H35       1.0  0.83720  0.83670  0.38290  1.0000 0.1292485449
H   H36       1.0  0.90320  0.77520  0.31060  1.0000 0.1207164073
H   H37       1.0  0.55510  0.80570  0.22500  1.0000 0.1207164073
H   H38       1.0  0.63970  0.80400  0.18430  1.0000 0.1292485449
H   H39       1.0  0.55200  0.75850  0.17240  1.0000 0.1292485449
H   H40       1.0  0.60570  0.63560  0.27320  1.0000 0.352921843
H   H41       1.0  0.15490  0.14710  0.36380  1.0000 0.1292485449
H   H42       1.0  0.43750  0.20350  0.28240  1.0000 0.1207164073
H   H43       1.0  0.43320  0.14230  0.36480  1.0000 0.1292485449
H   H44       1.0  0.08360  0.29690  0.17070  1.0000 0.1292485449
H   H45       1.0  0.33720  0.33670  0.11710  1.0000 0.1292485449
H   H46       1.0  0.40320  0.27520  0.18940  1.0000 0.1207164073
H   H47       1.0  0.05510  0.30570  0.27500  1.0000 0.1207164073
H   H48       1.0  0.13970  0.30400  0.31570  1.0000 0.1292485449
H   H49       1.0  0.05200  0.25850  0.32760  1.0000 0.1292485449
H   H50       1.0  0.10570  0.13560  0.22680  1.0000 0.352921843
H   H51       1.0  0.84510  0.14710  0.63620  1.0000 0.1292485449
H   H52       1.0  0.56250  0.20350  0.71760  1.0000 0.1207164073
H   H53       1.0  0.56680  0.14230  0.63520  1.0000 0.1292485449
H   H54       1.0  0.91640  0.29690  0.82930  1.0000 0.1292485449
H   H55       1.0  0.66280  0.33670  0.88290  1.0000 0.1292485449
H   H56       1.0  0.59680  0.27520  0.81060  1.0000 0.1207164073
H   H57       1.0  0.94490  0.30570  0.72500  1.0000 0.1207164073
H   H58       1.0  0.86030  0.30400  0.68430  1.0000 0.1292485449
H   H59       1.0  0.94800  0.25850  0.67240  1.0000 0.1292485449
H   H60       1.0  0.89430  0.13560  0.77320  1.0000 0.352921843
H   H61       1.0  0.65490  0.35290  0.13620  1.0000 0.1292485449
H   H62       1.0  0.93750  0.29650  0.21760  1.0000 0.1207164073
H   H63       1.0  0.93320  0.35770  0.13520  1.0000 0.1292485449
H   H64       1.0  0.58360  0.20310  0.32930  1.0000 0.1292485449
H   H65       1.0  0.83720  0.16330  0.38290  1.0000 0.1292485449
H   H66       1.0  0.90320  0.22480  0.31060  1.0000 0.1207164073
H   H67       1.0  0.55510  0.19430  0.22500  1.0000 0.1207164073
H   H68       1.0  0.63970  0.19600  0.18430  1.0000 0.1292485449
H   H69       1.0  0.55200  0.24150  0.17240  1.0000 0.1292485449
H   H70       1.0  0.60570  0.36440  0.27320  1.0000 0.352921843
H   H71       1.0  0.34510  0.35290  0.86380  1.0000 0.1292485449
H   H72       1.0  0.06250  0.29650  0.78240  1.0000 0.1207164073
H   H73       1.0  0.06680  0.35770  0.86480  1.0000 0.1292485449
H   H74       1.0  0.41640  0.20310  0.67070  1.0000 0.1292485449
H   H75       1.0  0.16280  0.16330  0.61710  1.0000 0.1292485449
H   H76       1.0  0.09680  0.22480  0.68940  1.0000 0.1207164073
H   H77       1.0  0.44490  0.19430  0.77500  1.0000 0.1207164073
H   H78       1.0  0.36030  0.19600  0.81570  1.0000 0.1292485449
H   H79       1.0  0.44800  0.24150  0.82760  1.0000 0.1292485449
H   H80       1.0  0.39430  0.36440  0.72680  1.0000 0.352921843
H   H81       1.0  0.56070  0.00000  0.42540  1.0000 0.3948019215
H   H82       1.0  0.43930  0.00000  0.57460  1.0000 0.3948019215
H   H83       1.0  0.06070  0.50000  0.07460  1.0000 0.3948019215
H   H84       1.0  0.93930  0.50000  0.92540  1.0000 0.3948019215
C   C1        1.0  0.70860  0.90360  0.57710  1.0000 0.6239574769
C   C2        1.0  0.70600  0.86180  0.62690  1.0000 -0.0413788134
C   C3        1.0  0.78810  0.84080  0.65140  1.0000 -0.1235559216
C   C4        1.0  0.78370  0.80200  0.69820  1.0000 -0.0529621912
C   C5        1.0  0.70340  0.78560  0.72300  1.0000 0.0338094825
C   C6        1.0  0.61860  0.80690  0.70060  1.0000 -0.1404073859
C   C7        1.0  0.62210  0.84410  0.65180  1.0000 -0.0794715738
C   C8        1.0  0.86590  0.78250  0.73400  1.0000 0.3625821316
C   C9        1.0  0.81490  0.74090  0.77940  1.0000 -0.0529621912
C   C10       1.0  0.85230  0.70600  0.82520  1.0000 -0.1336302894
C   C11       1.0  0.79800  0.67740  0.86240  1.0000 -0.0211142393
C   C12       1.0  0.70100  0.68360  0.85660  1.0000 -0.0988824671
C   C13       1.0  0.66070  0.71880  0.81330  1.0000 -0.1563574771
C   C14       1.0  0.72250  0.74520  0.77310  1.0000 0.0406752353
C   C15       1.0  0.83550  0.63810  0.91030  1.0000 0.640225611
C   C16       1.0  0.90880  0.72300  0.70080  1.0000 -0.5089836052
C   C17       1.0  0.29140  0.90360  0.42290  1.0000 0.6239574769
C   C18       1.0  0.29400  0.86180  0.37310  1.0000 -0.0413788134
C   C19       1.0  0.21190  0.84080  0.34860  1.0000 -0.1235559216
C   C20       1.0  0.21630  0.80200  0.30180  1.0000 -0.0529621912
C   C21       1.0  0.29660  0.78560  0.27700  1.0000 0.0338094825
C   C22       1.0  0.38140  0.80690  0.29940  1.0000 -0.1404073859
C   C23       1.0  0.37790  0.84410  0.34820  1.0000 -0.0794715738
C   C24       1.0  0.13410  0.78250  0.26600  1.0000 0.3625821316
C   C25       1.0  0.18510  0.74090  0.22060  1.0000 -0.0529621912
C   C26       1.0  0.14770  0.70600  0.17480  1.0000 -0.1336302894
C   C27       1.0  0.20200  0.67740  0.13760  1.0000 -0.0211142393
C   C28       1.0  0.29900  0.68360  0.14340  1.0000 -0.0988824671
C   C29       1.0  0.33930  0.71880  0.18670  1.0000 -0.1563574771
C   C30       1.0  0.27750  0.74520  0.22690  1.0000 0.0406752353
C   C31       1.0  0.16450  0.63810  0.08970  1.0000 0.640225611
C   C32       1.0  0.09120  0.72300  0.29920  1.0000 -0.5089836052
C   C33       1.0  0.20860  0.59640  0.92290  1.0000 0.6239574769
C   C34       1.0  0.20600  0.63820  0.87310  1.0000 -0.0413788134
C   C35       1.0  0.28810  0.65920  0.84860  1.0000 -0.1235559216
C   C36       1.0  0.28370  0.69800  0.80180  1.0000 -0.0529621912
C   C37       1.0  0.20340  0.71440  0.77700  1.0000 0.0338094825
C   C38       1.0  0.11860  0.69310  0.79940  1.0000 -0.1404073859
C   C39       1.0  0.12210  0.65590  0.84820  1.0000 -0.0794715738
C   C40       1.0  0.36590  0.71750  0.76600  1.0000 0.3625821316
C   C41       1.0  0.31490  0.75910  0.72060  1.0000 -0.0529621912
C   C42       1.0  0.35230  0.79400  0.67480  1.0000 -0.1336302894
C   C43       1.0  0.29800  0.82260  0.63760  1.0000 -0.0211142393
C   C44       1.0  0.20100  0.81640  0.64340  1.0000 -0.0988824671
C   C45       1.0  0.16070  0.78120  0.68670  1.0000 -0.1563574771
C   C46       1.0  0.22250  0.75480  0.72690  1.0000 0.0406752353
C   C47       1.0  0.33550  0.86190  0.58970  1.0000 0.640225611
C   C48       1.0  0.40880  0.77700  0.79920  1.0000 -0.5089836052
C   C49       1.0  0.79140  0.59640  0.07710  1.0000 0.6239574769
C   C50       1.0  0.79400  0.63820  0.12690  1.0000 -0.0413788134
C   C51       1.0  0.71190  0.65920  0.15140  1.0000 -0.1235559216
C   C52       1.0  0.71630  0.69800  0.19820  1.0000 -0.0529621912
C   C53       1.0  0.79660  0.71440  0.22300  1.0000 0.0338094825
C   C54       1.0  0.88140  0.69310  0.20060  1.0000 -0.1404073859
C   C55       1.0  0.87790  0.65590  0.15180  1.0000 -0.0794715738
C   C56       1.0  0.63410  0.71750  0.23400  1.0000 0.3625821316
C   C57       1.0  0.68510  0.75910  0.27940  1.0000 -0.0529621912
C   C58       1.0  0.64770  0.79400  0.32520  1.0000 -0.1336302894
C   C59       1.0  0.70200  0.82260  0.36240  1.0000 -0.0211142393
C   C60       1.0  0.79900  0.81640  0.35660  1.0000 -0.0988824671
C   C61       1.0  0.83930  0.78120  0.31330  1.0000 -0.1563574771
C   C62       1.0  0.77750  0.75480  0.27310  1.0000 0.0406752353
C   C63       1.0  0.66450  0.86190  0.41030  1.0000 0.640225611
C   C64       1.0  0.59120  0.77700  0.20080  1.0000 -0.5089836052
C   C65       1.0  0.29140  0.09640  0.42290  1.0000 0.6239574769
C   C66       1.0  0.29400  0.13820  0.37310  1.0000 -0.0413788134
C   C67       1.0  0.21190  0.15920  0.34860  1.0000 -0.1235559216
C   C68       1.0  0.21630  0.19800  0.30180  1.0000 -0.0553204274
C   C69       1.0  0.29660  0.21440  0.27700  1.0000 0.0338094825
C   C70       1.0  0.38140  0.19310  0.29940  1.0000 -0.1404073859
C   C71       1.0  0.37790  0.15590  0.34820  1.0000 -0.0794715738
C   C72       1.0  0.13410  0.21750  0.26600  1.0000 0.3625821316
C   C73       1.0  0.18510  0.25910  0.22060  1.0000 -0.0529621912
C   C74       1.0  0.14770  0.29400  0.17480  1.0000 -0.1336302894
C   C75       1.0  0.20200  0.32260  0.13760  1.0000 -0.0211142393
C   C76       1.0  0.29900  0.31640  0.14340  1.0000 -0.0988824671
C   C77       1.0  0.33930  0.28120  0.18670  1.0000 -0.1563574771
C   C78       1.0  0.27750  0.25480  0.22690  1.0000 0.0406752353
C   C79       1.0  0.16450  0.36190  0.08970  1.0000 0.640225611
C   C80       1.0  0.09120  0.27700  0.29920  1.0000 -0.5089836052
C   C81       1.0  0.70860  0.09640  0.57710  1.0000 0.6239574769
C   C82       1.0  0.70600  0.13820  0.62690  1.0000 -0.0413788134
C   C83       1.0  0.78810  0.15920  0.65140  1.0000 -0.1235559216
C   C84       1.0  0.78370  0.19800  0.69820  1.0000 -0.0529621912
C   C85       1.0  0.70340  0.21440  0.72300  1.0000 0.0338094825
C   C86       1.0  0.61860  0.19310  0.70060  1.0000 -0.1404073859
C   C87       1.0  0.62210  0.15590  0.65180  1.0000 -0.0794715738
C   C88       1.0  0.86590  0.21750  0.73400  1.0000 0.3625821316
C   C89       1.0  0.81490  0.25910  0.77940  1.0000 -0.0529621912
C   C90       1.0  0.85230  0.29400  0.82520  1.0000 -0.1336302894
C   C91       1.0  0.79800  0.32260  0.86240  1.0000 -0.0211142393
C   C92       1.0  0.70100  0.31640  0.85660  1.0000 -0.0988824671
C   C93       1.0  0.66070  0.28120  0.81330  1.0000 -0.1563574771
C   C94       1.0  0.72250  0.25480  0.77310  1.0000 0.0406752353
C   C95       1.0  0.83550  0.36190  0.91030  1.0000 0.640225611
C   C96       1.0  0.90880  0.27700  0.70080  1.0000 -0.5089836052
C   C97       1.0  0.79140  0.40360  0.07710  1.0000 0.6239574769
C   C98       1.0  0.79400  0.36180  0.12690  1.0000 -0.0413788134
C   C99       1.0  0.71190  0.34080  0.15140  1.0000 -0.1235559216
C   C100      1.0  0.71630  0.30200  0.19820  1.0000 -0.0529621912
C   C101      1.0  0.79660  0.28560  0.22300  1.0000 0.0338094825
C   C102      1.0  0.88140  0.30690  0.20060  1.0000 -0.1404073859
C   C103      1.0  0.87790  0.34410  0.15180  1.0000 -0.0794715738
C   C104      1.0  0.63410  0.28250  0.23400  1.0000 0.3625821316
C   C105      1.0  0.68510  0.24090  0.27940  1.0000 -0.0529621912
C   C106      1.0  0.64770  0.20600  0.32520  1.0000 -0.1336302894
C   C107      1.0  0.70200  0.17740  0.36240  1.0000 -0.0211142393
C   C108      1.0  0.79900  0.18360  0.35660  1.0000 -0.0988824671
C   C109      1.0  0.83930  0.21880  0.31330  1.0000 -0.1563574771
C   C110      1.0  0.77750  0.24520  0.27310  1.0000 0.0406752353
C   C111      1.0  0.66450  0.13810  0.41030  1.0000 0.640225611
C   C112      1.0  0.59120  0.22300  0.20080  1.0000 -0.5089836052
C   C113      1.0  0.20860  0.40360  0.92290  1.0000 0.6239574769
C   C114      1.0  0.20600  0.36180  0.87310  1.0000 -0.0413788134
C   C115      1.0  0.28810  0.34080  0.84860  1.0000 -0.1235559216
C   C116      1.0  0.28370  0.30200  0.80180  1.0000 -0.0553204274
C   C117      1.0  0.20340  0.28560  0.77700  1.0000 0.0338094825
C   C118      1.0  0.11860  0.30690  0.79940  1.0000 -0.1404073859
C   C119      1.0  0.12210  0.34410  0.84820  1.0000 -0.0794715738
C   C120      1.0  0.36590  0.28250  0.76600  1.0000 0.3625821316
C   C121      1.0  0.31490  0.24090  0.72060  1.0000 -0.0529621912
C   C122      1.0  0.35230  0.20600  0.67480  1.0000 -0.1336302894
C   C123      1.0  0.29800  0.17740  0.63760  1.0000 -0.0211142393
C   C124      1.0  0.20100  0.18360  0.64340  1.0000 -0.0988824671
C   C125      1.0  0.16070  0.21880  0.68670  1.0000 -0.1563574771
C   C126      1.0  0.22250  0.24520  0.72690  1.0000 0.0406752353
C   C127      1.0  0.33550  0.13810  0.58970  1.0000 0.640225611
C   C128      1.0  0.40880  0.22300  0.79920  1.0000 -0.5089836052
N   N1        1.0  0.50000  0.25490  0.50000  1.0000 0.7313131908
N   N2        1.0  0.00000  0.24510  0.00000  1.0000 0.7313131908
N   N3        1.0  0.50000  0.74510  0.50000  1.0000 0.7313131908
N   N4        1.0  0.00000  0.75490  0.00000  1.0000 0.7313131908
O   O1        1.0  0.63260  0.92514  0.55319  1.0000 -0.7461979172
O   O2        1.0  0.78460  0.92387  0.55672  1.0000 -0.59863893
O   O3        1.0  0.78010  0.60997  0.94368  1.0000 -0.6939790627
O   O4        1.0  0.92230  0.63765  0.91732  1.0000 -0.6272540173
O   O5        1.0  0.92580  0.82970  0.75178  1.0000 -0.4372683993
O   O6        1.0  0.43340  0.22097  0.47753  1.0000 -0.5712276778
O   O7        1.0  0.36740  0.92514  0.44681  1.0000 -0.7461979172
O   O8        1.0  0.21540  0.92387  0.44328  1.0000 -0.59863893
O   O9        1.0  0.21990  0.60997  0.05632  1.0000 -0.6939790627
O   O10       1.0  0.07770  0.63765  0.08268  1.0000 -0.6272540173
O   O11       1.0  0.07420  0.82970  0.24822  1.0000 -0.4372683993
O   O12       1.0  0.56660  0.22097  0.52247  1.0000 -0.5712276778
O   O13       1.0  0.13260  0.57486  0.94681  1.0000 -0.7461979172
O   O14       1.0  0.28460  0.57613  0.94328  1.0000 -0.59863893
O   O15       1.0  0.28010  0.89003  0.55632  1.0000 -0.6939790627
O   O16       1.0  0.42230  0.86235  0.58268  1.0000 -0.6272540173
O   O17       1.0  0.42580  0.67030  0.74822  1.0000 -0.4372683993
O   O18       1.0  0.93340  0.27903  0.02247  1.0000 -0.5712276778
O   O19       1.0  0.86740  0.57486  0.05319  1.0000 -0.7461979172
O   O20       1.0  0.71540  0.57613  0.05672  1.0000 -0.59863893
O   O21       1.0  0.71990  0.89003  0.44368  1.0000 -0.6939790627
O   O22       1.0  0.57770  0.86235  0.41732  1.0000 -0.6272540173
O   O23       1.0  0.57420  0.67030  0.25178  1.0000 -0.4372683993
O   O24       1.0  0.06660  0.27903  0.97753  1.0000 -0.5712276778
O   O25       1.0  0.36740  0.07486  0.44681  1.0000 -0.7461979172
O   O26       1.0  0.21540  0.07613  0.44328  1.0000 -0.59863893
O   O27       1.0  0.21990  0.39003  0.05632  1.0000 -0.6939790627
O   O28       1.0  0.07770  0.36235  0.08268  1.0000 -0.6272540173
O   O29       1.0  0.07420  0.17030  0.24822  1.0000 -0.4372683993
O   O30       1.0  0.56660  0.77903  0.52247  1.0000 -0.5712276778
O   O31       1.0  0.63260  0.07486  0.55319  1.0000 -0.7461979172
O   O32       1.0  0.78460  0.07613  0.55672  1.0000 -0.59863893
O   O33       1.0  0.78010  0.39003  0.94368  1.0000 -0.6939790627
O   O34       1.0  0.92230  0.36235  0.91732  1.0000 -0.6272540173
O   O35       1.0  0.92580  0.17030  0.75178  1.0000 -0.4372683993
O   O36       1.0  0.43340  0.77903  0.47753  1.0000 -0.5712276778
O   O37       1.0  0.86740  0.42514  0.05319  1.0000 -0.7461979172
O   O38       1.0  0.71540  0.42387  0.05672  1.0000 -0.59863893
O   O39       1.0  0.71990  0.10997  0.44368  1.0000 -0.6939790627
O   O40       1.0  0.57770  0.13765  0.41732  1.0000 -0.6272540173
O   O41       1.0  0.57420  0.32970  0.25178  1.0000 -0.4372683993
O   O42       1.0  0.06660  0.72097  0.97753  1.0000 -0.5712276778
O   O43       1.0  0.13260  0.42514  0.94681  1.0000 -0.7461979172
O   O44       1.0  0.28460  0.42387  0.94328  1.0000 -0.59863893
O   O45       1.0  0.28010  0.10997  0.55632  1.0000 -0.6939790627
O   O46       1.0  0.42230  0.13765  0.58268  1.0000 -0.6272540173
O   O47       1.0  0.42580  0.32970  0.74822  1.0000 -0.4372683993
O   O48       1.0  0.93340  0.72097  0.02247  1.0000 -0.5712276778
O   O49       1.0  0.56760  0.00000  0.46028  1.0000 -1.1474194905
O   O50       1.0  0.43240  0.00000  0.53972  1.0000 -1.1474194905
O   O51       1.0  0.06760  0.50000  0.03972  1.0000 -1.1474194905
O   O52       1.0  0.93240  0.50000  0.96028  1.0000 -1.1474194905
O   O53       1.0  0.50000  0.32090  0.50000  1.0000 -0.373977103
O   O54       1.0  0.00000  0.17910  0.00000  1.0000 -0.373977103
O   O55       1.0  0.50000  0.67910  0.50000  1.0000 -0.373977103
O   O56       1.0  0.00000  0.82090  0.00000  1.0000 -0.373977103
