# DDEC6 charges by PACMAN v1.1 (https://github.com/mtap-research/PACMAN-charge/)
data_2018[Al][nan]3[ASR]1
_chemical_formula_sum              "Al4 H16 C32 O20"
_cell_length_a       12.0127
_cell_length_b       12.0127
_cell_length_c       12.0127
_cell_angle_alpha    103.906
_cell_angle_beta     103.906
_cell_angle_gamma    121.288

_symmetry_space_group_name_H-M    "P 1"
_symmetry_Int_Tables_number       1

loop_
  _symmetry_equiv_pos_as_xyz
  'x, y, z'

loop_
  _atom_site_type_symbol
  _atom_site_label
  _atom_site_symmetry_multiplicity
  _atom_site_fract_x
  _atom_site_fract_y
  _atom_site_fract_z
  _atom_site_occupancy
  _atom_site_charge
Al  Al1       1.0  0.44460  0.94460  0.88920  1.0000 1.6465398636
Al  Al2       1.0  0.05540  0.55540  0.11080  1.0000 1.6465398636
Al  Al3       1.0  0.19460  0.80540  0.00000  1.0000 1.6465398636
Al  Al4       1.0  0.80540  0.19460  0.00000  1.0000 1.6465398636
H   H1        1.0  0.88750  0.45540  0.69270  1.0000 0.1104822424
H   H2        1.0  0.76270  0.19480  0.30730  1.0000 0.1104822424
H   H3        1.0  0.70540  0.51270  0.06790  1.0000 0.1104822424
H   H4        1.0  0.44480  0.63750  0.93210  1.0000 0.1104822424
H   H5        1.0  0.36250  0.55520  0.06790  1.0000 0.1104822424
H   H6        1.0  0.48730  0.29460  0.93210  1.0000 0.1104822424
H   H7        1.0  0.54460  0.11250  0.30730  1.0000 0.1104822424
H   H8        1.0  0.80520  0.23730  0.69270  1.0000 0.1104822424
H   H9        1.0  0.44700  0.87500  0.07200  1.0000 0.4088218775
H   H10       1.0  0.80300  0.37500  0.92800  1.0000 0.4088218775
H   H11       1.0  0.12500  0.55300  0.92800  1.0000 0.4088218775
H   H12       1.0  0.62500  0.19700  0.07200  1.0000 0.4088218775
H   H13       1.0  0.13970  0.63970  0.50000  1.0000 0.1336194244
H   H14       1.0  0.88970  0.88970  0.00000  1.0000 0.1336194244
H   H15       1.0  0.11030  0.11030  0.00000  1.0000 0.1336194244
H   H16       1.0  0.36030  0.86030  0.50000  1.0000 0.1336194244
C   C1        1.0  0.14610  0.69400  0.73570  1.0000 0.6313406792
C   C2        1.0  0.02620  0.56520  0.61080  1.0000 -0.0330523528
C   C3        1.0  0.90560  0.44460  0.61080  1.0000 -0.1508292738
C   C4        1.0  0.95830  0.41040  0.26430  1.0000 0.6313406792
C   C5        1.0  0.95440  0.41540  0.38920  1.0000 -0.0330523528
C   C6        1.0  0.83380  0.29480  0.38920  1.0000 -0.1508292738
C   C7        1.0  0.94400  0.70830  0.04790  1.0000 0.6313406792
C   C8        1.0  0.81520  0.70440  0.03900  1.0000 -0.0330523528
C   C9        1.0  0.69460  0.58380  0.03900  1.0000 -0.1508292738
C   C10       1.0  0.66040  0.89610  0.95210  1.0000 0.6313406792
C   C11       1.0  0.66540  0.77620  0.96100  1.0000 -0.0330523528
C   C12       1.0  0.54480  0.65560  0.96100  1.0000 -0.1508292738
C   C13       1.0  0.10390  0.33960  0.04790  1.0000 0.6313406792
C   C14       1.0  0.22380  0.33460  0.03900  1.0000 -0.0330523528
C   C15       1.0  0.34440  0.45520  0.03900  1.0000 -0.1508292738
C   C16       1.0  0.29170  0.05600  0.95210  1.0000 0.6313406792
C   C17       1.0  0.29560  0.18480  0.96100  1.0000 -0.0330523528
C   C18       1.0  0.41620  0.30540  0.96100  1.0000 -0.1508292738
C   C19       1.0  0.30600  0.85390  0.26430  1.0000 0.6313406792
C   C20       1.0  0.43480  0.97380  0.38920  1.0000 -0.0330523528
C   C21       1.0  0.55540  0.09440  0.38920  1.0000 -0.1508292738
C   C22       1.0  0.58960  0.04170  0.73570  1.0000 0.6313406792
C   C23       1.0  0.58460  0.04560  0.61080  1.0000 -0.0330523528
C   C24       1.0  0.70520  0.16620  0.61080  1.0000 -0.1508292738
C   C25       1.0  0.05060  0.55060  0.50000  1.0000 -0.1082073632
C   C26       1.0  0.80940  0.30940  0.50000  1.0000 0.0614058827
C   C27       1.0  0.80060  0.80060  0.00000  1.0000 -0.1082073632
C   C28       1.0  0.55940  0.55940  0.00000  1.0000 0.0614058827
C   C29       1.0  0.19940  0.19940  0.00000  1.0000 -0.1082073632
C   C30       1.0  0.44060  0.44060  0.00000  1.0000 0.0614058827
C   C31       1.0  0.44940  0.94940  0.50000  1.0000 -0.1082073632
C   C32       1.0  0.69060  0.19060  0.50000  1.0000 0.0614058827
O   O1        1.0  0.26970  0.76170  0.74080  1.0000 -0.5429164428
O   O2        1.0  0.10960  0.71970  0.82110  1.0000 -0.5786615643
O   O3        1.0  0.02090  0.52890  0.25920  1.0000 -0.5429164428
O   O4        1.0  0.89860  0.28850  0.17890  1.0000 -0.5786615643
O   O5        1.0  0.01170  0.77090  0.99200  1.0000 -0.5429164428
O   O6        1.0  0.96970  0.64860  0.11010  1.0000 -0.5786615643
O   O7        1.0  0.77890  0.01970  0.00800  1.0000 -0.5429164428
O   O8        1.0  0.53850  0.85960  0.88990  1.0000 -0.5786615643
O   O9        1.0  0.98030  0.22110  0.99200  1.0000 -0.5429164428
O   O10       1.0  0.14040  0.46150  0.11010  1.0000 -0.5786615643
O   O11       1.0  0.22910  0.98830  0.00800  1.0000 -0.5429164428
O   O12       1.0  0.35140  0.03030  0.88990  1.0000 -0.5786615643
O   O13       1.0  0.23830  0.73030  0.25920  1.0000 -0.5429164428
O   O14       1.0  0.28030  0.89040  0.17890  1.0000 -0.5786615643
O   O15       1.0  0.47110  0.97910  0.74080  1.0000 -0.5429164428
O   O16       1.0  0.71150  0.10140  0.82110  1.0000 -0.5786615643
O   O17       1.0  0.37410  0.87500  0.99910  1.0000 -1.0147334966
O   O18       1.0  0.87590  0.37500  0.00090  1.0000 -1.0154245529
O   O19       1.0  0.12500  0.62590  0.00090  1.0000 -1.0147334966
O   O20       1.0  0.62500  0.12410  0.99910  1.0000 -1.0147334966
