# DDEC6 charges by PACMAN v1.1 (https://github.com/mtap-research/PACMAN-charge/)
data_2018[Pr][nan]3[ASR]2
_chemical_formula_sum              "Pr4 C10 O24"
_cell_length_a       6.2596
_cell_length_b       8.6136
_cell_length_c       12.9309
_cell_angle_alpha    105.43
_cell_angle_beta     90.422
_cell_angle_gamma    105.069

_symmetry_space_group_name_H-M    "P 1"
_symmetry_Int_Tables_number       1

loop_
  _symmetry_equiv_pos_as_xyz
  'x, y, z'

loop_
  _atom_site_type_symbol
  _atom_site_label
  _atom_site_symmetry_multiplicity
  _atom_site_fract_x
  _atom_site_fract_y
  _atom_site_fract_z
  _atom_site_occupancy
  _atom_site_charge
Pr  Pr1       1.0  0.44229  0.97171  0.24225  1.0000 2.0394993032
Pr  Pr2       1.0  0.19086  0.33350  0.42496  1.0000 2.0910412277
Pr  Pr3       1.0  0.55771  0.02829  0.75775  1.0000 2.0394993032
Pr  Pr4       1.0  0.80914  0.66650  0.57504  1.0000 2.0910412277
C   C1        1.0  0.40400  0.91900  0.97950  1.0000 0.5305908228
C   C2        1.0  0.05510  0.94810  0.45580  1.0000 0.5379448439
C   C3        1.0  0.71400  0.29450  0.36980  1.0000 0.8966003264
C   C4        1.0  0.45780  0.69790  0.37250  1.0000 0.5305908228
C   C5        1.0  0.26800  0.60560  0.28190  1.0000 0.5379448439
C   C6        1.0  0.59600  0.08100  0.02050  1.0000 0.5305908228
C   C7        1.0  0.94490  0.05190  0.54420  1.0000 0.5379448439
C   C8        1.0  0.28600  0.70550  0.63020  1.0000 0.8966003264
C   C9        1.0  0.54220  0.30210  0.62750  1.0000 0.5305908228
C   C10       1.0  0.73200  0.39440  0.71810  1.0000 0.5379448439
O   O1        1.0  0.31620  0.84870  0.04750  1.0000 -0.5636561309
O   O2        1.0  0.13960  0.10150  0.20460  1.0000 -0.4205431734
O   O3        1.0  0.17370  0.02840  0.39570  1.0000 -0.6587050651
O   O4        1.0  0.80000  0.16780  0.33790  1.0000 -0.7237493788
O   O5        1.0  0.50970  0.26890  0.34080  1.0000 -0.7330641543
O   O6        1.0  0.35750  0.86670  0.87860  1.0000 -0.5356818234
O   O7        1.0  0.55640  0.84320  0.37380  1.0000 -0.5453834926
O   O8        1.0  0.23390  0.68320  0.21730  1.0000 -0.5704766308
O   O9        1.0  0.01910  0.79750  0.44470  1.0000 -0.5125247036
O   O10       1.0  0.49390  0.61500  0.43450  1.0000 -0.6428018008
O   O11       1.0  0.16660  0.45740  0.27720  1.0000 -0.5125247036
O   O12       1.0  0.84070  0.43370  0.42500  1.0000 -0.7413868303
O   O13       1.0  0.68380  0.15130  0.95250  1.0000 -0.5704766308
O   O14       1.0  0.86040  0.89850  0.79540  1.0000 -0.4139242564
O   O15       1.0  0.82630  0.97160  0.60430  1.0000 -0.6587050651
O   O16       1.0  0.20000  0.83220  0.66210  1.0000 -0.7237493788
O   O17       1.0  0.49030  0.73110  0.65920  1.0000 -0.7413868303
O   O18       1.0  0.64250  0.13330  0.12140  1.0000 -0.5345861708
O   O19       1.0  0.44360  0.15680  0.62620  1.0000 -0.5453834926
O   O20       1.0  0.76610  0.31680  0.78270  1.0000 -0.5704766308
O   O21       1.0  0.98090  0.20250  0.55530  1.0000 -0.5125247036
O   O22       1.0  0.50610  0.38500  0.56550  1.0000 -0.6428018008
O   O23       1.0  0.83340  0.54260  0.72280  1.0000 -0.5125247036
O   O24       1.0  0.15930  0.56630  0.57500  1.0000 -0.7413868303
