# DDEC6 charges by PACMAN v1.1 (https://github.com/mtap-research/PACMAN-charge/)
data_2018[Cu][kgm]2[ASR]3
_chemical_formula_sum              "Cu6 H54 C60 S6 O24"
_cell_length_a       18.6338
_cell_length_b       18.6338
_cell_length_c       6.7814
_cell_angle_alpha    90
_cell_angle_beta     90
_cell_angle_gamma    120

_symmetry_space_group_name_H-M    "P 1"
_symmetry_Int_Tables_number       1

loop_
  _symmetry_equiv_pos_as_xyz
  'x, y, z'

loop_
  _atom_site_type_symbol
  _atom_site_label
  _atom_site_symmetry_multiplicity
  _atom_site_fract_x
  _atom_site_fract_y
  _atom_site_fract_z
  _atom_site_occupancy
  _atom_site_charge
Cu  Cu1       1.0  0.47692  0.52308  0.15536  1.0000 0.7666962162
Cu  Cu2       1.0  0.04616  0.52308  0.15536  1.0000 0.7666962162
Cu  Cu3       1.0  0.47692  0.95384  0.15536  1.0000 0.7666962162
Cu  Cu4       1.0  0.95384  0.47692  0.84464  1.0000 0.7666962162
Cu  Cu5       1.0  0.52308  0.47692  0.84464  1.0000 0.7666962162
Cu  Cu6       1.0  0.52308  0.04616  0.84464  1.0000 0.7666962162
H   H1        1.0  0.29540  0.37260  0.51060  1.0000 0.1237555459
H   H2        1.0  0.27030  0.31470  0.27370  1.0000 0.1402510213
H   H3        1.0  0.19640  0.22270  0.23070  1.0000 0.1402510213
H   H4        1.0  0.23020  0.29030  0.05820  1.0000 0.1402510213
H   H5        1.0  0.07720  0.70460  0.51060  1.0000 0.1237555459
H   H6        1.0  0.04440  0.72970  0.27370  1.0000 0.1402510213
H   H7        1.0  0.02630  0.80360  0.23070  1.0000 0.1402510213
H   H8        1.0  0.06010  0.76980  0.05820  1.0000 0.1402510213
H   H9        1.0  0.62740  0.92280  0.51060  1.0000 0.1237555459
H   H10       1.0  0.68530  0.95560  0.27370  1.0000 0.1402510213
H   H11       1.0  0.77730  0.97370  0.23070  1.0000 0.1402510213
H   H12       1.0  0.70970  0.93990  0.05820  1.0000 0.1402510213
H   H13       1.0  0.92280  0.62740  0.48940  1.0000 0.1237555459
H   H14       1.0  0.95560  0.68530  0.72630  1.0000 0.1402510213
H   H15       1.0  0.97370  0.77730  0.76930  1.0000 0.1402510213
H   H16       1.0  0.93990  0.70970  0.94180  1.0000 0.1402510213
H   H17       1.0  0.37260  0.29540  0.48940  1.0000 0.1237555459
H   H18       1.0  0.31470  0.27030  0.72630  1.0000 0.1402510213
H   H19       1.0  0.22270  0.19640  0.76930  1.0000 0.1402510213
H   H20       1.0  0.29030  0.23020  0.94180  1.0000 0.1402510213
H   H21       1.0  0.70460  0.07720  0.48940  1.0000 0.1237555459
H   H22       1.0  0.72970  0.04440  0.72630  1.0000 0.1402510213
H   H23       1.0  0.80360  0.02630  0.76930  1.0000 0.1402510213
H   H24       1.0  0.76980  0.06010  0.94180  1.0000 0.1402510213
H   H25       1.0  0.70460  0.62740  0.48940  1.0000 0.1237555459
H   H26       1.0  0.72970  0.68530  0.72630  1.0000 0.1402510213
H   H27       1.0  0.80360  0.77730  0.76930  1.0000 0.1402510213
H   H28       1.0  0.76980  0.70970  0.94180  1.0000 0.1402510213
H   H29       1.0  0.92280  0.29540  0.48940  1.0000 0.1237555459
H   H30       1.0  0.95560  0.27030  0.72630  1.0000 0.1402510213
H   H31       1.0  0.97370  0.19640  0.76930  1.0000 0.1402510213
H   H32       1.0  0.93990  0.23020  0.94180  1.0000 0.1402510213
H   H33       1.0  0.37260  0.07720  0.48940  1.0000 0.1237555459
H   H34       1.0  0.31470  0.04440  0.72630  1.0000 0.1402510213
H   H35       1.0  0.22270  0.02630  0.76930  1.0000 0.1402510213
H   H36       1.0  0.29030  0.06010  0.94180  1.0000 0.1402510213
H   H37       1.0  0.07720  0.37260  0.51060  1.0000 0.1237555459
H   H38       1.0  0.04440  0.31470  0.27370  1.0000 0.1402510213
H   H39       1.0  0.02630  0.22270  0.23070  1.0000 0.1402510213
H   H40       1.0  0.06010  0.29030  0.05820  1.0000 0.1402510213
H   H41       1.0  0.62740  0.70460  0.51060  1.0000 0.1237555459
H   H42       1.0  0.68530  0.72970  0.27370  1.0000 0.1402510213
H   H43       1.0  0.77730  0.80360  0.23070  1.0000 0.1402510213
H   H44       1.0  0.70970  0.76980  0.05820  1.0000 0.1402510213
H   H45       1.0  0.29540  0.92280  0.51060  1.0000 0.1237555459
H   H46       1.0  0.27030  0.95560  0.27370  1.0000 0.1402510213
H   H47       1.0  0.19640  0.97370  0.23070  1.0000 0.1402510213
H   H48       1.0  0.23020  0.93990  0.05820  1.0000 0.1402510213
H   H49       1.0  0.23560  0.47120  0.97210  1.0000 0.1262499109
H   H50       1.0  0.23560  0.76440  0.97210  1.0000 0.1262499109
H   H51       1.0  0.52880  0.76440  0.97210  1.0000 0.1262499109
H   H52       1.0  0.76440  0.52880  0.02790  1.0000 0.1262499109
H   H53       1.0  0.47120  0.23560  0.02790  1.0000 0.1262499109
H   H54       1.0  0.76440  0.23560  0.02790  1.0000 0.1262499109
C   C1        1.0  0.27750  0.42630  0.75380  1.0000 -0.01339165
C   C2        1.0  0.35940  0.45150  0.84760  1.0000 0.548310639
C   C3        1.0  0.25750  0.38540  0.57290  1.0000 -0.1628906861
C   C4        1.0  0.21880  0.28140  0.19980  1.0000 -0.4797975754
C   C5        1.0  0.14880  0.72250  0.75380  1.0000 -0.01339165
C   C6        1.0  0.09210  0.64060  0.84760  1.0000 0.548310639
C   C7        1.0  0.12790  0.74250  0.57290  1.0000 -0.1628906861
C   C8        1.0  0.06260  0.78120  0.19980  1.0000 -0.4797975754
C   C9        1.0  0.57370  0.85120  0.75380  1.0000 -0.01339165
C   C10       1.0  0.54850  0.90790  0.84760  1.0000 0.548310639
C   C11       1.0  0.61460  0.87210  0.57290  1.0000 -0.1628906861
C   C12       1.0  0.71860  0.93740  0.19980  1.0000 -0.4797975754
C   C13       1.0  0.85120  0.57370  0.24620  1.0000 -0.01339165
C   C14       1.0  0.90790  0.54850  0.15240  1.0000 0.548310639
C   C15       1.0  0.87210  0.61460  0.42710  1.0000 -0.1628906861
C   C16       1.0  0.93740  0.71860  0.80020  1.0000 -0.4797975754
C   C17       1.0  0.42630  0.27750  0.24620  1.0000 -0.01339165
C   C18       1.0  0.45150  0.35940  0.15240  1.0000 0.548310639
C   C19       1.0  0.38540  0.25750  0.42710  1.0000 -0.1628906861
C   C20       1.0  0.28140  0.21880  0.80020  1.0000 -0.4797975754
C   C21       1.0  0.72250  0.14880  0.24620  1.0000 -0.01339165
C   C22       1.0  0.64060  0.09210  0.15240  1.0000 0.548310639
C   C23       1.0  0.74250  0.12790  0.42710  1.0000 -0.1628906861
C   C24       1.0  0.78120  0.06260  0.80020  1.0000 -0.4797975754
C   C25       1.0  0.72250  0.57370  0.24620  1.0000 -0.01339165
C   C26       1.0  0.64060  0.54850  0.15240  1.0000 0.548310639
C   C27       1.0  0.74250  0.61460  0.42710  1.0000 -0.1628906861
C   C28       1.0  0.78120  0.71860  0.80020  1.0000 -0.4797975754
C   C29       1.0  0.85120  0.27750  0.24620  1.0000 -0.01339165
C   C30       1.0  0.90790  0.35940  0.15240  1.0000 0.548310639
C   C31       1.0  0.87210  0.25750  0.42710  1.0000 -0.1628906861
C   C32       1.0  0.93740  0.21880  0.80020  1.0000 -0.4797975754
C   C33       1.0  0.42630  0.14880  0.24620  1.0000 -0.01339165
C   C34       1.0  0.45150  0.09210  0.15240  1.0000 0.548310639
C   C35       1.0  0.38540  0.12790  0.42710  1.0000 -0.1628906861
C   C36       1.0  0.28140  0.06260  0.80020  1.0000 -0.4797975754
C   C37       1.0  0.14880  0.42630  0.75380  1.0000 -0.01339165
C   C38       1.0  0.09210  0.45150  0.84760  1.0000 0.548310639
C   C39       1.0  0.12790  0.38540  0.57290  1.0000 -0.1628906861
C   C40       1.0  0.06260  0.28140  0.19980  1.0000 -0.4797975754
C   C41       1.0  0.57370  0.72250  0.75380  1.0000 -0.01339165
C   C42       1.0  0.54850  0.64060  0.84760  1.0000 0.548310639
C   C43       1.0  0.61460  0.74250  0.57290  1.0000 -0.1628906861
C   C44       1.0  0.71860  0.78120  0.19980  1.0000 -0.4797975754
C   C45       1.0  0.27750  0.85120  0.75380  1.0000 -0.01339165
C   C46       1.0  0.35940  0.90790  0.84760  1.0000 0.548310639
C   C47       1.0  0.25750  0.87210  0.57290  1.0000 -0.1628906861
C   C48       1.0  0.21880  0.93740  0.19980  1.0000 -0.4797975754
C   C49       1.0  0.22270  0.44540  0.84630  1.0000 -0.1439211353
C   C50       1.0  0.18160  0.36320  0.48310  1.0000 -0.000638933
C   C51       1.0  0.22270  0.77730  0.84630  1.0000 -0.1439211353
C   C52       1.0  0.18160  0.81840  0.48310  1.0000 -0.000638933
C   C53       1.0  0.55460  0.77730  0.84630  1.0000 -0.1439211353
C   C54       1.0  0.63680  0.81840  0.48310  1.0000 -0.000638933
C   C55       1.0  0.77730  0.55460  0.15370  1.0000 -0.1439211353
C   C56       1.0  0.81840  0.63680  0.51690  1.0000 -0.000638933
C   C57       1.0  0.44540  0.22270  0.15370  1.0000 -0.1439211353
C   C58       1.0  0.36320  0.18160  0.51690  1.0000 -0.000638933
C   C59       1.0  0.77730  0.22270  0.15370  1.0000 -0.1439211353
C   C60       1.0  0.81840  0.18160  0.51690  1.0000 -0.000638933
S   S1        1.0  0.15403  0.30806  0.25910  1.0000 0.355524464
S   S2        1.0  0.15403  0.84597  0.25910  1.0000 0.355524464
S   S3        1.0  0.69194  0.84597  0.25910  1.0000 0.355524464
S   S4        1.0  0.84597  0.69194  0.74090  1.0000 0.355524464
S   S5        1.0  0.30806  0.15403  0.74090  1.0000 0.354445757
S   S6        1.0  0.84597  0.15403  0.74090  1.0000 0.355524464
O   O1        1.0  0.37180  0.48130  0.01620  1.0000 -0.4951125368
O   O2        1.0  0.41080  0.44190  0.75020  1.0000 -0.494032292
O   O3        1.0  0.10950  0.62820  0.01620  1.0000 -0.4951125368
O   O4        1.0  0.03110  0.58920  0.75020  1.0000 -0.494032292
O   O5        1.0  0.51870  0.89050  0.01620  1.0000 -0.4951125368
O   O6        1.0  0.55810  0.96890  0.75020  1.0000 -0.494032292
O   O7        1.0  0.89050  0.51870  0.98380  1.0000 -0.494032292
O   O8        1.0  0.96890  0.55810  0.24980  1.0000 -0.494032292
O   O9        1.0  0.48130  0.37180  0.98380  1.0000 -0.494032292
O   O10       1.0  0.44190  0.41080  0.24980  1.0000 -0.494032292
O   O11       1.0  0.62820  0.10950  0.98380  1.0000 -0.494032292
O   O12       1.0  0.58920  0.03110  0.24980  1.0000 -0.494032292
O   O13       1.0  0.62820  0.51870  0.98380  1.0000 -0.494032292
O   O14       1.0  0.58920  0.55810  0.24980  1.0000 -0.494032292
O   O15       1.0  0.89050  0.37180  0.98380  1.0000 -0.494032292
O   O16       1.0  0.96890  0.41080  0.24980  1.0000 -0.494032292
O   O17       1.0  0.48130  0.10950  0.98380  1.0000 -0.494032292
O   O18       1.0  0.44190  0.03110  0.24980  1.0000 -0.494032292
O   O19       1.0  0.10950  0.48130  0.01620  1.0000 -0.4951125368
O   O20       1.0  0.03110  0.44190  0.75020  1.0000 -0.494032292
O   O21       1.0  0.51870  0.62820  0.01620  1.0000 -0.4951125368
O   O22       1.0  0.55810  0.58920  0.75020  1.0000 -0.494032292
O   O23       1.0  0.37180  0.89050  0.01620  1.0000 -0.4951125368
O   O24       1.0  0.41080  0.96890  0.75020  1.0000 -0.494032292
