# DDEC6 charges by PACMAN v1.1 (https://github.com/mtap-research/PACMAN-charge/)
data_2018[Yb][fcu]3[ASR]1
_chemical_formula_sum              "Yb6 H24 C48 O32"
_cell_length_a       15.0632
_cell_length_b       15.0632
_cell_length_c       15.0632
_cell_angle_alpha    60
_cell_angle_beta     60
_cell_angle_gamma    60

_symmetry_space_group_name_H-M    "P 1"
_symmetry_Int_Tables_number       1

loop_
  _symmetry_equiv_pos_as_xyz
  'x, y, z'

loop_
  _atom_site_type_symbol
  _atom_site_label
  _atom_site_symmetry_multiplicity
  _atom_site_fract_x
  _atom_site_fract_y
  _atom_site_fract_z
  _atom_site_occupancy
  _atom_site_charge
Yb  Yb1       1.0  0.87330  0.12670  0.87330  1.0000 2.2309283803
Yb  Yb2       1.0  0.12670  0.87330  0.12670  1.0000 2.2309283803
Yb  Yb3       1.0  0.12670  0.87330  0.87330  1.0000 2.2309283803
Yb  Yb4       1.0  0.87330  0.12670  0.12670  1.0000 2.2309283803
Yb  Yb5       1.0  0.87330  0.87330  0.12670  1.0000 2.2309283803
Yb  Yb6       1.0  0.12670  0.12670  0.87330  1.0000 2.2309283803
H   H1        1.0  0.86580  0.13420  0.57840  1.0000 0.1364155122
H   H2        1.0  0.57840  0.42160  0.86580  1.0000 0.1364155122
H   H3        1.0  0.13420  0.86580  0.42160  1.0000 0.1364155122
H   H4        1.0  0.42160  0.57840  0.13420  1.0000 0.1364155122
H   H5        1.0  0.13420  0.57840  0.86580  1.0000 0.1364155122
H   H6        1.0  0.42160  0.86580  0.57840  1.0000 0.1364155122
H   H7        1.0  0.86580  0.42160  0.13420  1.0000 0.1364155122
H   H8        1.0  0.57840  0.13420  0.42160  1.0000 0.1364155122
H   H9        1.0  0.57840  0.86580  0.13420  1.0000 0.1364155122
H   H10       1.0  0.86580  0.57840  0.42160  1.0000 0.1364155122
H   H11       1.0  0.42160  0.13420  0.86580  1.0000 0.1364155122
H   H12       1.0  0.13420  0.42160  0.57840  1.0000 0.1364155122
H   H13       1.0  0.13420  0.57840  0.42160  1.0000 0.1364155122
H   H14       1.0  0.42160  0.86580  0.13420  1.0000 0.1364155122
H   H15       1.0  0.86580  0.42160  0.57840  1.0000 0.1364155122
H   H16       1.0  0.57840  0.13420  0.86580  1.0000 0.1364155122
H   H17       1.0  0.86580  0.57840  0.13420  1.0000 0.1364155122
H   H18       1.0  0.57840  0.86580  0.42160  1.0000 0.1364155122
H   H19       1.0  0.13420  0.42160  0.86580  1.0000 0.1364155122
H   H20       1.0  0.42160  0.13420  0.57840  1.0000 0.1364155122
H   H21       1.0  0.42160  0.57840  0.86580  1.0000 0.1364155122
H   H22       1.0  0.13420  0.86580  0.57840  1.0000 0.1364155122
H   H23       1.0  0.57840  0.42160  0.13420  1.0000 0.1364155122
H   H24       1.0  0.86580  0.13420  0.42160  1.0000 0.1364155122
C   C1        1.0  0.92050  0.07950  0.54690  1.0000 -0.0874871668
C   C2        1.0  0.54690  0.45310  0.92050  1.0000 -0.0874871668
C   C3        1.0  0.07950  0.92050  0.45310  1.0000 -0.0874871668
C   C4        1.0  0.45310  0.54690  0.07950  1.0000 -0.0874871668
C   C5        1.0  0.07950  0.54690  0.92050  1.0000 -0.0874871668
C   C6        1.0  0.45310  0.92050  0.54690  1.0000 -0.0874871668
C   C7        1.0  0.92050  0.45310  0.07950  1.0000 -0.0874871668
C   C8        1.0  0.54690  0.07950  0.45310  1.0000 -0.0874871668
C   C9        1.0  0.54690  0.92050  0.07950  1.0000 -0.0874871668
C   C10       1.0  0.92050  0.54690  0.45310  1.0000 -0.0874871668
C   C11       1.0  0.45310  0.07950  0.92050  1.0000 -0.0874871668
C   C12       1.0  0.07950  0.45310  0.54690  1.0000 -0.0874871668
C   C13       1.0  0.07950  0.54690  0.45310  1.0000 -0.0874871668
C   C14       1.0  0.45310  0.92050  0.07950  1.0000 -0.0874871668
C   C15       1.0  0.92050  0.45310  0.54690  1.0000 -0.0874871668
C   C16       1.0  0.54690  0.07950  0.92050  1.0000 -0.0874871668
C   C17       1.0  0.92050  0.54690  0.07950  1.0000 -0.0874871668
C   C18       1.0  0.54690  0.92050  0.45310  1.0000 -0.0874871668
C   C19       1.0  0.07950  0.45310  0.92050  1.0000 -0.0874871668
C   C20       1.0  0.45310  0.07950  0.54690  1.0000 -0.0874871668
C   C21       1.0  0.45310  0.54690  0.92050  1.0000 -0.0874871668
C   C22       1.0  0.07950  0.92050  0.54690  1.0000 -0.0874871668
C   C23       1.0  0.54690  0.45310  0.07950  1.0000 -0.0874871668
C   C24       1.0  0.92050  0.07950  0.45310  1.0000 -0.0874871668
C   C25       1.0  0.00000  0.00000  0.69300  1.0000 0.6594711135
C   C26       1.0  0.00000  0.00000  0.59260  1.0000 -0.0114045188
C   C27       1.0  0.69300  0.30700  0.00000  1.0000 0.6594711135
C   C28       1.0  0.59260  0.40740  0.00000  1.0000 -0.0114045188
C   C29       1.0  0.00000  0.00000  0.30700  1.0000 0.6594711135
C   C30       1.0  0.00000  0.00000  0.40740  1.0000 -0.0114045188
C   C31       1.0  0.30700  0.69300  0.00000  1.0000 0.6594711135
C   C32       1.0  0.40740  0.59260  0.00000  1.0000 -0.0114045188
C   C33       1.0  0.00000  0.69300  0.00000  1.0000 0.6594711135
C   C34       1.0  0.00000  0.59260  0.00000  1.0000 -0.0114045188
C   C35       1.0  0.30700  0.00000  0.69300  1.0000 0.6594711135
C   C36       1.0  0.40740  0.00000  0.59260  1.0000 -0.0114045188
C   C37       1.0  0.00000  0.30700  0.00000  1.0000 0.6594711135
C   C38       1.0  0.00000  0.40740  0.00000  1.0000 -0.0114045188
C   C39       1.0  0.69300  0.00000  0.30700  1.0000 0.6594711135
C   C40       1.0  0.59260  0.00000  0.40740  1.0000 -0.0114045188
C   C41       1.0  0.69300  0.00000  0.00000  1.0000 0.6594711135
C   C42       1.0  0.59260  0.00000  0.00000  1.0000 -0.0114045188
C   C43       1.0  0.00000  0.69300  0.30700  1.0000 0.6594711135
C   C44       1.0  0.00000  0.59260  0.40740  1.0000 -0.0114045188
C   C45       1.0  0.30700  0.00000  0.00000  1.0000 0.6594711135
C   C46       1.0  0.40740  0.00000  0.00000  1.0000 -0.0114045188
C   C47       1.0  0.00000  0.30700  0.69300  1.0000 0.6594711135
C   C48       1.0  0.00000  0.40740  0.59260  1.0000 -0.0114045188
O   O1        1.0  0.92280  0.07720  0.73080  1.0000 -0.6043038298
O   O2        1.0  0.73080  0.26920  0.92280  1.0000 -0.605356768
O   O3        1.0  0.07720  0.92280  0.26920  1.0000 -0.605356768
O   O4        1.0  0.26920  0.73080  0.07720  1.0000 -0.605356768
O   O5        1.0  0.07720  0.73080  0.92280  1.0000 -0.605356768
O   O6        1.0  0.26920  0.92280  0.73080  1.0000 -0.6043038298
O   O7        1.0  0.92280  0.26920  0.07720  1.0000 -0.6043038298
O   O8        1.0  0.73080  0.07720  0.26920  1.0000 -0.6043038298
O   O9        1.0  0.73080  0.92280  0.07720  1.0000 -0.605356768
O   O10       1.0  0.92280  0.73080  0.26920  1.0000 -0.605356768
O   O11       1.0  0.26920  0.07720  0.92280  1.0000 -0.605356768
O   O12       1.0  0.07720  0.26920  0.73080  1.0000 -0.6043038298
O   O13       1.0  0.07720  0.73080  0.26920  1.0000 -0.605356768
O   O14       1.0  0.26920  0.92280  0.07720  1.0000 -0.605356768
O   O15       1.0  0.92280  0.26920  0.73080  1.0000 -0.6043038298
O   O16       1.0  0.73080  0.07720  0.92280  1.0000 -0.605356768
O   O17       1.0  0.92280  0.73080  0.07720  1.0000 -0.605356768
O   O18       1.0  0.73080  0.92280  0.26920  1.0000 -0.605356768
O   O19       1.0  0.07720  0.26920  0.92280  1.0000 -0.605356768
O   O20       1.0  0.26920  0.07720  0.73080  1.0000 -0.6043038298
O   O21       1.0  0.26920  0.73080  0.92280  1.0000 -0.605356768
O   O22       1.0  0.07720  0.92280  0.73080  1.0000 -0.6043038298
O   O23       1.0  0.73080  0.26920  0.07720  1.0000 -0.6043038298
O   O24       1.0  0.92280  0.07720  0.26920  1.0000 -0.6043038298
O   O25       1.0  0.93972  0.93972  0.93972  1.0000 -0.9773270821
O   O26       1.0  0.93972  0.18084  0.93972  1.0000 -0.9773270821
O   O27       1.0  0.93972  0.93972  0.18084  1.0000 -0.9773270821
O   O28       1.0  0.18084  0.93972  0.93972  1.0000 -0.9773270821
O   O29       1.0  0.06028  0.81916  0.06028  1.0000 -0.9773270821
O   O30       1.0  0.06028  0.06028  0.06028  1.0000 -0.9773270821
O   O31       1.0  0.06028  0.06028  0.81916  1.0000 -0.9773270821
O   O32       1.0  0.81916  0.06028  0.06028  1.0000 -0.9773270821
