# DDEC6 charges by PACMAN v1.1 (https://github.com/mtap-research/PACMAN-charge/)
data_2018[Cd][hxl]2[ASR]1
_chemical_formula_sum              "Cd4 H96 C136 N16 O28"
_cell_length_a       9.1499
_cell_length_b       18.511
_cell_length_c       21.279
_cell_angle_alpha    115.78
_cell_angle_beta     89.239
_cell_angle_gamma    91.75

_symmetry_space_group_name_H-M    "P 1"
_symmetry_Int_Tables_number       1

loop_
  _symmetry_equiv_pos_as_xyz
  'x, y, z'

loop_
  _atom_site_type_symbol
  _atom_site_label
  _atom_site_symmetry_multiplicity
  _atom_site_fract_x
  _atom_site_fract_y
  _atom_site_fract_z
  _atom_site_occupancy
  _atom_site_charge
Cd  Cd1       1.0  0.33297  0.54406  0.57356  1.0000 0.8584147058
Cd  Cd2       1.0  0.15557  0.03405  0.57206  1.0000 0.8584147058
Cd  Cd3       1.0  0.66703  0.45594  0.42644  1.0000 0.8584147058
Cd  Cd4       1.0  0.84443  0.96595  0.42794  1.0000 0.8584147058
H   H1        1.0  0.01840  0.86970  0.57900  1.0000 0.1005958504
H   H2        1.0  0.86730  0.83210  0.64930  1.0000 0.1208445448
H   H3        1.0  0.77810  0.92860  0.75190  1.0000 0.128493965
H   H4        1.0  0.98630  0.09440  0.71070  1.0000 0.1208445448
H   H5        1.0  0.73540  0.12550  0.99550  1.0000 0.1208445448
H   H6        1.0  0.68230  0.24860  0.08850  1.0000 0.128493965
H   H7        1.0  0.67280  0.34940  0.95770  1.0000 0.1414706341
H   H8        1.0  0.72700  0.23110  0.86670  1.0000 0.1114163632
H   H9        1.0  0.88040  0.35560  0.13230  1.0000 0.1208445448
H   H10       1.0  0.00270  0.44350  0.23610  1.0000 0.1114163632
H   H11       1.0  0.71780  0.61390  0.26020  1.0000 0.1114163632
H   H12       1.0  0.58570  0.52280  0.16350  1.0000 0.1208445448
H   H13       1.0  0.11120  0.52360  0.44430  1.0000 0.1208445448
H   H14       1.0  0.32170  0.71390  0.57530  1.0000 0.1114163632
H   H15       1.0  0.24090  0.78730  0.52100  1.0000 0.128493965
H   H16       1.0  0.09410  0.72820  0.42290  1.0000 0.1208445448
H   H17       1.0  0.47270  0.38840  0.58180  1.0000 0.1005958504
H   H18       1.0  0.62000  0.35250  0.64810  1.0000 0.128493965
H   H19       1.0  0.71000  0.44880  0.75250  1.0000 0.128493965
H   H20       1.0  0.49340  0.61180  0.71850  1.0000 0.1208445448
H   H21       1.0  0.88480  0.63090  0.96750  1.0000 0.128493965
H   H22       1.0  0.95180  0.74560  0.06040  1.0000 0.1414706341
H   H23       1.0  0.68490  0.86930  0.00390  1.0000 0.1414706341
H   H24       1.0  0.61340  0.75280  0.90880  1.0000 0.1114163632
H   H25       1.0  0.92270  0.03480  0.16940  1.0000 0.128493965
H   H26       1.0  0.78370  0.12410  0.25820  1.0000 0.1208445448
H   H27       1.0  0.50110  0.94570  0.23830  1.0000 0.1114163632
H   H28       1.0  0.63270  0.85840  0.14300  1.0000 0.1208445448
H   H29       1.0  0.41770  0.23190  0.43340  1.0000 0.128493965
H   H30       1.0  0.26390  0.28570  0.52820  1.0000 0.128493965
H   H31       1.0  0.16620  0.20790  0.57680  1.0000 0.1114163632
H   H32       1.0  0.38250  0.02310  0.44640  1.0000 0.1208445448
H   H33       1.0  0.16530  0.81140  0.34160  1.0000 0.1414706341
H   H34       1.0  0.43990  0.85230  0.39750  1.0000 0.1208445448
H   H35       1.0  0.26280  0.70280  0.25640  1.0000 0.1208445448
H   H36       1.0  0.35240  0.61910  0.14940  1.0000 0.1208445448
H   H37       1.0  0.58220  0.64740  0.11530  1.0000 0.1208445448
H   H38       1.0  0.72440  0.75370  0.19300  1.0000 0.1208445448
H   H39       1.0  0.34950  0.31130  0.34530  1.0000 0.1414706341
H   H40       1.0  0.07550  0.36090  0.39270  1.0000 0.1208445448
H   H41       1.0  0.79880  0.25250  0.19120  1.0000 0.1208445448
H   H42       1.0  0.95170  0.16070  0.10800  1.0000 0.1208445448
H   H43       1.0  0.18180  0.14210  0.14050  1.0000 0.1208445448
H   H44       1.0  0.26620  0.21970  0.25100  1.0000 0.1208445448
H   H45       1.0  0.83510  0.13370  0.80170  1.0000 0.2793687991
H   H46       1.0  0.97580  0.52590  0.35770  1.0000 0.2886792979
H   H47       1.0  0.65100  0.65200  0.80930  1.0000 0.2793687991
H   H48       1.0  0.53450  0.03180  0.36140  1.0000 0.2886792979
H   H49       1.0  0.98160  0.13030  0.42100  1.0000 0.1005958504
H   H50       1.0  0.13270  0.16790  0.35070  1.0000 0.1208445448
H   H51       1.0  0.22190  0.07140  0.24810  1.0000 0.128493965
H   H52       1.0  0.01370  0.90560  0.28930  1.0000 0.1208445448
H   H53       1.0  0.26460  0.87450  0.00450  1.0000 0.1208445448
H   H54       1.0  0.31770  0.75140  0.91150  1.0000 0.128493965
H   H55       1.0  0.32720  0.65060  0.04230  1.0000 0.1414706341
H   H56       1.0  0.27300  0.76890  0.13330  1.0000 0.1114163632
H   H57       1.0  0.11960  0.64440  0.86770  1.0000 0.1208445448
H   H58       1.0  0.99730  0.55650  0.76390  1.0000 0.1114163632
H   H59       1.0  0.28220  0.38610  0.73980  1.0000 0.1114163632
H   H60       1.0  0.41430  0.47720  0.83650  1.0000 0.1208445448
H   H61       1.0  0.88880  0.47640  0.55570  1.0000 0.1208445448
H   H62       1.0  0.67830  0.28610  0.42470  1.0000 0.1114163632
H   H63       1.0  0.75910  0.21270  0.47900  1.0000 0.128493965
H   H64       1.0  0.90590  0.27180  0.57710  1.0000 0.1208445448
H   H65       1.0  0.52730  0.61160  0.41820  1.0000 0.1005958504
H   H66       1.0  0.38000  0.64750  0.35190  1.0000 0.128493965
H   H67       1.0  0.29000  0.55120  0.24750  1.0000 0.128493965
H   H68       1.0  0.50660  0.38820  0.28150  1.0000 0.1208445448
H   H69       1.0  0.11520  0.36910  0.03250  1.0000 0.128493965
H   H70       1.0  0.04820  0.25440  0.93960  1.0000 0.1414706341
H   H71       1.0  0.31510  0.13070  0.99610  1.0000 0.1414706341
H   H72       1.0  0.38660  0.24720  0.09120  1.0000 0.1114163632
H   H73       1.0  0.07730  0.96520  0.83060  1.0000 0.128493965
H   H74       1.0  0.21630  0.87590  0.74180  1.0000 0.1208445448
H   H75       1.0  0.49890  0.05430  0.76170  1.0000 0.1114163632
H   H76       1.0  0.36730  0.14160  0.85700  1.0000 0.1208445448
H   H77       1.0  0.58230  0.76810  0.56660  1.0000 0.128493965
H   H78       1.0  0.73610  0.71430  0.47180  1.0000 0.128493965
H   H79       1.0  0.83380  0.79210  0.42320  1.0000 0.1114163632
H   H80       1.0  0.61750  0.97690  0.55360  1.0000 0.1208445448
H   H81       1.0  0.83470  0.18860  0.65840  1.0000 0.1414706341
H   H82       1.0  0.56010  0.14770  0.60250  1.0000 0.1208445448
H   H83       1.0  0.73720  0.29720  0.74360  1.0000 0.1208445448
H   H84       1.0  0.64760  0.38090  0.85060  1.0000 0.1208445448
H   H85       1.0  0.41780  0.35260  0.88470  1.0000 0.1208445448
H   H86       1.0  0.27560  0.24630  0.80700  1.0000 0.1208445448
H   H87       1.0  0.65050  0.68870  0.65470  1.0000 0.1414706341
H   H88       1.0  0.92450  0.63910  0.60730  1.0000 0.1208445448
H   H89       1.0  0.20120  0.74750  0.80880  1.0000 0.1208445448
H   H90       1.0  0.04830  0.83930  0.89200  1.0000 0.1208445448
H   H91       1.0  0.81820  0.85790  0.85950  1.0000 0.1208445448
H   H92       1.0  0.73380  0.78030  0.74900  1.0000 0.1208445448
H   H93       1.0  0.16490  0.86630  0.19830  1.0000 0.2793687991
H   H94       1.0  0.02420  0.47410  0.64230  1.0000 0.2886792979
H   H95       1.0  0.34900  0.34800  0.19070  1.0000 0.2793687991
H   H96       1.0  0.46550  0.96820  0.63860  1.0000 0.2886792979
C   C1        1.0  0.98140  0.90900  0.62020  1.0000 0.0497926496
C   C2        1.0  0.89090  0.88600  0.66270  1.0000 -0.1212579584
C   C3        1.0  0.83830  0.94310  0.72350  1.0000 -0.1212579584
C   C4        1.0  0.87460  0.02230  0.74250  1.0000 0.1817428506
C   C5        1.0  0.96250  0.04070  0.69790  1.0000 -0.0429086339
C   C6        1.0  0.77480  0.08700  0.86160  1.0000 0.4687839311
C   C7        1.0  0.74200  0.16660  0.92120  1.0000 -0.0429086339
C   C8        1.0  0.72530  0.17100  0.98800  1.0000 -0.082765218
C   C9        1.0  0.69320  0.24470  0.04360  1.0000 -0.2124377801
C   C10       1.0  0.67820  0.31080  0.03170  1.0000 0.2402462325
C   C11       1.0  0.68810  0.30460  0.96560  1.0000 -0.1818265134
C   C12       1.0  0.71990  0.23400  0.91130  1.0000 -0.1212579584
C   C13       1.0  0.71900  0.42960  0.14030  1.0000 0.253185328
C   C14       1.0  0.84480  0.40650  0.15930  1.0000 -0.229047265
C   C15       1.0  0.92150  0.46000  0.22050  1.0000 -0.0999497201
C   C16       1.0  0.87190  0.53740  0.25610  1.0000 -0.0429086339
C   C17       1.0  0.74910  0.56160  0.23560  1.0000 -0.082765218
C   C18       1.0  0.67030  0.50710  0.17730  1.0000 -0.2124377801
C   C19       1.0  0.95550  0.59970  0.31610  1.0000 0.4687839311
C   C20       1.0  0.08440  0.61780  0.42390  1.0000 0.196842011
C   C21       1.0  0.13750  0.57750  0.45980  1.0000 -0.0205542907
C   C22       1.0  0.26100  0.68910  0.53660  1.0000 0.0497926496
C   C23       1.0  0.21330  0.73330  0.50390  1.0000 -0.1398054896
C   C24       1.0  0.12530  0.69900  0.44620  1.0000 -0.1398054896
C   C25       1.0  0.50780  0.42820  0.62380  1.0000 0.0497926496
C   C26       1.0  0.59620  0.40600  0.66340  1.0000 -0.1212579584
C   C27       1.0  0.64900  0.46250  0.72500  1.0000 -0.1212579584
C   C28       1.0  0.60930  0.54140  0.74580  1.0000 0.1817428506
C   C29       1.0  0.52030  0.55890  0.70380  1.0000 -0.0594092435
C   C30       1.0  0.70820  0.60040  0.86570  1.0000 0.4687839311
C   C31       1.0  0.74470  0.67870  0.92630  1.0000 -0.0458898983
C   C32       1.0  0.84380  0.67890  0.97360  1.0000 -0.0900879839
C   C33       1.0  0.88350  0.74720  0.02910  1.0000 -0.1865364351
C   C34       1.0  0.82680  0.81690  0.04000  1.0000 0.2159189693
C   C35       1.0  0.72570  0.82060  0.99600  1.0000 -0.1865364351
C   C36       1.0  0.68390  0.75100  0.93910  1.0000 -0.1212579584
C   C37       1.0  0.78950  0.93770  0.14800  1.0000 0.2402462325
C   C38       1.0  0.83630  0.01740  0.18260  1.0000 -0.1953751185
C   C39       1.0  0.75500  0.07010  0.23640  1.0000 -0.0900879839
C   C40       1.0  0.62810  0.04340  0.25890  1.0000 -0.0458898983
C   C41       1.0  0.58470  0.96430  0.22400  1.0000 -0.0900879839
C   C42       1.0  0.66480  0.91150  0.16740  1.0000 -0.2124377801
C   C43       1.0  0.54530  0.10350  0.31860  1.0000 0.4625809154
C   C44       1.0  0.41420  0.11990  0.42790  1.0000 0.1865835151
C   C45       1.0  0.37940  0.20010  0.45390  1.0000 -0.1398054896
C   C46       1.0  0.28760  0.23190  0.51020  1.0000 -0.1330797115
C   C47       1.0  0.23120  0.18550  0.53980  1.0000 0.0497926496
C   C48       1.0  0.35700  0.07640  0.46220  1.0000 -0.0205542907
C   C49       1.0  0.18620  0.89580  0.44720  1.0000 0.5865598879
C   C50       1.0  0.23470  0.83900  0.37580  1.0000 -0.2392919847
C   C51       1.0  0.37410  0.82750  0.36090  1.0000 -0.0900879839
C   C52       1.0  0.43690  0.77800  0.29000  1.0000 0.0872261784
C   C53       1.0  0.35590  0.71290  0.24350  1.0000 -0.1536172443
C   C54       1.0  0.40810  0.66330  0.17950  1.0000 -0.0900879839
C   C55       1.0  0.54660  0.67960  0.15960  1.0000 -0.0999497201
C   C56       1.0  0.63110  0.74380  0.20580  1.0000 -0.1101110318
C   C57       1.0  0.57700  0.79280  0.27070  1.0000 -0.0594092435
C   C58       1.0  0.67650  0.85910  0.31970  1.0000 0.5458266697
C   C59       1.0  0.32400  0.39570  0.44940  1.0000 0.6005198321
C   C60       1.0  0.27920  0.34090  0.37740  1.0000 -0.2468797156
C   C61       1.0  0.14330  0.33320  0.35830  1.0000 -0.0900879839
C   C62       1.0  0.08590  0.28500  0.28730  1.0000 0.0818214155
C   C63       1.0  0.94600  0.29350  0.26890  1.0000 -0.0594092435
C   C64       1.0  0.89400  0.24680  0.20290  1.0000 -0.1101110318
C   C65       1.0  0.98430  0.19090  0.15350  1.0000 -0.0999497201
C   C66       1.0  0.12230  0.18080  0.17270  1.0000 -0.082765218
C   C67       1.0  0.17270  0.22710  0.23860  1.0000 -0.1536172443
C   C68       1.0  0.83900  0.35490  0.31940  1.0000 0.5442178807
C   C69       1.0  0.01860  0.09100  0.37980  1.0000 0.0497926496
C   C70       1.0  0.10910  0.11400  0.33730  1.0000 -0.1212579584
C   C71       1.0  0.16170  0.05690  0.27650  1.0000 -0.1212579584
C   C72       1.0  0.12540  0.97770  0.25750  1.0000 0.1817428506
C   C73       1.0  0.03750  0.95930  0.30210  1.0000 -0.0429086339
C   C74       1.0  0.22520  0.91300  0.13840  1.0000 0.4687839311
C   C75       1.0  0.25800  0.83340  0.07880  1.0000 -0.0429086339
C   C76       1.0  0.27470  0.82900  0.01200  1.0000 -0.082765218
C   C77       1.0  0.30680  0.75530  0.95640  1.0000 -0.2124377801
C   C78       1.0  0.32180  0.68920  0.96830  1.0000 0.2402462325
C   C79       1.0  0.31190  0.69540  0.03440  1.0000 -0.1818265134
C   C80       1.0  0.28010  0.76600  0.08870  1.0000 -0.1212579584
C   C81       1.0  0.28100  0.57040  0.85970  1.0000 0.253185328
C   C82       1.0  0.15520  0.59350  0.84070  1.0000 -0.229047265
C   C83       1.0  0.07850  0.54000  0.77950  1.0000 -0.0999497201
C   C84       1.0  0.12810  0.46260  0.74390  1.0000 -0.0429086339
C   C85       1.0  0.25090  0.43840  0.76440  1.0000 -0.082765218
C   C86       1.0  0.32970  0.49290  0.82270  1.0000 -0.2124377801
C   C87       1.0  0.04450  0.40030  0.68390  1.0000 0.4687839311
C   C88       1.0  0.91560  0.38220  0.57610  1.0000 0.196842011
C   C89       1.0  0.86250  0.42250  0.54020  1.0000 -0.0205542907
C   C90       1.0  0.73900  0.31090  0.46340  1.0000 0.0497926496
C   C91       1.0  0.78670  0.26670  0.49610  1.0000 -0.1398054896
C   C92       1.0  0.87470  0.30100  0.55380  1.0000 -0.1398054896
C   C93       1.0  0.49220  0.57180  0.37620  1.0000 0.0497926496
C   C94       1.0  0.40380  0.59400  0.33660  1.0000 -0.1212579584
C   C95       1.0  0.35100  0.53750  0.27500  1.0000 -0.1212579584
C   C96       1.0  0.39070  0.45860  0.25420  1.0000 0.1817428506
C   C97       1.0  0.47970  0.44110  0.29620  1.0000 -0.0594092435
C   C98       1.0  0.29180  0.39960  0.13430  1.0000 0.4687839311
C   C99       1.0  0.25530  0.32130  0.07370  1.0000 -0.0458898983
C   C100      1.0  0.15620  0.32110  0.02640  1.0000 -0.0900879839
C   C101      1.0  0.11650  0.25280  0.97090  1.0000 -0.1865364351
C   C102      1.0  0.17320  0.18310  0.96000  1.0000 0.2159189693
C   C103      1.0  0.27430  0.17940  0.00400  1.0000 -0.1865364351
C   C104      1.0  0.31610  0.24900  0.06090  1.0000 -0.1212579584
C   C105      1.0  0.21050  0.06230  0.85200  1.0000 0.2402462325
C   C106      1.0  0.16370  0.98260  0.81740  1.0000 -0.1953751185
C   C107      1.0  0.24500  0.92990  0.76360  1.0000 -0.0900879839
C   C108      1.0  0.37190  0.95660  0.74110  1.0000 -0.0458898983
C   C109      1.0  0.41530  0.03570  0.77600  1.0000 -0.0900879839
C   C110      1.0  0.33520  0.08850  0.83260  1.0000 -0.2124377801
C   C111      1.0  0.45470  0.89650  0.68140  1.0000 0.4625809154
C   C112      1.0  0.58580  0.88010  0.57210  1.0000 0.1865835151
C   C113      1.0  0.62060  0.79990  0.54610  1.0000 -0.1398054896
C   C114      1.0  0.71240  0.76810  0.48980  1.0000 -0.1330797115
C   C115      1.0  0.76880  0.81450  0.46020  1.0000 0.0497926496
C   C116      1.0  0.64300  0.92360  0.53780  1.0000 -0.0205542907
C   C117      1.0  0.81380  0.10420  0.55280  1.0000 0.5865598879
C   C118      1.0  0.76530  0.16100  0.62420  1.0000 -0.2392919847
C   C119      1.0  0.62590  0.17250  0.63910  1.0000 -0.0900879839
C   C120      1.0  0.56310  0.22200  0.71000  1.0000 0.0872261784
C   C121      1.0  0.64410  0.28710  0.75650  1.0000 -0.1536172443
C   C122      1.0  0.59190  0.33670  0.82050  1.0000 -0.0900879839
C   C123      1.0  0.45340  0.32040  0.84040  1.0000 -0.0999497201
C   C124      1.0  0.36890  0.25620  0.79420  1.0000 -0.1101110318
C   C125      1.0  0.42300  0.20720  0.72930  1.0000 -0.0594092435
C   C126      1.0  0.32350  0.14090  0.68030  1.0000 0.5458266697
C   C127      1.0  0.67600  0.60430  0.55060  1.0000 0.6005198321
C   C128      1.0  0.72080  0.65910  0.62260  1.0000 -0.2468797156
C   C129      1.0  0.85670  0.66680  0.64170  1.0000 -0.0900879839
C   C130      1.0  0.91410  0.71500  0.71270  1.0000 0.0818214155
C   C131      1.0  0.05400  0.70650  0.73110  1.0000 -0.0594092435
C   C132      1.0  0.10600  0.75320  0.79710  1.0000 -0.1101110318
C   C133      1.0  0.01570  0.80910  0.84650  1.0000 -0.0999497201
C   C134      1.0  0.87770  0.81920  0.82730  1.0000 -0.082765218
C   C135      1.0  0.82730  0.77290  0.76140  1.0000 -0.1536172443
C   C136      1.0  0.16100  0.64510  0.68060  1.0000 0.5442178807
N   N1        1.0  0.01520  0.98630  0.63790  1.0000 -0.2237259213
N   N2        1.0  0.82850  0.08760  0.80250  1.0000 -0.3618959823
N   N3        1.0  0.00160  0.57390  0.36500  1.0000 -0.370542761
N   N4        1.0  0.22390  0.61140  0.51530  1.0000 -0.2237259213
N   N5        1.0  0.46920  0.50330  0.64180  1.0000 -0.229047265
N   N6        1.0  0.65570  0.60480  0.80740  1.0000 -0.370542761
N   N7        1.0  0.50400  0.07780  0.36730  1.0000 -0.3884324768
N   N8        1.0  0.26620  0.10790  0.51740  1.0000 -0.229047265
N   N9        1.0  0.98480  0.01370  0.36210  1.0000 -0.2237259213
N   N10       1.0  0.17150  0.91240  0.19750  1.0000 -0.3618959823
N   N11       1.0  0.99840  0.42610  0.63500  1.0000 -0.370542761
N   N12       1.0  0.77610  0.38860  0.48470  1.0000 -0.2237259213
N   N13       1.0  0.53080  0.49670  0.35820  1.0000 -0.229047265
N   N14       1.0  0.34430  0.39520  0.19260  1.0000 -0.370542761
N   N15       1.0  0.49600  0.92220  0.63270  1.0000 -0.3884324768
N   N16       1.0  0.73380  0.89210  0.48260  1.0000 -0.229047265
O   O1        1.0  0.75320  0.02250  0.86630  1.0000 -0.4823324719
O   O2        1.0  0.63200  0.38220  0.08440  1.0000 -0.2237259213
O   O3        1.0  0.97840  0.66610  0.32120  1.0000 -0.4509333709
O   O4        1.0  0.72800  0.53810  0.86760  1.0000 -0.4260258713
O   O5        1.0  0.88040  0.88870  0.09390  1.0000 -0.229047265
O   O6        1.0  0.51940  0.16870  0.32290  1.0000 -0.456242744
O   O7        1.0  0.27420  0.92200  0.49620  1.0000 -0.5141280928
O   O8        1.0  0.05700  0.91900  0.45600  1.0000 -0.562804062
O   O9        1.0  0.80830  0.84440  0.32070  1.0000 -0.5300067999
O   O10       1.0  0.62340  0.92560  0.35810  1.0000 -0.5518194475
O   O11       1.0  0.22790  0.42770  0.49650  1.0000 -0.5388705769
O   O12       1.0  0.45680  0.41170  0.46180  1.0000 -0.562804062
O   O13       1.0  0.88720  0.42420  0.35820  1.0000 -0.5518194475
O   O14       1.0  0.71030  0.33250  0.31950  1.0000 -0.5300067999
O   O15       1.0  0.24680  0.97750  0.13370  1.0000 -0.4823324719
O   O16       1.0  0.36800  0.61780  0.91560  1.0000 -0.2237259213
O   O17       1.0  0.02160  0.33390  0.67880  1.0000 -0.4509333709
O   O18       1.0  0.27200  0.46190  0.13240  1.0000 -0.4260258713
O   O19       1.0  0.11960  0.11130  0.90610  1.0000 -0.229047265
O   O20       1.0  0.48060  0.83130  0.67710  1.0000 -0.456242744
O   O21       1.0  0.72580  0.07800  0.50380  1.0000 -0.5141280928
O   O22       1.0  0.94300  0.08100  0.54400  1.0000 -0.562804062
O   O23       1.0  0.19170  0.15560  0.67930  1.0000 -0.5300067999
O   O24       1.0  0.37660  0.07440  0.64190  1.0000 -0.5518194475
O   O25       1.0  0.77210  0.57230  0.50350  1.0000 -0.5388705769
O   O26       1.0  0.54320  0.58830  0.53820  1.0000 -0.562804062
O   O27       1.0  0.11280  0.57580  0.64180  1.0000 -0.5518194475
O   O28       1.0  0.28970  0.66750  0.68050  1.0000 -0.5300067999
