# DDEC6 charges by PACMAN v1.1 (https://github.com/mtap-research/PACMAN-charge/)
data_2019[Co][stp]3[ASR]1
_chemical_formula_sum              "Co6 H12 C42 O26"
_cell_length_a       12.612
_cell_length_b       12.612
_cell_length_c       9.978
_cell_angle_alpha    90
_cell_angle_beta     90
_cell_angle_gamma    120

_symmetry_space_group_name_H-M    "P 1"
_symmetry_Int_Tables_number       1

loop_
  _symmetry_equiv_pos_as_xyz
  'x, y, z'

loop_
  _atom_site_type_symbol
  _atom_site_label
  _atom_site_symmetry_multiplicity
  _atom_site_fract_x
  _atom_site_fract_y
  _atom_site_fract_z
  _atom_site_occupancy
  _atom_site_charge
Co  Co1       1.0  0.51321  0.79388  0.00000  1.0000 1.1525779847
Co  Co2       1.0  0.28067  0.48679  0.00000  1.0000 1.1525779847
Co  Co3       1.0  0.20612  0.71933  0.00000  1.0000 1.1525779847
Co  Co4       1.0  0.48679  0.20612  0.00000  1.0000 1.1525779847
Co  Co5       1.0  0.71933  0.51321  0.00000  1.0000 1.1525779847
Co  Co6       1.0  0.79388  0.28067  0.00000  1.0000 1.1525779847
H   H1        1.0  0.22070  0.77360  0.61680  1.0000 0.1300550733
H   H2        1.0  0.55290  0.77930  0.61680  1.0000 0.1300550733
H   H3        1.0  0.22640  0.44710  0.61680  1.0000 0.1300550733
H   H4        1.0  0.77930  0.22640  0.61680  1.0000 0.1300550733
H   H5        1.0  0.44710  0.22070  0.61680  1.0000 0.1300550733
H   H6        1.0  0.77360  0.55290  0.61680  1.0000 0.1300550733
H   H7        1.0  0.77930  0.22640  0.38320  1.0000 0.1300550733
H   H8        1.0  0.44710  0.22070  0.38320  1.0000 0.1300550733
H   H9        1.0  0.77360  0.55290  0.38320  1.0000 0.1300550733
H   H10       1.0  0.22070  0.77360  0.38320  1.0000 0.1300550733
H   H11       1.0  0.55290  0.77930  0.38320  1.0000 0.1300550733
H   H12       1.0  0.22640  0.44710  0.38320  1.0000 0.1300550733
C   C1        1.0  0.39140  0.88180  0.78850  1.0000 0.6201149408
C   C2        1.0  0.39360  0.90890  0.64070  1.0000 -0.048459126
C   C3        1.0  0.29100  0.82860  0.57070  1.0000 -0.0935681441
C   C4        1.0  0.49040  0.60860  0.78850  1.0000 0.6201149408
C   C5        1.0  0.51530  0.60640  0.64070  1.0000 -0.048459126
C   C6        1.0  0.53760  0.70900  0.57070  1.0000 -0.0935681441
C   C7        1.0  0.11820  0.50960  0.78850  1.0000 0.6201149408
C   C8        1.0  0.09110  0.48470  0.64070  1.0000 -0.048459126
C   C9        1.0  0.17140  0.46240  0.57070  1.0000 -0.0935681441
C   C10       1.0  0.60860  0.11820  0.78850  1.0000 0.6201149408
C   C11       1.0  0.60640  0.09110  0.64070  1.0000 -0.048459126
C   C12       1.0  0.70900  0.17140  0.57070  1.0000 -0.0935681441
C   C13       1.0  0.50960  0.39140  0.78850  1.0000 0.6201149408
C   C14       1.0  0.48470  0.39360  0.64070  1.0000 -0.048459126
C   C15       1.0  0.46240  0.29100  0.57070  1.0000 -0.0935681441
C   C16       1.0  0.88180  0.49040  0.78850  1.0000 0.6201149408
C   C17       1.0  0.90890  0.51530  0.64070  1.0000 -0.048459126
C   C18       1.0  0.82860  0.53760  0.57070  1.0000 -0.0935681441
C   C19       1.0  0.60860  0.11820  0.21150  1.0000 0.6201149408
C   C20       1.0  0.60640  0.09110  0.35930  1.0000 -0.048459126
C   C21       1.0  0.70900  0.17140  0.42930  1.0000 -0.0935681441
C   C22       1.0  0.50960  0.39140  0.21150  1.0000 0.6201149408
C   C23       1.0  0.48470  0.39360  0.35930  1.0000 -0.048459126
C   C24       1.0  0.46240  0.29100  0.42930  1.0000 -0.0935681441
C   C25       1.0  0.88180  0.49040  0.21150  1.0000 0.6201149408
C   C26       1.0  0.90890  0.51530  0.35930  1.0000 -0.048459126
C   C27       1.0  0.82860  0.53760  0.42930  1.0000 -0.0935681441
C   C28       1.0  0.39140  0.88180  0.21150  1.0000 0.6201149408
C   C29       1.0  0.39360  0.90890  0.35930  1.0000 -0.048459126
C   C30       1.0  0.29100  0.82860  0.42930  1.0000 -0.0935681441
C   C31       1.0  0.49040  0.60860  0.21150  1.0000 0.6201149408
C   C32       1.0  0.51530  0.60640  0.35930  1.0000 -0.048459126
C   C33       1.0  0.53760  0.70900  0.42930  1.0000 -0.0935681441
C   C34       1.0  0.11820  0.50960  0.21150  1.0000 0.6201149408
C   C35       1.0  0.09110  0.48470  0.35930  1.0000 -0.048459126
C   C36       1.0  0.17140  0.46240  0.42930  1.0000 -0.0935681441
C   C37       1.0  0.50000  0.00000  0.57230  1.0000 0.0302984823
C   C38       1.0  0.50000  0.50000  0.57230  1.0000 0.0302984823
C   C39       1.0  0.00000  0.50000  0.57230  1.0000 0.0302984823
C   C40       1.0  0.50000  0.00000  0.42770  1.0000 0.0302984823
C   C41       1.0  0.50000  0.50000  0.42770  1.0000 0.0302984823
C   C42       1.0  0.00000  0.50000  0.42770  1.0000 0.0302984823
O   O1        1.0  0.48154  0.87646  0.83386  1.0000 -0.5225351866
O   O2        1.0  0.29445  0.85646  0.85197  1.0000 -0.5297273264
O   O3        1.0  0.39492  0.51846  0.83386  1.0000 -0.5225351866
O   O4        1.0  0.56201  0.70555  0.85197  1.0000 -0.5297273264
O   O5        1.0  0.12354  0.60508  0.83386  1.0000 -0.5225351866
O   O6        1.0  0.14354  0.43799  0.85197  1.0000 -0.5297273264
O   O7        1.0  0.51846  0.12354  0.83386  1.0000 -0.5225351866
O   O8        1.0  0.70555  0.14354  0.85197  1.0000 -0.5297273264
O   O9        1.0  0.60508  0.48154  0.83386  1.0000 -0.5225351866
O   O10       1.0  0.43799  0.29445  0.85197  1.0000 -0.5297273264
O   O11       1.0  0.87646  0.39492  0.83386  1.0000 -0.5225351866
O   O12       1.0  0.85646  0.56201  0.85197  1.0000 -0.5297273264
O   O13       1.0  0.51846  0.12354  0.16614  1.0000 -0.5225351866
O   O14       1.0  0.70555  0.14354  0.14803  1.0000 -0.5297273264
O   O15       1.0  0.60508  0.48154  0.16614  1.0000 -0.5225351866
O   O16       1.0  0.43799  0.29445  0.14803  1.0000 -0.5297273264
O   O17       1.0  0.87646  0.39492  0.16614  1.0000 -0.5225351866
O   O18       1.0  0.85646  0.56201  0.14803  1.0000 -0.5297273264
O   O19       1.0  0.48154  0.87646  0.16614  1.0000 -0.5225351866
O   O20       1.0  0.29445  0.85646  0.14803  1.0000 -0.5297273264
O   O21       1.0  0.39492  0.51846  0.16614  1.0000 -0.5225351866
O   O22       1.0  0.56201  0.70555  0.14803  1.0000 -0.5297273264
O   O23       1.0  0.12354  0.60508  0.16614  1.0000 -0.5225351866
O   O24       1.0  0.14354  0.43799  0.14803  1.0000 -0.5297273264
O   O25       1.0  0.33333  0.66667  0.00000  1.0000 -0.8839107867
O   O26       1.0  0.66667  0.33333  0.00000  1.0000 -0.8839107867
