# DDEC6 charges by PACMAN v1.1 (https://github.com/mtap-research/PACMAN-charge/)
data_2019[Ni][hcb]2[ASR]3
_chemical_formula_sum              "Ni4 H56 C84 N16 O16"
_cell_length_a       10.933
_cell_length_b       11.989
_cell_length_c       20.875
_cell_angle_alpha    90
_cell_angle_beta     90
_cell_angle_gamma    90

_symmetry_space_group_name_H-M    "P 1"
_symmetry_Int_Tables_number       1

loop_
  _symmetry_equiv_pos_as_xyz
  'x, y, z'

loop_
  _atom_site_type_symbol
  _atom_site_label
  _atom_site_symmetry_multiplicity
  _atom_site_fract_x
  _atom_site_fract_y
  _atom_site_fract_z
  _atom_site_occupancy
  _atom_site_charge
Ni  Ni1       1.0  0.22039  0.66586  0.75000  1.0000 0.6607798834
Ni  Ni2       1.0  0.27961  0.16586  0.25000  1.0000 0.6607798834
Ni  Ni3       1.0  0.77961  0.33414  0.25000  1.0000 0.6607798834
Ni  Ni4       1.0  0.72039  0.83414  0.75000  1.0000 0.6607798834
H   H1        1.0  0.27160  0.06400  0.10210  1.0000 0.1313396965
H   H2        1.0  0.58370  0.90360  0.14470  1.0000 0.1313396965
H   H3        1.0  0.56760  0.80170  0.05130  1.0000 0.112506767
H   H4        1.0  0.55290  0.70230  0.95570  1.0000 0.1210791204
H   H5        1.0  0.24970  0.87670  0.90880  1.0000 0.1210791204
H   H6        1.0  0.26190  0.97430  0.00520  1.0000 0.1210791204
H   H7        1.0  0.22840  0.56400  0.89790  1.0000 0.1313396965
H   H8        1.0  0.91630  0.40360  0.85530  1.0000 0.1313396965
H   H9        1.0  0.93240  0.30170  0.94870  1.0000 0.112506767
H   H10       1.0  0.94710  0.20230  0.04430  1.0000 0.1210791204
H   H11       1.0  0.25030  0.37670  0.09120  1.0000 0.1210791204
H   H12       1.0  0.23810  0.47430  0.99480  1.0000 0.1210791204
H   H13       1.0  0.27160  0.06400  0.39790  1.0000 0.1313396965
H   H14       1.0  0.58370  0.90360  0.35530  1.0000 0.1313396965
H   H15       1.0  0.56760  0.80170  0.44870  1.0000 0.112506767
H   H16       1.0  0.55290  0.70230  0.54430  1.0000 0.1210791204
H   H17       1.0  0.24970  0.87670  0.59120  1.0000 0.1210791204
H   H18       1.0  0.26190  0.97430  0.49480  1.0000 0.1210791204
H   H19       1.0  0.22840  0.56400  0.60210  1.0000 0.1313396965
H   H20       1.0  0.91630  0.40360  0.64470  1.0000 0.1313396965
H   H21       1.0  0.93240  0.30170  0.55130  1.0000 0.112506767
H   H22       1.0  0.94710  0.20230  0.45570  1.0000 0.1210791204
H   H23       1.0  0.25030  0.37670  0.40880  1.0000 0.1210791204
H   H24       1.0  0.23810  0.47430  0.50520  1.0000 0.1210791204
H   H25       1.0  0.63240  0.00840  0.25000  1.0000 0.1498734106
H   H26       1.0  0.57490  0.13130  0.25000  1.0000 0.1700666596
H   H27       1.0  0.86760  0.50840  0.75000  1.0000 0.1498734106
H   H28       1.0  0.92510  0.63130  0.75000  1.0000 0.1700666596
H   H29       1.0  0.72840  0.93600  0.60210  1.0000 0.1313396965
H   H30       1.0  0.41630  0.09640  0.64470  1.0000 0.1313396965
H   H31       1.0  0.43240  0.19830  0.55130  1.0000 0.112506767
H   H32       1.0  0.44710  0.29770  0.45570  1.0000 0.1210791204
H   H33       1.0  0.75030  0.12330  0.40880  1.0000 0.1210791204
H   H34       1.0  0.73810  0.02570  0.50520  1.0000 0.1210791204
H   H35       1.0  0.77160  0.43600  0.39790  1.0000 0.1313396965
H   H36       1.0  0.08370  0.59640  0.35530  1.0000 0.1313396965
H   H37       1.0  0.06760  0.69830  0.44870  1.0000 0.112506767
H   H38       1.0  0.05290  0.79770  0.54430  1.0000 0.1210791204
H   H39       1.0  0.74970  0.62330  0.59120  1.0000 0.1210791204
H   H40       1.0  0.76190  0.52570  0.49480  1.0000 0.1210791204
H   H41       1.0  0.72840  0.93600  0.89790  1.0000 0.1313396965
H   H42       1.0  0.41630  0.09640  0.85530  1.0000 0.1313396965
H   H43       1.0  0.43240  0.19830  0.94870  1.0000 0.112506767
H   H44       1.0  0.44710  0.29770  0.04430  1.0000 0.1210791204
H   H45       1.0  0.75030  0.12330  0.09120  1.0000 0.1210791204
H   H46       1.0  0.73810  0.02570  0.99480  1.0000 0.1210791204
H   H47       1.0  0.77160  0.43600  0.10210  1.0000 0.1313396965
H   H48       1.0  0.08370  0.59640  0.14470  1.0000 0.1313396965
H   H49       1.0  0.06760  0.69830  0.05130  1.0000 0.112506767
H   H50       1.0  0.05290  0.79770  0.95570  1.0000 0.1210791204
H   H51       1.0  0.74970  0.62330  0.90880  1.0000 0.1210791204
H   H52       1.0  0.76190  0.52570  0.00520  1.0000 0.1210791204
H   H53       1.0  0.36760  0.99160  0.75000  1.0000 0.1498734106
H   H54       1.0  0.42510  0.86870  0.75000  1.0000 0.1700666596
H   H55       1.0  0.13240  0.49160  0.25000  1.0000 0.1498734106
H   H56       1.0  0.07490  0.36870  0.25000  1.0000 0.1700666596
C   C1        1.0  0.34380  0.04020  0.12347  1.0000 -0.0218048224
C   C2        1.0  0.42430  0.95992  0.09921  1.0000 -0.0122213003
C   C3        1.0  0.51440  0.95137  0.14577  1.0000 -0.1261666927
C   C4        1.0  0.41630  0.89770  0.03862  1.0000 0.0877465329
C   C5        1.0  0.50220  0.81690  0.02267  1.0000 -0.1507532436
C   C6        1.0  0.49390  0.75790  0.96555  1.0000 -0.0994694812
C   C7        1.0  0.39970  0.77983  0.92270  1.0000 -0.0276997071
C   C8        1.0  0.31410  0.86090  0.93790  1.0000 -0.0994694812
C   C9        1.0  0.32150  0.91930  0.99530  1.0000 -0.1507532436
C   C10       1.0  0.39000  0.71598  0.86098  1.0000 0.5471332569
C   C11       1.0  0.15620  0.54020  0.87653  1.0000 -0.0218048224
C   C12       1.0  0.07570  0.45992  0.90079  1.0000 -0.0122213003
C   C13       1.0  0.98560  0.45137  0.85423  1.0000 -0.1261666927
C   C14       1.0  0.08370  0.39770  0.96138  1.0000 0.0877465329
C   C15       1.0  0.99780  0.31690  0.97733  1.0000 -0.1507532436
C   C16       1.0  0.00610  0.25790  0.03445  1.0000 -0.0994694812
C   C17       1.0  0.10030  0.27983  0.07730  1.0000 -0.0276997071
C   C18       1.0  0.18590  0.36090  0.06210  1.0000 -0.0994694812
C   C19       1.0  0.17850  0.41930  0.00470  1.0000 -0.1507532436
C   C20       1.0  0.11000  0.21598  0.13902  1.0000 0.5471332569
C   C21       1.0  0.34380  0.04020  0.37653  1.0000 -0.0218048224
C   C22       1.0  0.42430  0.95992  0.40079  1.0000 -0.0122213003
C   C23       1.0  0.51440  0.95137  0.35423  1.0000 -0.1261666927
C   C24       1.0  0.41630  0.89770  0.46138  1.0000 0.0877465329
C   C25       1.0  0.50220  0.81690  0.47733  1.0000 -0.1507532436
C   C26       1.0  0.49390  0.75790  0.53445  1.0000 -0.0994694812
C   C27       1.0  0.39970  0.77983  0.57730  1.0000 -0.0276997071
C   C28       1.0  0.31410  0.86090  0.56210  1.0000 -0.0994694812
C   C29       1.0  0.32150  0.91930  0.50470  1.0000 -0.1507532436
C   C30       1.0  0.39000  0.71598  0.63902  1.0000 0.5471332569
C   C31       1.0  0.15620  0.54020  0.62347  1.0000 -0.0218048224
C   C32       1.0  0.07570  0.45992  0.59921  1.0000 -0.0122213003
C   C33       1.0  0.98560  0.45137  0.64577  1.0000 -0.1261666927
C   C34       1.0  0.08370  0.39770  0.53862  1.0000 0.0877465329
C   C35       1.0  0.99780  0.31690  0.52267  1.0000 -0.1507532436
C   C36       1.0  0.00610  0.25790  0.46555  1.0000 -0.0994694812
C   C37       1.0  0.10030  0.27983  0.42270  1.0000 -0.0276997071
C   C38       1.0  0.18590  0.36090  0.43790  1.0000 -0.0994694812
C   C39       1.0  0.17850  0.41930  0.49530  1.0000 -0.1507532436
C   C40       1.0  0.11000  0.21598  0.36098  1.0000 0.5471332569
C   C41       1.0  0.55480  0.05080  0.25000  1.0000 -0.0849385287
C   C42       1.0  0.94520  0.55080  0.75000  1.0000 -0.0849385287
C   C43       1.0  0.65620  0.95980  0.62347  1.0000 -0.0218048224
C   C44       1.0  0.57570  0.04008  0.59921  1.0000 -0.0122213003
C   C45       1.0  0.48560  0.04863  0.64577  1.0000 -0.1261666927
C   C46       1.0  0.58370  0.10230  0.53862  1.0000 0.0877465329
C   C47       1.0  0.49780  0.18310  0.52267  1.0000 -0.1507532436
C   C48       1.0  0.50610  0.24210  0.46555  1.0000 -0.0994694812
C   C49       1.0  0.60030  0.22017  0.42270  1.0000 -0.0276997071
C   C50       1.0  0.68590  0.13910  0.43790  1.0000 -0.0994694812
C   C51       1.0  0.67850  0.08070  0.49530  1.0000 -0.1507532436
C   C52       1.0  0.61000  0.28402  0.36098  1.0000 0.5471332569
C   C53       1.0  0.84380  0.45980  0.37653  1.0000 -0.0218048224
C   C54       1.0  0.92430  0.54008  0.40079  1.0000 -0.0122213003
C   C55       1.0  0.01440  0.54863  0.35423  1.0000 -0.1261666927
C   C56       1.0  0.91630  0.60230  0.46138  1.0000 0.0877465329
C   C57       1.0  0.00220  0.68310  0.47733  1.0000 -0.1507532436
C   C58       1.0  0.99390  0.74210  0.53445  1.0000 -0.0994694812
C   C59       1.0  0.89970  0.72017  0.57730  1.0000 -0.0276997071
C   C60       1.0  0.81410  0.63910  0.56210  1.0000 -0.0994694812
C   C61       1.0  0.82150  0.58070  0.50470  1.0000 -0.1507532436
C   C62       1.0  0.89000  0.78402  0.63902  1.0000 0.5471332569
C   C63       1.0  0.65620  0.95980  0.87653  1.0000 -0.0218048224
C   C64       1.0  0.57570  0.04008  0.90079  1.0000 -0.0122213003
C   C65       1.0  0.48560  0.04863  0.85423  1.0000 -0.1261666927
C   C66       1.0  0.58370  0.10230  0.96138  1.0000 0.0877465329
C   C67       1.0  0.49780  0.18310  0.97733  1.0000 -0.1507532436
C   C68       1.0  0.50610  0.24210  0.03445  1.0000 -0.0994694812
C   C69       1.0  0.60030  0.22017  0.07730  1.0000 -0.0276997071
C   C70       1.0  0.68590  0.13910  0.06210  1.0000 -0.0994694812
C   C71       1.0  0.67850  0.08070  0.00470  1.0000 -0.1507532436
C   C72       1.0  0.61000  0.28402  0.13902  1.0000 0.5471332569
C   C73       1.0  0.84380  0.45980  0.12347  1.0000 -0.0218048224
C   C74       1.0  0.92430  0.54008  0.09921  1.0000 -0.0122213003
C   C75       1.0  0.01440  0.54863  0.14577  1.0000 -0.1261666927
C   C76       1.0  0.91630  0.60230  0.03862  1.0000 0.0877465329
C   C77       1.0  0.00220  0.68310  0.02267  1.0000 -0.1507532436
C   C78       1.0  0.99390  0.74210  0.96555  1.0000 -0.0994694812
C   C79       1.0  0.89970  0.72017  0.92270  1.0000 -0.0276997071
C   C80       1.0  0.81410  0.63910  0.93790  1.0000 -0.0994694812
C   C81       1.0  0.82150  0.58070  0.99530  1.0000 -0.1507532436
C   C82       1.0  0.89000  0.78402  0.86098  1.0000 0.5471332569
C   C83       1.0  0.44520  0.94920  0.75000  1.0000 -0.0849385287
C   C84       1.0  0.05480  0.44920  0.25000  1.0000 -0.0849385287
N   N1        1.0  0.48503  0.02371  0.19289  1.0000 0.1761345614
N   N2        1.0  0.37995  0.07939  0.17987  1.0000 -0.1970612209
N   N3        1.0  0.01497  0.52371  0.80711  1.0000 0.1761345614
N   N4        1.0  0.12005  0.57939  0.82013  1.0000 -0.1970612209
N   N5        1.0  0.48503  0.02371  0.30711  1.0000 0.1761345614
N   N6        1.0  0.37995  0.07939  0.32013  1.0000 -0.1970612209
N   N7        1.0  0.01497  0.52371  0.69289  1.0000 0.1761345614
N   N8        1.0  0.12005  0.57939  0.67987  1.0000 -0.1970612209
N   N9        1.0  0.51497  0.97629  0.69289  1.0000 0.1761345614
N   N10       1.0  0.62005  0.92061  0.67987  1.0000 -0.1970612209
N   N11       1.0  0.98503  0.47629  0.30711  1.0000 0.1761345614
N   N12       1.0  0.87995  0.42061  0.32013  1.0000 -0.1970612209
N   N13       1.0  0.51497  0.97629  0.80711  1.0000 0.1761345614
N   N14       1.0  0.62005  0.92061  0.82013  1.0000 -0.1970612209
N   N15       1.0  0.98503  0.47629  0.19289  1.0000 0.1761345614
N   N16       1.0  0.87995  0.42061  0.17987  1.0000 -0.1970612209
O   O1        1.0  0.46174  0.63536  0.85153  1.0000 -0.5611082415
O   O2        1.0  0.30822  0.74837  0.82242  1.0000 -0.5508211504
O   O3        1.0  0.03826  0.13536  0.14847  1.0000 -0.5611082415
O   O4        1.0  0.19178  0.24837  0.17758  1.0000 -0.5508211504
O   O5        1.0  0.46174  0.63536  0.64847  1.0000 -0.5611082415
O   O6        1.0  0.30822  0.74837  0.67758  1.0000 -0.5508211504
O   O7        1.0  0.03826  0.13536  0.35153  1.0000 -0.5611082415
O   O8        1.0  0.19178  0.24837  0.32242  1.0000 -0.5508211504
O   O9        1.0  0.53826  0.36464  0.35153  1.0000 -0.5611082415
O   O10       1.0  0.69178  0.25163  0.32242  1.0000 -0.5508211504
O   O11       1.0  0.96174  0.86464  0.64847  1.0000 -0.5611082415
O   O12       1.0  0.80822  0.75163  0.67758  1.0000 -0.5508211504
O   O13       1.0  0.53826  0.36464  0.14847  1.0000 -0.5611082415
O   O14       1.0  0.69178  0.25163  0.17758  1.0000 -0.5508211504
O   O15       1.0  0.96174  0.86464  0.85153  1.0000 -0.5611082415
O   O16       1.0  0.80822  0.75163  0.82242  1.0000 -0.5508211504
