# DDEC6 charges by PACMAN v1.1 (https://github.com/mtap-research/PACMAN-charge/)
data_2019[Cd][hcb]2[ASR]5
_chemical_formula_sum              "Cd4 H48 C76 S4 N4 O24"
_cell_length_a       10.574
_cell_length_b       22.363
_cell_length_c       10.867
_cell_angle_alpha    90
_cell_angle_beta     95.176
_cell_angle_gamma    90

_symmetry_space_group_name_H-M    "P 1"
_symmetry_Int_Tables_number       1

loop_
  _symmetry_equiv_pos_as_xyz
  'x, y, z'

loop_
  _atom_site_type_symbol
  _atom_site_label
  _atom_site_symmetry_multiplicity
  _atom_site_fract_x
  _atom_site_fract_y
  _atom_site_fract_z
  _atom_site_occupancy
  _atom_site_charge
Cd  Cd1       1.0  0.72824  0.53141  0.43613  1.0000 0.886236596
Cd  Cd2       1.0  0.27176  0.03141  0.06387  1.0000 0.886236596
Cd  Cd3       1.0  0.27176  0.46859  0.56387  1.0000 0.886236596
Cd  Cd4       1.0  0.72824  0.96859  0.93613  1.0000 0.886236596
H   H1        1.0  0.73620  0.57840  0.16240  1.0000 0.1204133011
H   H2        1.0  0.84570  0.56950  0.98850  1.0000 0.1367365342
H   H3        1.0  0.05660  0.44040  0.16240  1.0000 0.1367365342
H   H4        1.0  0.94230  0.45310  0.33200  1.0000 0.1204133011
H   H5        1.0  0.96510  0.35790  0.67660  1.0000 0.1282708858
H   H6        1.0  0.99830  0.29910  0.85530  1.0000 0.1282708858
H   H7        1.0  0.71970  0.39040  0.00840  1.0000 0.1282708858
H   H8        1.0  0.68510  0.44770  0.82830  1.0000 0.1282708858
H   H9        1.0  0.62680  0.13400  0.92810  1.0000 0.1282708858
H   H10       1.0  0.80220  0.19820  0.93140  1.0000 0.1282708858
H   H11       1.0  0.67360  0.28870  0.21770  1.0000 0.1204133011
H   H12       1.0  0.50370  0.22140  0.22070  1.0000 0.1204133011
H   H13       1.0  0.26380  0.07840  0.33760  1.0000 0.1204133011
H   H14       1.0  0.15430  0.06950  0.51150  1.0000 0.1367365342
H   H15       1.0  0.94340  0.94040  0.33760  1.0000 0.1367365342
H   H16       1.0  0.05770  0.95310  0.16800  1.0000 0.1204133011
H   H17       1.0  0.03490  0.85790  0.82340  1.0000 0.1282708858
H   H18       1.0  0.00170  0.79910  0.64470  1.0000 0.1282708858
H   H19       1.0  0.28030  0.89040  0.49160  1.0000 0.1282708858
H   H20       1.0  0.31490  0.94770  0.67170  1.0000 0.1282708858
H   H21       1.0  0.37320  0.63400  0.57190  1.0000 0.1282708858
H   H22       1.0  0.19780  0.69820  0.56860  1.0000 0.1282708858
H   H23       1.0  0.32640  0.78870  0.28230  1.0000 0.1204133011
H   H24       1.0  0.49630  0.72140  0.27930  1.0000 0.1204133011
H   H25       1.0  0.26380  0.42160  0.83760  1.0000 0.1204133011
H   H26       1.0  0.15430  0.43050  0.01150  1.0000 0.1367365342
H   H27       1.0  0.94340  0.55960  0.83760  1.0000 0.1282708858
H   H28       1.0  0.05770  0.54690  0.66800  1.0000 0.1204133011
H   H29       1.0  0.03490  0.64210  0.32340  1.0000 0.1282708858
H   H30       1.0  0.00170  0.70090  0.14470  1.0000 0.1282708858
H   H31       1.0  0.28030  0.60960  0.99160  1.0000 0.1282708858
H   H32       1.0  0.31490  0.55230  0.17170  1.0000 0.1282708858
H   H33       1.0  0.37320  0.86600  0.07190  1.0000 0.1282708858
H   H34       1.0  0.19780  0.80180  0.06860  1.0000 0.1282708858
H   H35       1.0  0.32640  0.71130  0.78230  1.0000 0.1204133011
H   H36       1.0  0.49630  0.77860  0.77930  1.0000 0.1204133011
H   H37       1.0  0.73620  0.92160  0.66240  1.0000 0.1204133011
H   H38       1.0  0.84570  0.93050  0.48850  1.0000 0.1367365342
H   H39       1.0  0.05660  0.05960  0.66240  1.0000 0.1367365342
H   H40       1.0  0.94230  0.04690  0.83200  1.0000 0.1204133011
H   H41       1.0  0.96510  0.14210  0.17660  1.0000 0.1282708858
H   H42       1.0  0.99830  0.20090  0.35530  1.0000 0.1282708858
H   H43       1.0  0.71970  0.10960  0.50840  1.0000 0.1282708858
H   H44       1.0  0.68510  0.05230  0.32830  1.0000 0.1282708858
H   H45       1.0  0.62680  0.36600  0.42810  1.0000 0.1282708858
H   H46       1.0  0.80220  0.30180  0.43140  1.0000 0.1282708858
H   H47       1.0  0.67360  0.21130  0.71770  1.0000 0.1204133011
H   H48       1.0  0.50370  0.27860  0.72070  1.0000 0.1204133011
C   C1        1.0  0.80300  0.54990  0.16270  1.0000 0.082015547
C   C2        1.0  0.86770  0.54470  0.05810  1.0000 -0.1794653525
C   C3        1.0  0.96360  0.50369  0.05510  1.0000 0.1060388787
C   C4        1.0  0.99080  0.46943  0.15990  1.0000 -0.1794653525
C   C5        1.0  0.92210  0.47737  0.26120  1.0000 0.1033445141
C   C6        1.0  0.80180  0.44657  0.62120  1.0000 0.5328369616
C   C7        1.0  0.82230  0.40829  0.73560  1.0000 -0.0015253731
C   C8        1.0  0.91510  0.36429  0.74380  1.0000 -0.088300174
C   C9        1.0  0.93530  0.32953  0.84950  1.0000 -0.100680341
C   C10       1.0  0.86130  0.34019  0.94680  1.0000 -0.088300174
C   C11       1.0  0.76890  0.38377  0.94070  1.0000 -0.1162556977
C   C12       1.0  0.74910  0.41772  0.83420  1.0000 -0.100680341
C   C13       1.0  0.44480  0.12649  0.07920  1.0000 0.5462776898
C   C14       1.0  0.55060  0.17110  0.07590  1.0000 0.0040473063
C   C15       1.0  0.63790  0.16474  0.98860  1.0000 -0.088300174
C   C16       1.0  0.74080  0.20302  0.98930  1.0000 -0.100680341
C   C17       1.0  0.75250  0.24844  0.07610  1.0000 -0.0801526242
C   C18       1.0  0.66510  0.25649  0.16050  1.0000 -0.100680341
C   C19       1.0  0.56380  0.21691  0.16140  1.0000 -0.088300174
C   C20       1.0  0.19700  0.04990  0.33730  1.0000 0.082015547
C   C21       1.0  0.13230  0.04470  0.44190  1.0000 -0.1794653525
C   C22       1.0  0.03640  0.00369  0.44490  1.0000 0.1060388787
C   C23       1.0  0.00920  0.96943  0.34010  1.0000 -0.1794653525
C   C24       1.0  0.07790  0.97737  0.23880  1.0000 0.1033445141
C   C25       1.0  0.19820  0.94657  0.87880  1.0000 0.5328369616
C   C26       1.0  0.17770  0.90829  0.76440  1.0000 -0.0015253731
C   C27       1.0  0.08490  0.86429  0.75620  1.0000 -0.088300174
C   C28       1.0  0.06470  0.82953  0.65050  1.0000 -0.100680341
C   C29       1.0  0.13870  0.84019  0.55320  1.0000 -0.088300174
C   C30       1.0  0.23110  0.88377  0.55930  1.0000 -0.1162556977
C   C31       1.0  0.25090  0.91772  0.66580  1.0000 -0.100680341
C   C32       1.0  0.55520  0.62649  0.42080  1.0000 0.5462776898
C   C33       1.0  0.44940  0.67110  0.42410  1.0000 0.0040473063
C   C34       1.0  0.36210  0.66474  0.51140  1.0000 -0.088300174
C   C35       1.0  0.25920  0.70302  0.51070  1.0000 -0.100680341
C   C36       1.0  0.24750  0.74844  0.42390  1.0000 -0.0801526242
C   C37       1.0  0.33490  0.75649  0.33950  1.0000 -0.100680341
C   C38       1.0  0.43620  0.71691  0.33860  1.0000 -0.088300174
C   C39       1.0  0.19700  0.45010  0.83730  1.0000 0.082015547
C   C40       1.0  0.13230  0.45530  0.94190  1.0000 -0.1794653525
C   C41       1.0  0.03640  0.49631  0.94490  1.0000 0.1060388787
C   C42       1.0  0.00920  0.53057  0.84010  1.0000 -0.1794653525
C   C43       1.0  0.07790  0.52263  0.73880  1.0000 0.1033445141
C   C44       1.0  0.19820  0.55343  0.37880  1.0000 0.5328369616
C   C45       1.0  0.17770  0.59171  0.26440  1.0000 -0.0015253731
C   C46       1.0  0.08490  0.63571  0.25620  1.0000 -0.088300174
C   C47       1.0  0.06470  0.67047  0.15050  1.0000 -0.100680341
C   C48       1.0  0.13870  0.65981  0.05320  1.0000 -0.088300174
C   C49       1.0  0.23110  0.61623  0.05930  1.0000 -0.1162556977
C   C50       1.0  0.25090  0.58228  0.16580  1.0000 -0.100680341
C   C51       1.0  0.55520  0.87351  0.92080  1.0000 0.5462776898
C   C52       1.0  0.44940  0.82890  0.92410  1.0000 0.0040473063
C   C53       1.0  0.36210  0.83526  0.01140  1.0000 -0.088300174
C   C54       1.0  0.25920  0.79698  0.01070  1.0000 -0.100680341
C   C55       1.0  0.24750  0.75156  0.92390  1.0000 -0.0801526242
C   C56       1.0  0.33490  0.74351  0.83950  1.0000 -0.100680341
C   C57       1.0  0.43620  0.78309  0.83860  1.0000 -0.088300174
C   C58       1.0  0.80300  0.95010  0.66270  1.0000 0.082015547
C   C59       1.0  0.86770  0.95530  0.55810  1.0000 -0.1794653525
C   C60       1.0  0.96360  0.99631  0.55510  1.0000 0.1060388787
C   C61       1.0  0.99080  0.03057  0.65990  1.0000 -0.1794653525
C   C62       1.0  0.92210  0.02263  0.76120  1.0000 0.1033445141
C   C63       1.0  0.80180  0.05343  0.12120  1.0000 0.5328369616
C   C64       1.0  0.82230  0.09171  0.23560  1.0000 -0.0015253731
C   C65       1.0  0.91510  0.13571  0.24380  1.0000 -0.088300174
C   C66       1.0  0.93530  0.17047  0.34950  1.0000 -0.100680341
C   C67       1.0  0.86130  0.15981  0.44680  1.0000 -0.088300174
C   C68       1.0  0.76890  0.11623  0.44070  1.0000 -0.1162556977
C   C69       1.0  0.74910  0.08228  0.33420  1.0000 -0.100680341
C   C70       1.0  0.44480  0.37351  0.57920  1.0000 0.5462776898
C   C71       1.0  0.55060  0.32890  0.57590  1.0000 0.0040473063
C   C72       1.0  0.63790  0.33526  0.48860  1.0000 -0.088300174
C   C73       1.0  0.74080  0.29698  0.48930  1.0000 -0.100680341
C   C74       1.0  0.75250  0.25156  0.57610  1.0000 -0.0801526242
C   C75       1.0  0.66510  0.24351  0.66050  1.0000 -0.100680341
C   C76       1.0  0.56380  0.28309  0.66140  1.0000 -0.088300174
S   S1        1.0  0.88700  0.29542  0.08107  1.0000 0.9598094701
S   S2        1.0  0.11300  0.79542  0.41893  1.0000 0.9598094701
S   S3        1.0  0.11300  0.70458  0.91893  1.0000 0.9598094701
S   S4        1.0  0.88700  0.20458  0.58107  1.0000 0.9598094701
N   N1        1.0  0.82990  0.51702  0.26410  1.0000 -0.2383565427
N   N2        1.0  0.17010  0.01702  0.23590  1.0000 -0.2383565427
N   N3        1.0  0.17010  0.48298  0.73590  1.0000 -0.2383565427
N   N4        1.0  0.82990  0.98298  0.76410  1.0000 -0.2383565427
O   O1        1.0  0.70960  0.48302  0.61590  1.0000 -0.5296045364
O   O2        1.0  0.87330  0.44174  0.53705  1.0000 -0.5573574425
O   O3        1.0  0.38370  0.12347  0.17290  1.0000 -0.570145321
O   O4        1.0  0.42090  0.09276  0.98840  1.0000 -0.5139905036
O   O5        1.0  0.99660  0.25864  0.06860  1.0000 -0.502758068
O   O6        1.0  0.88510  0.33316  0.18860  1.0000 -0.5182432653
O   O7        1.0  0.29040  0.98302  0.88410  1.0000 -0.5296045364
O   O8        1.0  0.12670  0.94174  0.96295  1.0000 -0.5573574425
O   O9        1.0  0.61630  0.62347  0.32710  1.0000 -0.570145321
O   O10       1.0  0.57910  0.59276  0.51160  1.0000 -0.5139905036
O   O11       1.0  0.00340  0.75864  0.43140  1.0000 -0.502758068
O   O12       1.0  0.11490  0.83316  0.31140  1.0000 -0.5182432653
O   O13       1.0  0.29040  0.51698  0.38410  1.0000 -0.5296045364
O   O14       1.0  0.12670  0.55826  0.46295  1.0000 -0.5573574425
O   O15       1.0  0.61630  0.87653  0.82710  1.0000 -0.570145321
O   O16       1.0  0.57910  0.90724  0.01160  1.0000 -0.5139905036
O   O17       1.0  0.00340  0.74136  0.93140  1.0000 -0.502758068
O   O18       1.0  0.11490  0.66684  0.81140  1.0000 -0.5182432653
O   O19       1.0  0.70960  0.01698  0.11590  1.0000 -0.5296045364
O   O20       1.0  0.87330  0.05826  0.03705  1.0000 -0.5573574425
O   O21       1.0  0.38370  0.37653  0.67290  1.0000 -0.570145321
O   O22       1.0  0.42090  0.40724  0.48840  1.0000 -0.5139905036
O   O23       1.0  0.99660  0.24136  0.56860  1.0000 -0.502758068
O   O24       1.0  0.88510  0.16684  0.68860  1.0000 -0.5182432653
