# DDEC6 charges by PACMAN v1.1 (https://github.com/mtap-research/PACMAN-charge/)
data_2019[Zn][raa]3[ASR]1
_chemical_formula_sum              "Zn8 H64 C56 N48"
_cell_length_a       10.7858
_cell_length_b       12.3368
_cell_length_c       19.1805
_cell_angle_alpha    90
_cell_angle_beta     118.718
_cell_angle_gamma    90

_symmetry_space_group_name_H-M    "P 1"
_symmetry_Int_Tables_number       1

loop_
  _symmetry_equiv_pos_as_xyz
  'x, y, z'

loop_
  _atom_site_type_symbol
  _atom_site_label
  _atom_site_symmetry_multiplicity
  _atom_site_fract_x
  _atom_site_fract_y
  _atom_site_fract_z
  _atom_site_occupancy
  _atom_site_charge
Zn  Zn1       1.0  0.87396  0.73434  0.59952  1.0000 0.6772050333
Zn  Zn2       1.0  0.25308  0.74597  0.46026  1.0000 0.6731583547
Zn  Zn3       1.0  0.12604  0.23434  0.90048  1.0000 0.6772050333
Zn  Zn4       1.0  0.74692  0.24597  0.03974  1.0000 0.6731583547
Zn  Zn5       1.0  0.12604  0.26566  0.40048  1.0000 0.6772050333
Zn  Zn6       1.0  0.74692  0.25403  0.53974  1.0000 0.6731583547
Zn  Zn7       1.0  0.87396  0.76566  0.09952  1.0000 0.6772050333
Zn  Zn8       1.0  0.25308  0.75403  0.96026  1.0000 0.6731583547
H   H1        1.0  0.27700  0.67990  0.28760  1.0000 0.1606514231
H   H2        1.0  0.18130  0.59140  0.30050  1.0000 0.1681723865
H   H3        1.0  0.13890  0.63290  0.21280  1.0000 0.1606514231
H   H4        1.0  0.88640  0.95110  0.35790  1.0000 0.1606514231
H   H5        1.0  0.04870  0.98720  0.40010  1.0000 0.1606514231
H   H6        1.0  0.18550  0.67660  0.66310  1.0000 0.1513484183
H   H7        1.0  0.24330  0.63610  0.60480  1.0000 0.1606514231
H   H8        1.0  0.30850  0.74240  0.65780  1.0000 0.1681723865
H   H9        1.0  0.80900  0.90840  0.70250  1.0000 0.1513484183
H   H10       1.0  0.75720  0.00770  0.64130  1.0000 0.1513484183
H   H11       1.0  0.67340  0.97750  0.68850  1.0000 0.1681723865
H   H12       1.0  0.58180  0.69470  0.41400  1.0000 0.1606514231
H   H13       1.0  0.46400  0.63180  0.42600  1.0000 0.1513484183
H   H14       1.0  0.03460  0.49800  0.67270  1.0000 0.1606514231
H   H15       1.0  0.01520  0.38300  0.63000  1.0000 0.1606514231
H   H16       1.0  0.06280  0.48650  0.59840  1.0000 0.1606514231
H   H17       1.0  0.72300  0.17990  0.21240  1.0000 0.1606514231
H   H18       1.0  0.81870  0.09140  0.19950  1.0000 0.1681723865
H   H19       1.0  0.86110  0.13290  0.28720  1.0000 0.1606514231
H   H20       1.0  0.11360  0.45110  0.14210  1.0000 0.1606514231
H   H21       1.0  0.95130  0.48720  0.09990  1.0000 0.1606514231
H   H22       1.0  0.81450  0.17660  0.83690  1.0000 0.1513484183
H   H23       1.0  0.75670  0.13610  0.89520  1.0000 0.1606514231
H   H24       1.0  0.69150  0.24240  0.84220  1.0000 0.1681723865
H   H25       1.0  0.19100  0.40840  0.79750  1.0000 0.1513484183
H   H26       1.0  0.24280  0.50770  0.85870  1.0000 0.1513484183
H   H27       1.0  0.32660  0.47750  0.81150  1.0000 0.1681723865
H   H28       1.0  0.41820  0.19470  0.08600  1.0000 0.1606514231
H   H29       1.0  0.53600  0.13180  0.07400  1.0000 0.1513484183
H   H30       1.0  0.96540  0.99800  0.82730  1.0000 0.1606514231
H   H31       1.0  0.98480  0.88300  0.87000  1.0000 0.1606514231
H   H32       1.0  0.93720  0.98650  0.90160  1.0000 0.1606514231
H   H33       1.0  0.72300  0.32010  0.71240  1.0000 0.1606514231
H   H34       1.0  0.81870  0.40860  0.69950  1.0000 0.1681723865
H   H35       1.0  0.86110  0.36710  0.78720  1.0000 0.1606514231
H   H36       1.0  0.11360  0.04890  0.64210  1.0000 0.1606514231
H   H37       1.0  0.95130  0.01280  0.59990  1.0000 0.1606514231
H   H38       1.0  0.81450  0.32340  0.33690  1.0000 0.1513484183
H   H39       1.0  0.75670  0.36390  0.39520  1.0000 0.1606514231
H   H40       1.0  0.69150  0.25760  0.34220  1.0000 0.1681723865
H   H41       1.0  0.19100  0.09160  0.29750  1.0000 0.1513484183
H   H42       1.0  0.24280  0.99230  0.35870  1.0000 0.1513484183
H   H43       1.0  0.32660  0.02250  0.31150  1.0000 0.1681723865
H   H44       1.0  0.41820  0.30530  0.58600  1.0000 0.1606514231
H   H45       1.0  0.53600  0.36820  0.57400  1.0000 0.1513484183
H   H46       1.0  0.96540  0.50200  0.32730  1.0000 0.1606514231
H   H47       1.0  0.98480  0.61700  0.37000  1.0000 0.1606514231
H   H48       1.0  0.93720  0.51350  0.40160  1.0000 0.1606514231
H   H49       1.0  0.27700  0.82010  0.78760  1.0000 0.1606514231
H   H50       1.0  0.18130  0.90860  0.80050  1.0000 0.1681723865
H   H51       1.0  0.13890  0.86710  0.71280  1.0000 0.1606514231
H   H52       1.0  0.88640  0.54890  0.85790  1.0000 0.1606514231
H   H53       1.0  0.04870  0.51280  0.90010  1.0000 0.1513484183
H   H54       1.0  0.18550  0.82340  0.16310  1.0000 0.1513484183
H   H55       1.0  0.24330  0.86390  0.10480  1.0000 0.1606514231
H   H56       1.0  0.30850  0.75760  0.15780  1.0000 0.1681723865
H   H57       1.0  0.80900  0.59160  0.20250  1.0000 0.1513484183
H   H58       1.0  0.75720  0.49230  0.14130  1.0000 0.1513484183
H   H59       1.0  0.67340  0.52250  0.18850  1.0000 0.1681723865
H   H60       1.0  0.58180  0.80530  0.91400  1.0000 0.1606514231
H   H61       1.0  0.46400  0.86820  0.92600  1.0000 0.1513484183
H   H62       1.0  0.03460  0.00200  0.17270  1.0000 0.1606514231
H   H63       1.0  0.01520  0.11700  0.13000  1.0000 0.1606514231
H   H64       1.0  0.06280  0.01350  0.09840  1.0000 0.1606514231
C   C1        1.0  0.18016  0.65410  0.26876  1.0000 -0.5344435352
C   C2        1.0  0.09419  0.74210  0.27699  1.0000 0.3954892528
C   C3        1.0  0.00752  0.85650  0.32562  1.0000 0.361002497
C   C4        1.0  0.98475  0.92370  0.38435  1.0000 -0.3736458946
C   C5        1.0  0.01063  0.86280  0.45773  1.0000 0.361002497
C   C6        1.0  0.11470  0.76720  0.56290  1.0000 0.4071260687
C   C7        1.0  0.22210  0.69990  0.62760  1.0000 -0.5379413742
C   C8        1.0  0.72630  0.94810  0.66310  1.0000 -0.5192253816
C   C9        1.0  0.63380  0.87340  0.59780  1.0000 0.4071260687
C   C10       1.0  0.56342  0.75030  0.50912  1.0000 0.3720609021
C   C11       1.0  0.56076  0.66220  0.45436  1.0000 -0.3834431994
C   C12       1.0  0.66175  0.57250  0.49445  1.0000 0.361002497
C   C13       1.0  0.85385  0.48770  0.56685  1.0000 0.4071260687
C   C14       1.0  0.00440  0.46160  0.62160  1.0000 -0.5379413742
C   C15       1.0  0.81984  0.15410  0.23124  1.0000 -0.5344435352
C   C16       1.0  0.90581  0.24210  0.22301  1.0000 0.3954892528
C   C17       1.0  0.99248  0.35650  0.17438  1.0000 0.361002497
C   C18       1.0  0.01525  0.42370  0.11565  1.0000 -0.3736458946
C   C19       1.0  0.98937  0.36280  0.04227  1.0000 0.361002497
C   C20       1.0  0.88530  0.26720  0.93710  1.0000 0.4071260687
C   C21       1.0  0.77790  0.19990  0.87240  1.0000 -0.5379413742
C   C22       1.0  0.27370  0.44810  0.83690  1.0000 -0.5192253816
C   C23       1.0  0.36620  0.37340  0.90220  1.0000 0.4071260687
C   C24       1.0  0.43658  0.25030  0.99088  1.0000 0.3720609021
C   C25       1.0  0.43924  0.16220  0.04564  1.0000 -0.3834431994
C   C26       1.0  0.33825  0.07250  0.00555  1.0000 0.361002497
C   C27       1.0  0.14615  0.98770  0.93315  1.0000 0.4071260687
C   C28       1.0  0.99560  0.96160  0.87840  1.0000 -0.5379413742
C   C29       1.0  0.81984  0.34590  0.73124  1.0000 -0.5344435352
C   C30       1.0  0.90581  0.25790  0.72301  1.0000 0.3954892528
C   C31       1.0  0.99248  0.14350  0.67438  1.0000 0.361002497
C   C32       1.0  0.01525  0.07630  0.61565  1.0000 -0.3736458946
C   C33       1.0  0.98937  0.13720  0.54227  1.0000 0.361002497
C   C34       1.0  0.88530  0.23280  0.43710  1.0000 0.4071260687
C   C35       1.0  0.77790  0.30010  0.37240  1.0000 -0.5379413742
C   C36       1.0  0.27370  0.05190  0.33690  1.0000 -0.5192253816
C   C37       1.0  0.36620  0.12660  0.40220  1.0000 0.4071260687
C   C38       1.0  0.43658  0.24970  0.49088  1.0000 0.3720609021
C   C39       1.0  0.43924  0.33780  0.54564  1.0000 -0.3834431994
C   C40       1.0  0.33825  0.42750  0.50555  1.0000 0.361002497
C   C41       1.0  0.14615  0.51230  0.43315  1.0000 0.4071260687
C   C42       1.0  0.99560  0.53840  0.37840  1.0000 -0.5379413742
C   C43       1.0  0.18016  0.84590  0.76876  1.0000 -0.5344435352
C   C44       1.0  0.09419  0.75790  0.77699  1.0000 0.3954892528
C   C45       1.0  0.00752  0.64350  0.82562  1.0000 0.361002497
C   C46       1.0  0.98475  0.57630  0.88435  1.0000 -0.3736458946
C   C47       1.0  0.01063  0.63720  0.95773  1.0000 0.361002497
C   C48       1.0  0.11470  0.73280  0.06290  1.0000 0.4071260687
C   C49       1.0  0.22210  0.80010  0.12760  1.0000 -0.5379413742
C   C50       1.0  0.72630  0.55190  0.16310  1.0000 -0.5192253816
C   C51       1.0  0.63380  0.62660  0.09780  1.0000 0.4071260687
C   C52       1.0  0.56342  0.74970  0.00912  1.0000 0.3720609021
C   C53       1.0  0.56076  0.83780  0.95436  1.0000 -0.3834431994
C   C54       1.0  0.66175  0.92750  0.99445  1.0000 0.361002497
C   C55       1.0  0.85385  0.01230  0.06685  1.0000 0.4071260687
C   C56       1.0  0.00440  0.03840  0.12160  1.0000 -0.5379413742
N   N1        1.0  0.68297  0.79790  0.56477  1.0000 -0.4440167326
N   N2        1.0  0.49566  0.87380  0.56566  1.0000 -0.2977155599
N   N3        1.0  0.45098  0.79240  0.50838  1.0000 -0.2810173858
N   N4        1.0  0.80279  0.58900  0.54729  1.0000 -0.4440167326
N   N5        1.0  0.62841  0.46940  0.48181  1.0000 -0.2898277271
N   N6        1.0  0.75298  0.41480  0.52948  1.0000 -0.2810173858
N   N7        1.0  0.99021  0.79720  0.55501  1.0000 -0.2977155599
N   N8        1.0  0.92136  0.85890  0.48586  1.0000 -0.2898277271
N   N9        1.0  0.13246  0.80740  0.50296  1.0000 -0.4345855642
N   N10       1.0  0.11650  0.78490  0.34700  1.0000 -0.4585208822
N   N11       1.0  0.92390  0.86080  0.24870  1.0000 -0.2898277271
N   N12       1.0  0.98074  0.78600  0.21734  1.0000 -0.2810173858
N   N13       1.0  0.31703  0.29790  0.93523  1.0000 -0.4440167326
N   N14       1.0  0.50434  0.37380  0.93434  1.0000 -0.2977155599
N   N15       1.0  0.54902  0.29240  0.99162  1.0000 -0.2810173858
N   N16       1.0  0.19721  0.08900  0.95271  1.0000 -0.4440167326
N   N17       1.0  0.37159  0.96940  0.01819  1.0000 -0.2898277271
N   N18       1.0  0.24702  0.91480  0.97052  1.0000 -0.2810173858
N   N19       1.0  0.00979  0.29720  0.94499  1.0000 -0.2977155599
N   N20       1.0  0.07864  0.35890  0.01414  1.0000 -0.2898277271
N   N21       1.0  0.86754  0.30740  0.99704  1.0000 -0.4345855642
N   N22       1.0  0.88350  0.28490  0.15300  1.0000 -0.4585208822
N   N23       1.0  0.07610  0.36080  0.25130  1.0000 -0.2898277271
N   N24       1.0  0.01926  0.28600  0.28266  1.0000 -0.2810173858
N   N25       1.0  0.31703  0.20210  0.43523  1.0000 -0.4440167326
N   N26       1.0  0.50434  0.12620  0.43434  1.0000 -0.2977155599
N   N27       1.0  0.54902  0.20760  0.49162  1.0000 -0.2810173858
N   N28       1.0  0.19721  0.41100  0.45271  1.0000 -0.4440167326
N   N29       1.0  0.37159  0.53060  0.51819  1.0000 -0.2898277271
N   N30       1.0  0.24702  0.58520  0.47052  1.0000 -0.2810173858
N   N31       1.0  0.00979  0.20280  0.44499  1.0000 -0.2977155599
N   N32       1.0  0.07864  0.14110  0.51414  1.0000 -0.2898277271
N   N33       1.0  0.86754  0.19260  0.49704  1.0000 -0.4345855642
N   N34       1.0  0.88350  0.21510  0.65300  1.0000 -0.4585208822
N   N35       1.0  0.07610  0.13920  0.75130  1.0000 -0.2898277271
N   N36       1.0  0.01926  0.21400  0.78266  1.0000 -0.2810173858
N   N37       1.0  0.68297  0.70210  0.06477  1.0000 -0.4440167326
N   N38       1.0  0.49566  0.62620  0.06566  1.0000 -0.2977155599
N   N39       1.0  0.45098  0.70760  0.00838  1.0000 -0.2810173858
N   N40       1.0  0.80279  0.91100  0.04729  1.0000 -0.4440167326
N   N41       1.0  0.62841  0.03060  0.98181  1.0000 -0.2898277271
N   N42       1.0  0.75298  0.08520  0.02948  1.0000 -0.2810173858
N   N43       1.0  0.99021  0.70280  0.05501  1.0000 -0.2977155599
N   N44       1.0  0.92136  0.64110  0.98586  1.0000 -0.2898277271
N   N45       1.0  0.13246  0.69260  0.00296  1.0000 -0.4345855642
N   N46       1.0  0.11650  0.71510  0.84700  1.0000 -0.4585208822
N   N47       1.0  0.92390  0.63920  0.74870  1.0000 -0.2898277271
N   N48       1.0  0.98074  0.71400  0.71734  1.0000 -0.2810173858
