# DDEC6 charges by PACMAN v1.1 (https://github.com/mtap-research/PACMAN-charge/)
data_2019[Zn][sql]2[ASR]11
_chemical_formula_sum              "Zn4 H46 C78 N10 O20 F8"
_cell_length_a       12.5194
_cell_length_b       14.5007
_cell_length_c       16.5672
_cell_angle_alpha    80.405
_cell_angle_beta     70.32
_cell_angle_gamma    69.843

_symmetry_space_group_name_H-M    "P 1"
_symmetry_Int_Tables_number       1

loop_
  _symmetry_equiv_pos_as_xyz
  'x, y, z'

loop_
  _atom_site_type_symbol
  _atom_site_label
  _atom_site_symmetry_multiplicity
  _atom_site_fract_x
  _atom_site_fract_y
  _atom_site_fract_z
  _atom_site_occupancy
  _atom_site_charge
Zn  Zn1       1.0  0.68627  0.29697  0.24825  1.0000 0.7977168154
Zn  Zn2       1.0  0.02942  0.76691  0.36716  1.0000 0.7332135629
Zn  Zn3       1.0  0.31373  0.70303  0.75175  1.0000 0.7977168154
Zn  Zn4       1.0  0.97058  0.23309  0.63284  1.0000 0.7332135629
H   H1        1.0  0.05673  0.37970  0.18573  1.0000 0.2896937024
H   H2        1.0  0.59740  0.77685  0.11589  1.0000 0.2896937024
H   H3        1.0  0.31562  0.21232  0.41151  1.0000 0.131359922
H   H4        1.0  0.03108  0.32723  0.32514  1.0000 0.1370778651
H   H5        1.0  0.35320  0.34335  0.17595  1.0000 0.1370778651
H   H6        1.0  0.91076  0.24659  0.10288  1.0000 0.1095603348
H   H7        1.0  0.05781  0.11254  0.03779  1.0000 0.131359922
H   H8        1.0  0.03994  0.95647  0.08771  1.0000 0.131359922
H   H9        1.0  0.88199  0.94118  0.19864  1.0000 0.1507112053
H   H10       1.0  0.73823  0.07886  0.26119  1.0000 0.1221629441
H   H11       1.0  0.91574  0.51698  0.27723  1.0000 0.1221629441
H   H12       1.0  0.80513  0.80024  0.19618  1.0000 0.131359922
H   H13       1.0  0.67951  0.60503  0.14492  1.0000 0.131359922
H   H14       1.0  0.24222  0.76601  0.40902  1.0000 0.1095603348
H   H15       1.0  0.44107  0.67975  0.38782  1.0000 0.1370778651
H   H16       1.0  0.52714  0.54538  0.30334  1.0000 0.131359922
H   H17       1.0  0.41517  0.50211  0.23998  1.0000 0.1507112053
H   H18       1.0  0.21461  0.59493  0.26476  1.0000 0.1221629441
H   H19       1.0  0.89112  0.95424  0.44011  1.0000 0.1221629441
H   H20       1.0  0.86675  0.12389  0.43206  1.0000 0.1370778651
H   H21       1.0  0.99744  0.16960  0.31597  1.0000 0.131359922
H   H22       1.0  0.15809  0.07123  0.22932  1.0000 0.131359922
H   H23       1.0  0.18435  0.89549  0.24719  1.0000 0.0955370855
H   H24       1.0  0.94327  0.62030  0.81427  1.0000 0.2896937024
H   H25       1.0  0.40260  0.22315  0.88411  1.0000 0.2896937024
H   H26       1.0  0.68438  0.78768  0.58849  1.0000 0.131359922
H   H27       1.0  0.96892  0.67277  0.67486  1.0000 0.1370778651
H   H28       1.0  0.64680  0.65665  0.82405  1.0000 0.1370778651
H   H29       1.0  0.08924  0.75341  0.89712  1.0000 0.1095603348
H   H30       1.0  0.94219  0.88746  0.96221  1.0000 0.131359922
H   H31       1.0  0.96006  0.04353  0.91229  1.0000 0.131359922
H   H32       1.0  0.11801  0.05882  0.80136  1.0000 0.1507112053
H   H33       1.0  0.26177  0.92114  0.73881  1.0000 0.1221629441
H   H34       1.0  0.08426  0.48302  0.72277  1.0000 0.1221629441
H   H35       1.0  0.19487  0.19976  0.80382  1.0000 0.131359922
H   H36       1.0  0.32049  0.39497  0.85508  1.0000 0.131359922
H   H37       1.0  0.75778  0.23399  0.59098  1.0000 0.1095603348
H   H38       1.0  0.55893  0.32025  0.61218  1.0000 0.1370778651
H   H39       1.0  0.47286  0.45462  0.69666  1.0000 0.131359922
H   H40       1.0  0.58483  0.49789  0.76002  1.0000 0.1507112053
H   H41       1.0  0.78539  0.40507  0.73524  1.0000 0.1221629441
H   H42       1.0  0.10888  0.04576  0.55989  1.0000 0.1221629441
H   H43       1.0  0.13325  0.87611  0.56794  1.0000 0.1370778651
H   H44       1.0  0.00256  0.83040  0.68403  1.0000 0.1370778651
H   H45       1.0  0.84191  0.92877  0.77068  1.0000 0.131359922
H   H46       1.0  0.81565  0.10451  0.75281  1.0000 0.0955370855
C   C1        1.0  0.48150  0.25730  0.28310  1.0000 0.5511849713
C   C2        1.0  0.07820  0.24680  0.46930  1.0000 0.5275350999
C   C3        1.0  0.35230  0.27530  0.29250  1.0000 -0.0042904404
C   C4        1.0  0.28170  0.24620  0.36880  1.0000 -0.1091379952
C   C5        1.0  0.16080  0.26660  0.38280  1.0000 0.0003173094
C   C6        1.0  0.11220  0.31330  0.31670  1.0000 -0.2102961275
C   C7        1.0  0.18440  0.33880  0.23860  1.0000 0.2273051519
C   C8        1.0  0.30530  0.32260  0.22710  1.0000 -0.1764029223
C   C9        1.0  0.17170  0.42330  0.09740  1.0000 0.5032612276
C   C10       1.0  0.08210  0.46350  0.04710  1.0000 -0.2102961275
C   C11       1.0  0.04040  0.56240  0.02630  1.0000 0.1507112053
C   C12       1.0  0.95960  0.59770  0.98120  1.0000 0.1370778651
C   C13       1.0  0.90550  0.18400  0.12310  1.0000 0.0603300747
C   C14       1.0  0.99290  0.10490  0.08340  1.0000 -0.1304988969
C   C15       1.0  0.98190  0.01220  0.11350  1.0000 -0.0375779565
C   C16       1.0  0.88950  0.00310  0.17840  1.0000 -0.1304988969
C   C17       1.0  0.80390  0.08610  0.21610  1.0000 0.0884547275
C   C18       1.0  0.80280  0.43820  0.21420  1.0000 0.542400856
C   C19       1.0  0.94630  0.68560  0.28620  1.0000 0.5511849713
C   C20       1.0  0.79910  0.54390  0.21130  1.0000 -0.0155968103
C   C21       1.0  0.86920  0.56660  0.24860  1.0000 -0.1361430515
C   C22       1.0  0.87170  0.66200  0.24420  1.0000 -0.0065829163
C   C23       1.0  0.80290  0.73620  0.20030  1.0000 -0.1931761313
C   C24       1.0  0.73160  0.71470  0.16300  1.0000 0.2273051519
C   C25       1.0  0.72870  0.61930  0.16910  1.0000 -0.2201511297
C   C26       1.0  0.67570  0.87540  0.08430  1.0000 0.5063157272
C   C27       1.0  0.58170  0.93880  0.04180  1.0000 -0.1931761313
C   C28       1.0  0.58540  0.92040  0.96430  1.0000 0.1370778651
C   C29       1.0  0.50320  0.98080  0.92270  1.0000 0.1370778651
C   C30       1.0  0.27720  0.71300  0.37400  1.0000 0.0603300747
C   C31       1.0  0.39640  0.66130  0.36230  1.0000 -0.152556609
C   C32       1.0  0.44720  0.58160  0.31180  1.0000 -0.0375779565
C   C33       1.0  0.38170  0.55560  0.27440  1.0000 -0.1361430515
C   C34       1.0  0.26070  0.61280  0.28950  1.0000 0.1095603348
C   C35       1.0  0.94810  0.97750  0.39780  1.0000 0.0365352374
C   C36       1.0  0.92760  0.07990  0.39370  1.0000 -0.1304988969
C   C37       1.0  0.00850  0.10250  0.32710  1.0000 -0.0673592646
C   C38       1.0  0.10430  0.04530  0.27240  1.0000 -0.1361430515
C   C39       1.0  0.12040  0.93960  0.28360  1.0000 0.0805529099
C   C40       1.0  0.51850  0.74270  0.71690  1.0000 0.5511849713
C   C41       1.0  0.92180  0.75320  0.53070  1.0000 0.5275350999
C   C42       1.0  0.64770  0.72470  0.70750  1.0000 -0.0042904404
C   C43       1.0  0.71830  0.75380  0.63120  1.0000 -0.1091379952
C   C44       1.0  0.83920  0.73340  0.61720  1.0000 0.0003173094
C   C45       1.0  0.88780  0.68670  0.68330  1.0000 -0.2102961275
C   C46       1.0  0.81560  0.66120  0.76140  1.0000 0.2273051519
C   C47       1.0  0.69470  0.67740  0.77290  1.0000 -0.1764029223
C   C48       1.0  0.82830  0.57670  0.90260  1.0000 0.5032612276
C   C49       1.0  0.91790  0.53650  0.95290  1.0000 -0.2102961275
C   C50       1.0  0.95960  0.43760  0.97370  1.0000 0.1507112053
C   C51       1.0  0.04040  0.40230  0.01880  1.0000 0.1370778651
C   C52       1.0  0.09450  0.81600  0.87690  1.0000 0.0603300747
C   C53       1.0  0.00710  0.89510  0.91660  1.0000 -0.1304988969
C   C54       1.0  0.01810  0.98780  0.88650  1.0000 -0.0375779565
C   C55       1.0  0.11050  0.99690  0.82160  1.0000 -0.1304988969
C   C56       1.0  0.19610  0.91390  0.78390  1.0000 0.0884547275
C   C57       1.0  0.19720  0.56180  0.78580  1.0000 0.542400856
C   C58       1.0  0.05370  0.31440  0.71380  1.0000 0.5511849713
C   C59       1.0  0.20090  0.45610  0.78870  1.0000 -0.0155968103
C   C60       1.0  0.13080  0.43340  0.75140  1.0000 -0.1361430515
C   C61       1.0  0.12830  0.33800  0.75580  1.0000 -0.0065829163
C   C62       1.0  0.19710  0.26380  0.79970  1.0000 -0.1931761313
C   C63       1.0  0.26840  0.28530  0.83700  1.0000 0.2273051519
C   C64       1.0  0.27130  0.38070  0.83090  1.0000 -0.2201511297
C   C65       1.0  0.32430  0.12460  0.91570  1.0000 0.5063157272
C   C66       1.0  0.41830  0.06120  0.95820  1.0000 -0.1931761313
C   C67       1.0  0.41460  0.07960  0.03570  1.0000 0.1370778651
C   C68       1.0  0.49680  0.01920  0.07730  1.0000 0.1370778651
C   C69       1.0  0.72280  0.28700  0.62600  1.0000 0.0603300747
C   C70       1.0  0.60360  0.33870  0.63770  1.0000 -0.152556609
C   C71       1.0  0.55280  0.41840  0.68820  1.0000 -0.0375779565
C   C72       1.0  0.61830  0.44440  0.72560  1.0000 -0.1304988969
C   C73       1.0  0.73930  0.38720  0.71050  1.0000 0.1095603348
C   C74       1.0  0.05190  0.02250  0.60220  1.0000 0.0365352374
C   C75       1.0  0.07240  0.92010  0.60630  1.0000 -0.1304988969
C   C76       1.0  0.99150  0.89750  0.67290  1.0000 -0.0673592646
C   C77       1.0  0.89570  0.95470  0.72760  1.0000 -0.1361430515
C   C78       1.0  0.87960  0.06040  0.71640  1.0000 0.0805529099
N   N1        1.0  0.12850  0.38120  0.17400  1.0000 -0.353912096
N   N2        1.0  0.81130  0.17540  0.19070  1.0000 -0.2309308532
N   N3        1.0  0.65840  0.78830  0.11990  1.0000 -0.3626886118
N   N4        1.0  0.20910  0.69050  0.33700  1.0000 -0.2309308532
N   N5        1.0  0.03930  0.90870  0.34840  1.0000 -0.2465155531
N   N6        1.0  0.87150  0.61880  0.82600  1.0000 -0.353912096
N   N7        1.0  0.18870  0.82460  0.80930  1.0000 -0.2309308532
N   N8        1.0  0.34160  0.21170  0.88010  1.0000 -0.3626886118
N   N9        1.0  0.79090  0.30950  0.66300  1.0000 -0.2309308532
N   N10       1.0  0.96070  0.09130  0.65160  1.0000 -0.2465155531
O   O1        1.0  0.53200  0.31460  0.23030  1.0000 -0.5321430374
O   O2        1.0  0.53250  0.18960  0.32710  1.0000 -0.5659600306
O   O3        1.0  0.12280  0.21690  0.52920  1.0000 -0.4921216476
O   O4        1.0  0.97250  0.26200  0.48150  1.0000 -0.5321430374
O   O5        1.0  0.26990  0.43240  0.06850  1.0000 -0.4412763823
O   O6        1.0  0.71150  0.42500  0.20500  1.0000 -0.5399246622
O   O7        1.0  0.88850  0.37190  0.22670  1.0000 -0.5494044829
O   O8        1.0  0.95400  0.77280  0.27480  1.0000 -0.5494044829
O   O9        1.0  0.99640  0.62200  0.33390  1.0000 -0.5321430374
O   O10       1.0  0.75290  0.90450  0.08470  1.0000 -0.4203943122
O   O11       1.0  0.46800  0.68540  0.76970  1.0000 -0.5399246622
O   O12       1.0  0.46750  0.81040  0.67290  1.0000 -0.5659600306
O   O13       1.0  0.87720  0.78310  0.47080  1.0000 -0.4921216476
O   O14       1.0  0.02750  0.73800  0.51850  1.0000 -0.5321430374
O   O15       1.0  0.73010  0.56760  0.93150  1.0000 -0.4412763823
O   O16       1.0  0.28850  0.57500  0.79500  1.0000 -0.5399246622
O   O17       1.0  0.11150  0.62810  0.77330  1.0000 -0.5494044829
O   O18       1.0  0.04600  0.22720  0.72520  1.0000 -0.5494044829
O   O19       1.0  0.00360  0.37800  0.66610  1.0000 -0.5321430374
O   O20       1.0  0.24710  0.09550  0.91530  1.0000 -0.4203943122
F   F1        1.0  0.91770  0.69630  0.96490  1.0000 -0.1091379952
F   F2        1.0  0.07620  0.62700  0.05200  1.0000 -0.1091379952
F   F3        1.0  0.66840  0.83750  0.92680  1.0000 -0.1091379952
F   F4        1.0  0.51070  0.95050  0.84330  1.0000 -0.1091379952
F   F5        1.0  0.08230  0.30370  0.03510  1.0000 -0.1091379952
F   F6        1.0  0.92380  0.37300  0.94800  1.0000 -0.1091379952
F   F7        1.0  0.33160  0.16250  0.07320  1.0000 -0.1091379952
F   F8        1.0  0.48930  0.04950  0.15670  1.0000 -0.1091379952
