# DDEC6 charges by PACMAN v1.1 (https://github.com/mtap-research/PACMAN-charge/)
data_2019[V][nan]3[ASR]4
_chemical_formula_sum              "V4 H12 C32 O20"
_cell_length_a       12.1746
_cell_length_b       12.1746
_cell_length_c       12.1746
_cell_angle_alpha    104.016
_cell_angle_beta     104.016
_cell_angle_gamma    121.039

_symmetry_space_group_name_H-M    "P 1"
_symmetry_Int_Tables_number       1

loop_
  _symmetry_equiv_pos_as_xyz
  'x, y, z'

loop_
  _atom_site_type_symbol
  _atom_site_label
  _atom_site_symmetry_multiplicity
  _atom_site_fract_x
  _atom_site_fract_y
  _atom_site_fract_z
  _atom_site_occupancy
  _atom_site_charge
V   V1        1.0  0.69656  0.30344  0.00000  1.0000 1.841610854
V   V2        1.0  0.30344  0.69656  0.00000  1.0000 1.841610854
V   V3        1.0  0.55344  0.05344  0.10688  1.0000 1.841610854
V   V4        1.0  0.94656  0.44656  0.89312  1.0000 1.841610854
H   H1        1.0  0.05154  0.60395  0.31731  1.0000 0.1384218554
H   H2        1.0  0.28664  0.73423  0.68269  1.0000 0.1384218554
H   H3        1.0  0.85395  0.03664  0.05241  1.0000 0.1384218554
H   H4        1.0  0.98423  0.80154  0.94759  1.0000 0.1384218554
H   H5        1.0  0.19846  0.01577  0.05241  1.0000 0.1384218554
H   H6        1.0  0.96336  0.14605  0.94759  1.0000 0.1384218554
H   H7        1.0  0.39605  0.94846  0.68269  1.0000 0.1384218554
H   H8        1.0  0.26577  0.71336  0.31731  1.0000 0.1384218554
H   H9        1.0  0.87413  0.37413  0.50000  1.0000 0.1476549855
H   H10       1.0  0.62413  0.62413  0.00000  1.0000 0.1476549855
H   H11       1.0  0.37587  0.37587  0.00000  1.0000 0.1476549855
H   H12       1.0  0.62587  0.12587  0.50000  1.0000 0.1476549855
C   C1        1.0  0.06020  0.58990  0.39150  1.0000 -0.1312350468
C   C2        1.0  0.94370  0.47030  0.38940  1.0000 -0.0136121279
C   C3        1.0  0.81300  0.36200  0.26800  1.0000 0.62293872
C   C4        1.0  0.19840  0.66870  0.60850  1.0000 -0.1312350468
C   C5        1.0  0.08090  0.55430  0.61060  1.0000 -0.0136121279
C   C6        1.0  0.09400  0.54500  0.73200  1.0000 0.62293872
C   C7        1.0  0.83990  0.94840  0.02970  1.0000 -0.1312350468
C   C8        1.0  0.72030  0.83090  0.02660  1.0000 -0.0136121279
C   C9        1.0  0.61200  0.84400  0.04900  1.0000 0.62293872
C   C10       1.0  0.91870  0.81020  0.97030  1.0000 -0.1312350468
C   C11       1.0  0.80430  0.69370  0.97340  1.0000 -0.0136121279
C   C12       1.0  0.79500  0.56300  0.95100  1.0000 0.62293872
C   C13       1.0  0.18980  0.08130  0.02970  1.0000 -0.1312350468
C   C14       1.0  0.30630  0.19570  0.02660  1.0000 -0.0136121279
C   C15       1.0  0.43700  0.20500  0.04900  1.0000 0.62293872
C   C16       1.0  0.05160  0.16010  0.97030  1.0000 -0.1312350468
C   C17       1.0  0.16910  0.27970  0.97340  1.0000 -0.0136121279
C   C18       1.0  0.15600  0.38800  0.95100  1.0000 0.62293872
C   C19       1.0  0.41010  0.93980  0.60850  1.0000 -0.1312350468
C   C20       1.0  0.52970  0.05630  0.61060  1.0000 -0.0136121279
C   C21       1.0  0.63800  0.18700  0.73200  1.0000 0.62293872
C   C22       1.0  0.33130  0.80160  0.39150  1.0000 -0.1312350468
C   C23       1.0  0.44570  0.91910  0.38940  1.0000 -0.0136121279
C   C24       1.0  0.45500  0.90600  0.26800  1.0000 0.62293872
C   C25       1.0  0.95340  0.45340  0.50000  1.0000 -0.1008273312
C   C26       1.0  0.18690  0.68690  0.50000  1.0000 0.0678181401
C   C27       1.0  0.70340  0.70340  0.00000  1.0000 -0.1008273312
C   C28       1.0  0.93690  0.93690  0.00000  1.0000 0.0678181401
C   C29       1.0  0.29660  0.29660  0.00000  1.0000 -0.1008273312
C   C30       1.0  0.06310  0.06310  0.00000  1.0000 0.0678181401
C   C31       1.0  0.54660  0.04660  0.50000  1.0000 -0.1008273312
C   C32       1.0  0.31310  0.81310  0.50000  1.0000 0.0678181401
O   O1        1.0  0.79190  0.40340  0.18590  1.0000 -0.5673997351
O   O2        1.0  0.73670  0.23590  0.25620  1.0000 -0.5618644604
O   O3        1.0  0.21750  0.60600  0.81410  1.0000 -0.5673997351
O   O4        1.0  0.97970  0.48050  0.74380  1.0000 -0.5618644604
O   O5        1.0  0.65340  0.96750  0.11150  1.0000 -0.5673997351
O   O6        1.0  0.48590  0.72970  0.99920  1.0000 -0.5618644604
O   O7        1.0  0.85600  0.54190  0.88850  1.0000 -0.5673997351
O   O8        1.0  0.73050  0.48670  0.00080  1.0000 -0.5618644604
O   O9        1.0  0.45810  0.14400  0.11150  1.0000 -0.5673997351
O   O10       1.0  0.51330  0.26950  0.99920  1.0000 -0.5618644604
O   O11       1.0  0.03250  0.34660  0.88850  1.0000 -0.5673997351
O   O12       1.0  0.27030  0.51410  0.00080  1.0000 -0.5618644604
O   O13       1.0  0.59660  0.20810  0.81410  1.0000 -0.5673997351
O   O14       1.0  0.76410  0.26330  0.74380  1.0000 -0.5618644604
O   O15       1.0  0.39400  0.78250  0.18590  1.0000 -0.5673997351
O   O16       1.0  0.51950  0.02030  0.25620  1.0000 -0.5618644604
O   O17       1.0  0.87230  0.37500  0.99730  1.0000 -0.9307550588
O   O18       1.0  0.37770  0.87500  0.00270  1.0000 -0.9307550588
O   O19       1.0  0.62500  0.12770  0.00270  1.0000 -0.9307550588
O   O20       1.0  0.12500  0.62230  0.99730  1.0000 -0.9307550588
