# DDEC6 charges by PACMAN v1.1 (https://github.com/mtap-research/PACMAN-charge/)
data_2019[Zn][nan]3[ASR]20
_chemical_formula_sum              "Zn4 H8 C28 N4 O16"
_cell_length_a       7.176
_cell_length_b       7.176
_cell_length_c       20.115
_cell_angle_alpha    90
_cell_angle_beta     90
_cell_angle_gamma    90

_symmetry_space_group_name_H-M    "P 1"
_symmetry_Int_Tables_number       1

loop_
  _symmetry_equiv_pos_as_xyz
  'x, y, z'

loop_
  _atom_site_type_symbol
  _atom_site_label
  _atom_site_symmetry_multiplicity
  _atom_site_fract_x
  _atom_site_fract_y
  _atom_site_fract_z
  _atom_site_occupancy
  _atom_site_charge
Zn  Zn1       1.0  0.50000  0.50000  0.72199  1.0000 0.8667192097
Zn  Zn2       1.0  0.00000  0.00000  0.22199  1.0000 0.8667192097
Zn  Zn3       1.0  0.00000  0.00000  0.77801  1.0000 0.8667192097
Zn  Zn4       1.0  0.50000  0.50000  0.27801  1.0000 0.8667192097
H   H1        1.0  0.20040  0.20040  0.55210  1.0000 0.1373460824
H   H2        1.0  0.79960  0.79960  0.55210  1.0000 0.1373460824
H   H3        1.0  0.29960  0.70040  0.05210  1.0000 0.1373460824
H   H4        1.0  0.70040  0.29960  0.05210  1.0000 0.1373460824
H   H5        1.0  0.29960  0.70040  0.94790  1.0000 0.1373460824
H   H6        1.0  0.70040  0.29960  0.94790  1.0000 0.1373460824
H   H7        1.0  0.20040  0.20040  0.44790  1.0000 0.1373460824
H   H8        1.0  0.79960  0.79960  0.44790  1.0000 0.1373460824
C   C1        1.0  0.00000  0.00000  0.53690  1.0000 0.1032443206
C   C2        1.0  0.50000  0.50000  0.03690  1.0000 0.1032443206
C   C3        1.0  0.50000  0.50000  0.96310  1.0000 0.1032443206
C   C4        1.0  0.00000  0.00000  0.46310  1.0000 0.1032443206
C   C5        1.0  0.23700  0.23700  0.68880  1.0000 0.5442486043
C   C6        1.0  0.11500  0.11500  0.64370  1.0000 0.1686048741
C   C7        1.0  0.11970  0.11970  0.57400  1.0000 -0.1875648414
C   C8        1.0  0.76300  0.76300  0.68880  1.0000 0.5442486043
C   C9        1.0  0.88500  0.88500  0.64370  1.0000 0.1686048741
C   C10       1.0  0.88030  0.88030  0.57400  1.0000 -0.1875648414
C   C11       1.0  0.26300  0.73700  0.18880  1.0000 0.5442486043
C   C12       1.0  0.38500  0.61500  0.14370  1.0000 0.1686048741
C   C13       1.0  0.38030  0.61970  0.07400  1.0000 -0.1875648414
C   C14       1.0  0.73700  0.26300  0.18880  1.0000 0.5442486043
C   C15       1.0  0.61500  0.38500  0.14370  1.0000 0.1686048741
C   C16       1.0  0.61970  0.38030  0.07400  1.0000 -0.1875648414
C   C17       1.0  0.26300  0.73700  0.81120  1.0000 0.5442486043
C   C18       1.0  0.38500  0.61500  0.85630  1.0000 0.1686048741
C   C19       1.0  0.38030  0.61970  0.92600  1.0000 -0.1875648414
C   C20       1.0  0.73700  0.26300  0.81120  1.0000 0.5442486043
C   C21       1.0  0.61500  0.38500  0.85630  1.0000 0.1686048741
C   C22       1.0  0.61970  0.38030  0.92600  1.0000 -0.1875648414
C   C23       1.0  0.23700  0.23700  0.31120  1.0000 0.5442486043
C   C24       1.0  0.11500  0.11500  0.35630  1.0000 0.1686048741
C   C25       1.0  0.11970  0.11970  0.42600  1.0000 -0.1875648414
C   C26       1.0  0.76300  0.76300  0.31120  1.0000 0.5442486043
C   C27       1.0  0.88500  0.88500  0.35630  1.0000 0.1686048741
C   C28       1.0  0.88030  0.88030  0.42600  1.0000 -0.1875648414
N   N1        1.0  0.00000  0.00000  0.67660  1.0000 -0.2551306849
N   N2        1.0  0.50000  0.50000  0.17660  1.0000 -0.2547676926
N   N3        1.0  0.50000  0.50000  0.82340  1.0000 -0.2551306849
N   N4        1.0  0.00000  0.00000  0.32340  1.0000 -0.2547676926
O   O1        1.0  0.34810  0.34810  0.66070  1.0000 -0.5007932922
O   O2        1.0  0.21470  0.21470  0.75068  1.0000 -0.519348598
O   O3        1.0  0.65190  0.65190  0.66070  1.0000 -0.5007932922
O   O4        1.0  0.78530  0.78530  0.75068  1.0000 -0.519348598
O   O5        1.0  0.15190  0.84810  0.16070  1.0000 -0.5007932922
O   O6        1.0  0.28530  0.71470  0.25068  1.0000 -0.519348598
O   O7        1.0  0.84810  0.15190  0.16070  1.0000 -0.5007932922
O   O8        1.0  0.71470  0.28530  0.25068  1.0000 -0.519348598
O   O9        1.0  0.15190  0.84810  0.83930  1.0000 -0.5007932922
O   O10       1.0  0.28530  0.71470  0.74932  1.0000 -0.519348598
O   O11       1.0  0.84810  0.15190  0.83930  1.0000 -0.5007932922
O   O12       1.0  0.71470  0.28530  0.74932  1.0000 -0.519348598
O   O13       1.0  0.34810  0.34810  0.33930  1.0000 -0.5007932922
O   O14       1.0  0.21470  0.21470  0.24932  1.0000 -0.519348598
O   O15       1.0  0.65190  0.65190  0.33930  1.0000 -0.5007932922
O   O16       1.0  0.78530  0.78530  0.24932  1.0000 -0.519348598
