# DDEC6 charges by PACMAN v1.1 (https://github.com/mtap-research/PACMAN-charge/)
data_2019[Fe][ant]3[ASR]1
_chemical_formula_sum              "Fe12 H48 C96 N16 O40"
_cell_length_a       15.1681
_cell_length_b       15.1681
_cell_length_c       21.4872
_cell_angle_alpha    90
_cell_angle_beta     90
_cell_angle_gamma    90

_symmetry_space_group_name_H-M    "P 1"
_symmetry_Int_Tables_number       1

loop_
  _symmetry_equiv_pos_as_xyz
  'x, y, z'

loop_
  _atom_site_type_symbol
  _atom_site_label
  _atom_site_symmetry_multiplicity
  _atom_site_fract_x
  _atom_site_fract_y
  _atom_site_fract_z
  _atom_site_occupancy
  _atom_site_charge
Fe  Fe1       1.0  0.23336  0.84119  0.39789  1.0000 0.9577758603
Fe  Fe2       1.0  0.76664  0.15881  0.89789  1.0000 0.9577758603
Fe  Fe3       1.0  0.65881  0.73336  0.14789  1.0000 0.9577758603
Fe  Fe4       1.0  0.34119  0.26664  0.64789  1.0000 0.9577758603
Fe  Fe5       1.0  0.26664  0.34119  0.35211  1.0000 0.9577758603
Fe  Fe6       1.0  0.73336  0.65881  0.85211  1.0000 0.9577758603
Fe  Fe7       1.0  0.84119  0.23336  0.60211  1.0000 0.9577758603
Fe  Fe8       1.0  0.15881  0.76664  0.10211  1.0000 0.9577758603
Fe  Fe9       1.0  0.29017  0.29017  0.50000  1.0000 1.328307464
Fe  Fe10      1.0  0.70983  0.70983  0.00000  1.0000 1.328307464
Fe  Fe11      1.0  0.20983  0.79017  0.25000  1.0000 1.328307464
Fe  Fe12      1.0  0.79017  0.20983  0.75000  1.0000 1.328307464
H   H1        1.0  0.35851  0.97806  0.63751  1.0000 0.1392023482
H   H2        1.0  0.34999  0.82625  0.61798  1.0000 0.1273482037
H   H3        1.0  0.27379  0.02127  0.46232  1.0000 0.1216382526
H   H4        1.0  0.35593  0.68830  0.58914  1.0000 0.1273482037
H   H5        1.0  0.34408  0.54290  0.55381  1.0000 0.1392023482
H   H6        1.0  0.25108  0.63463  0.39052  1.0000 0.1273482037
H   H7        1.0  0.64149  0.02194  0.13751  1.0000 0.1392023482
H   H8        1.0  0.65001  0.17375  0.11798  1.0000 0.1273482037
H   H9        1.0  0.72621  0.97873  0.96232  1.0000 0.1216382526
H   H10       1.0  0.64407  0.31170  0.08914  1.0000 0.1273482037
H   H11       1.0  0.65592  0.45710  0.05381  1.0000 0.1392023482
H   H12       1.0  0.74892  0.36537  0.89052  1.0000 0.1273482037
H   H13       1.0  0.52194  0.85851  0.38751  1.0000 0.1392023482
H   H14       1.0  0.67375  0.84999  0.36798  1.0000 0.1273482037
H   H15       1.0  0.47873  0.77379  0.21232  1.0000 0.1216382526
H   H16       1.0  0.81170  0.85593  0.33914  1.0000 0.1273482037
H   H17       1.0  0.95710  0.84408  0.30381  1.0000 0.1392023482
H   H18       1.0  0.86537  0.75108  0.14052  1.0000 0.1273482037
H   H19       1.0  0.47806  0.14149  0.88751  1.0000 0.1392023482
H   H20       1.0  0.32625  0.15001  0.86798  1.0000 0.1273482037
H   H21       1.0  0.52127  0.22621  0.71232  1.0000 0.1216382526
H   H22       1.0  0.18830  0.14407  0.83914  1.0000 0.1273482037
H   H23       1.0  0.04290  0.15592  0.80381  1.0000 0.1392023482
H   H24       1.0  0.13463  0.24892  0.64052  1.0000 0.1273482037
H   H25       1.0  0.14149  0.47806  0.11249  1.0000 0.1392023482
H   H26       1.0  0.15001  0.32625  0.13202  1.0000 0.1273482037
H   H27       1.0  0.22621  0.52127  0.28768  1.0000 0.1216382526
H   H28       1.0  0.14407  0.18830  0.16086  1.0000 0.1273482037
H   H29       1.0  0.15592  0.04290  0.19619  1.0000 0.1392023482
H   H30       1.0  0.24892  0.13463  0.35948  1.0000 0.1273482037
H   H31       1.0  0.85851  0.52194  0.61249  1.0000 0.1392023482
H   H32       1.0  0.84999  0.67375  0.63202  1.0000 0.1273482037
H   H33       1.0  0.77379  0.47873  0.78768  1.0000 0.1216382526
H   H34       1.0  0.85593  0.81170  0.66086  1.0000 0.1273482037
H   H35       1.0  0.84408  0.95710  0.69619  1.0000 0.1392023482
H   H36       1.0  0.75108  0.86537  0.85948  1.0000 0.1273482037
H   H37       1.0  0.97806  0.35851  0.36249  1.0000 0.1392023482
H   H38       1.0  0.82625  0.34999  0.38202  1.0000 0.1273482037
H   H39       1.0  0.02127  0.27379  0.53768  1.0000 0.1216382526
H   H40       1.0  0.68830  0.35593  0.41086  1.0000 0.1273482037
H   H41       1.0  0.54290  0.34408  0.44619  1.0000 0.1392023482
H   H42       1.0  0.63463  0.25108  0.60948  1.0000 0.1273482037
H   H43       1.0  0.02194  0.64149  0.86249  1.0000 0.1392023482
H   H44       1.0  0.17375  0.65001  0.88202  1.0000 0.1273482037
H   H45       1.0  0.97873  0.72621  0.03768  1.0000 0.1216382526
H   H46       1.0  0.31170  0.64407  0.91086  1.0000 0.1273482037
H   H47       1.0  0.45710  0.65592  0.94619  1.0000 0.1392023482
H   H48       1.0  0.36537  0.74892  0.10948  1.0000 0.1273482037
C   C1        1.0  0.31640  0.11312  0.56108  1.0000 0.5749592029
C   C2        1.0  0.31710  0.01498  0.55126  1.0000 -0.0736434616
C   C3        1.0  0.34030  0.95690  0.59794  1.0000 -0.0574925866
C   C4        1.0  0.33650  0.86750  0.58611  1.0000 -0.186530907
C   C5        1.0  0.31290  0.83870  0.52732  1.0000 0.1619153723
C   C6        1.0  0.29130  0.98129  0.49404  1.0000 0.0814583355
C   C7        1.0  0.30870  0.74430  0.50977  1.0000 0.1520264105
C   C8        1.0  0.33410  0.67620  0.54858  1.0000 -0.1841666003
C   C9        1.0  0.32730  0.59050  0.52764  1.0000 -0.0496053702
C   C10       1.0  0.29560  0.57420  0.46792  1.0000 -0.0785762851
C   C11       1.0  0.27180  0.64509  0.43158  1.0000 0.0814583355
C   C12       1.0  0.28930  0.47983  0.44668  1.0000 0.5795592212
C   C13       1.0  0.68360  0.88688  0.06108  1.0000 0.5795592212
C   C14       1.0  0.68290  0.98502  0.05126  1.0000 -0.0736434616
C   C15       1.0  0.65970  0.04310  0.09794  1.0000 -0.0574925866
C   C16       1.0  0.66350  0.13250  0.08611  1.0000 -0.186530907
C   C17       1.0  0.68710  0.16130  0.02732  1.0000 0.1619153723
C   C18       1.0  0.70870  0.01871  0.99404  1.0000 0.0814583355
C   C19       1.0  0.69130  0.25570  0.00977  1.0000 0.1520264105
C   C20       1.0  0.66590  0.32380  0.04858  1.0000 -0.186530907
C   C21       1.0  0.67270  0.40950  0.02764  1.0000 -0.0496053702
C   C22       1.0  0.70440  0.42580  0.96792  1.0000 -0.0785762851
C   C23       1.0  0.72820  0.35491  0.93158  1.0000 0.0814583355
C   C24       1.0  0.71070  0.52017  0.94668  1.0000 0.5855315172
C   C25       1.0  0.38688  0.81640  0.31108  1.0000 0.5795592212
C   C26       1.0  0.48502  0.81710  0.30126  1.0000 -0.0736434616
C   C27       1.0  0.54310  0.84030  0.34794  1.0000 -0.0574925866
C   C28       1.0  0.63250  0.83650  0.33611  1.0000 -0.186530907
C   C29       1.0  0.66130  0.81290  0.27732  1.0000 0.1619153723
C   C30       1.0  0.51871  0.79130  0.24404  1.0000 0.0814583355
C   C31       1.0  0.75570  0.80870  0.25977  1.0000 0.1520264105
C   C32       1.0  0.82380  0.83410  0.29858  1.0000 -0.1841666003
C   C33       1.0  0.90950  0.82730  0.27764  1.0000 -0.0496053702
C   C34       1.0  0.92580  0.79560  0.21792  1.0000 -0.0785762851
C   C35       1.0  0.85491  0.77180  0.18158  1.0000 0.0814583355
C   C36       1.0  0.02017  0.78930  0.19668  1.0000 0.5795592212
C   C37       1.0  0.61312  0.18360  0.81108  1.0000 0.5795592212
C   C38       1.0  0.51498  0.18290  0.80126  1.0000 -0.0736434616
C   C39       1.0  0.45690  0.15970  0.84794  1.0000 -0.0574925866
C   C40       1.0  0.36750  0.16350  0.83611  1.0000 -0.186530907
C   C41       1.0  0.33870  0.18710  0.77732  1.0000 0.1619153723
C   C42       1.0  0.48129  0.20870  0.74404  1.0000 0.0814583355
C   C43       1.0  0.24430  0.19130  0.75977  1.0000 0.1520264105
C   C44       1.0  0.17620  0.16590  0.79858  1.0000 -0.1841666003
C   C45       1.0  0.09050  0.17270  0.77764  1.0000 -0.0496053702
C   C46       1.0  0.07420  0.20440  0.71792  1.0000 -0.0785762851
C   C47       1.0  0.14509  0.22820  0.68158  1.0000 0.0814583355
C   C48       1.0  0.97983  0.21070  0.69668  1.0000 0.5795592212
C   C49       1.0  0.18360  0.61312  0.18892  1.0000 0.5795592212
C   C50       1.0  0.18290  0.51498  0.19874  1.0000 -0.0736434616
C   C51       1.0  0.15970  0.45690  0.15206  1.0000 -0.0574925866
C   C52       1.0  0.16350  0.36750  0.16389  1.0000 -0.186530907
C   C53       1.0  0.18710  0.33870  0.22268  1.0000 0.1619153723
C   C54       1.0  0.20870  0.48129  0.25596  1.0000 0.0814583355
C   C55       1.0  0.19130  0.24430  0.24023  1.0000 0.1520264105
C   C56       1.0  0.16590  0.17620  0.20142  1.0000 -0.1841666003
C   C57       1.0  0.17270  0.09050  0.22236  1.0000 -0.0496053702
C   C58       1.0  0.20440  0.07420  0.28208  1.0000 -0.0785762851
C   C59       1.0  0.22820  0.14509  0.31842  1.0000 0.0814583355
C   C60       1.0  0.21070  0.97983  0.30332  1.0000 0.5795592212
C   C61       1.0  0.81640  0.38688  0.68892  1.0000 0.5795592212
C   C62       1.0  0.81710  0.48502  0.69874  1.0000 -0.0736434616
C   C63       1.0  0.84030  0.54310  0.65206  1.0000 -0.0574925866
C   C64       1.0  0.83650  0.63250  0.66389  1.0000 -0.186530907
C   C65       1.0  0.81290  0.66130  0.72268  1.0000 0.1619153723
C   C66       1.0  0.79130  0.51871  0.75596  1.0000 0.0814583355
C   C67       1.0  0.80870  0.75570  0.74023  1.0000 0.1520264105
C   C68       1.0  0.83410  0.82380  0.70142  1.0000 -0.1841666003
C   C69       1.0  0.82730  0.90950  0.72236  1.0000 -0.0496053702
C   C70       1.0  0.79560  0.92580  0.78208  1.0000 -0.0785762851
C   C71       1.0  0.77180  0.85491  0.81842  1.0000 0.0814583355
C   C72       1.0  0.78930  0.02017  0.80332  1.0000 0.5795592212
C   C73       1.0  0.11312  0.31640  0.43892  1.0000 0.5795592212
C   C74       1.0  0.01498  0.31710  0.44874  1.0000 -0.0736434616
C   C75       1.0  0.95690  0.34030  0.40206  1.0000 -0.0574925866
C   C76       1.0  0.86750  0.33650  0.41389  1.0000 -0.186530907
C   C77       1.0  0.83870  0.31290  0.47268  1.0000 0.1619153723
C   C78       1.0  0.98129  0.29130  0.50596  1.0000 0.0814583355
C   C79       1.0  0.74430  0.30870  0.49023  1.0000 0.1520264105
C   C80       1.0  0.67620  0.33410  0.45142  1.0000 -0.1841666003
C   C81       1.0  0.59050  0.32730  0.47236  1.0000 -0.0496053702
C   C82       1.0  0.57420  0.29560  0.53208  1.0000 -0.0785762851
C   C83       1.0  0.64509  0.27180  0.56842  1.0000 0.0814583355
C   C84       1.0  0.47983  0.28930  0.55332  1.0000 0.5855315172
C   C85       1.0  0.88688  0.68360  0.93892  1.0000 0.5795592212
C   C86       1.0  0.98502  0.68290  0.94874  1.0000 -0.0736434616
C   C87       1.0  0.04310  0.65970  0.90206  1.0000 -0.0574925866
C   C88       1.0  0.13250  0.66350  0.91389  1.0000 -0.186530907
C   C89       1.0  0.16130  0.68710  0.97268  1.0000 0.1619153723
C   C90       1.0  0.01871  0.70870  0.00596  1.0000 0.0814583355
C   C91       1.0  0.25570  0.69130  0.99023  1.0000 0.1520264105
C   C92       1.0  0.32380  0.66590  0.95142  1.0000 -0.1841666003
C   C93       1.0  0.40950  0.67270  0.97236  1.0000 -0.0496053702
C   C94       1.0  0.42580  0.70440  0.03208  1.0000 -0.0785762851
C   C95       1.0  0.35491  0.72820  0.06842  1.0000 0.0814583355
C   C96       1.0  0.52017  0.71070  0.05332  1.0000 0.5855315172
N   N1        1.0  0.29000  0.89538  0.48177  1.0000 -0.2640585077
N   N2        1.0  0.27692  0.72795  0.45203  1.0000 -0.2428911782
N   N3        1.0  0.71000  0.10462  0.98177  1.0000 -0.2640585077
N   N4        1.0  0.72308  0.27205  0.95203  1.0000 -0.2428911782
N   N5        1.0  0.60462  0.79000  0.23177  1.0000 -0.2652701594
N   N6        1.0  0.77205  0.77692  0.20203  1.0000 -0.2428911782
N   N7        1.0  0.39538  0.21000  0.73177  1.0000 -0.2640585077
N   N8        1.0  0.22795  0.22308  0.70203  1.0000 -0.2428911782
N   N9        1.0  0.21000  0.39538  0.26823  1.0000 -0.2640585077
N   N10       1.0  0.22308  0.22795  0.29797  1.0000 -0.2428911782
N   N11       1.0  0.79000  0.60462  0.76823  1.0000 -0.2640585077
N   N12       1.0  0.77692  0.77205  0.79797  1.0000 -0.2428911782
N   N13       1.0  0.89538  0.29000  0.51823  1.0000 -0.2640585077
N   N14       1.0  0.72795  0.27692  0.54797  1.0000 -0.2428911782
N   N15       1.0  0.10462  0.71000  0.01823  1.0000 -0.2640585077
N   N16       1.0  0.27205  0.72308  0.04797  1.0000 -0.2428911782
O   O1        1.0  0.28916  0.15802  0.51539  1.0000 -0.5318271235
O   O2        1.0  0.34296  0.14102  0.61263  1.0000 -0.5318271235
O   O3        1.0  0.27970  0.46584  0.38924  1.0000 -0.5318271235
O   O4        1.0  0.29150  0.42409  0.48876  1.0000 -0.5241464383
O   O5        1.0  0.26983  0.31199  0.58632  1.0000 -0.7824118815
O   O6        1.0  0.71084  0.84198  0.01539  1.0000 -0.5318271235
O   O7        1.0  0.65704  0.85898  0.11263  1.0000 -0.5318271235
O   O8        1.0  0.72030  0.53416  0.88924  1.0000 -0.5353584446
O   O9        1.0  0.70850  0.57591  0.98876  1.0000 -0.5241464383
O   O10       1.0  0.73017  0.68801  0.08632  1.0000 -0.7824118815
O   O11       1.0  0.34198  0.78916  0.26539  1.0000 -0.5318271235
O   O12       1.0  0.35898  0.84296  0.36263  1.0000 -0.5318271235
O   O13       1.0  0.03416  0.77970  0.13924  1.0000 -0.5353584446
O   O14       1.0  0.07591  0.79150  0.23876  1.0000 -0.5241464383
O   O15       1.0  0.18801  0.76983  0.33632  1.0000 -0.7824118815
O   O16       1.0  0.65802  0.21084  0.76539  1.0000 -0.5318271235
O   O17       1.0  0.64102  0.15704  0.86263  1.0000 -0.5318271235
O   O18       1.0  0.96584  0.22030  0.63924  1.0000 -0.5353584446
O   O19       1.0  0.92409  0.20850  0.73876  1.0000 -0.5241464383
O   O20       1.0  0.81199  0.23017  0.83632  1.0000 -0.7824118815
O   O21       1.0  0.21084  0.65802  0.23461  1.0000 -0.5318271235
O   O22       1.0  0.15704  0.64102  0.13737  1.0000 -0.5318271235
O   O23       1.0  0.22030  0.96584  0.36076  1.0000 -0.5353584446
O   O24       1.0  0.20850  0.92409  0.26124  1.0000 -0.5241464383
O   O25       1.0  0.23017  0.81199  0.16368  1.0000 -0.7824118815
O   O26       1.0  0.78916  0.34198  0.73461  1.0000 -0.5318271235
O   O27       1.0  0.84296  0.35898  0.63737  1.0000 -0.5318271235
O   O28       1.0  0.77970  0.03416  0.86076  1.0000 -0.5318271235
O   O29       1.0  0.79150  0.07591  0.76124  1.0000 -0.5241464383
O   O30       1.0  0.76983  0.18801  0.66368  1.0000 -0.7824118815
O   O31       1.0  0.15802  0.28916  0.48461  1.0000 -0.5318271235
O   O32       1.0  0.14102  0.34296  0.38737  1.0000 -0.5318271235
O   O33       1.0  0.46584  0.27970  0.61076  1.0000 -0.5318271235
O   O34       1.0  0.42409  0.29150  0.51124  1.0000 -0.5241464383
O   O35       1.0  0.31199  0.26983  0.41368  1.0000 -0.7824118815
O   O36       1.0  0.84198  0.71084  0.98461  1.0000 -0.5318271235
O   O37       1.0  0.85898  0.65704  0.88737  1.0000 -0.5318271235
O   O38       1.0  0.53416  0.72030  0.11076  1.0000 -0.5353584446
O   O39       1.0  0.57591  0.70850  0.01124  1.0000 -0.5241464383
O   O40       1.0  0.68801  0.73017  0.91368  1.0000 -0.7824118815
