# DDEC6 charges by PACMAN v1.1 (https://github.com/mtap-research/PACMAN-charge/)
data_2019[Ag][nan]3[ASR]1
_chemical_formula_sum              "Ag5 H36 C48 N20"
_cell_length_a       14.1231
_cell_length_b       14.1231
_cell_length_c       14.1231
_cell_angle_alpha    114.243
_cell_angle_beta     114.243
_cell_angle_gamma    100.3

_symmetry_space_group_name_H-M    "P 1"
_symmetry_Int_Tables_number       1

loop_
  _symmetry_equiv_pos_as_xyz
  'x, y, z'

loop_
  _atom_site_type_symbol
  _atom_site_label
  _atom_site_symmetry_multiplicity
  _atom_site_fract_x
  _atom_site_fract_y
  _atom_site_fract_z
  _atom_site_occupancy
  _atom_site_charge
Ag  Ag1       1.0  0.21095  0.26945  0.23944  1.0000 0.2558930241
Ag  Ag2       1.0  0.03001  0.97151  0.76056  1.0000 0.2558930241
Ag  Ag3       1.0  0.73055  0.96999  0.94150  1.0000 0.2558930241
Ag  Ag4       1.0  0.02849  0.78905  0.05850  1.0000 0.2558930241
Ag  Ag5       1.0  0.00000  0.00000  0.00000  1.0000 0.2722744741
H   H1        1.0  0.77360  0.57360  0.79560  1.0000 0.1201525167
H   H2        1.0  0.51440  0.68270  0.61850  1.0000 0.1315106089
H   H3        1.0  0.33180  0.53510  0.46470  1.0000 0.0891051967
H   H4        1.0  0.44940  0.29960  0.43720  1.0000 0.0803317897
H   H5        1.0  0.63480  0.43650  0.58830  1.0000 0.1201525167
H   H6        1.0  0.70450  0.73070  0.52800  1.0000 0.1315106089
H   H7        1.0  0.64640  0.84010  0.44690  1.0000 0.1064116288
H   H8        1.0  0.62600  0.00000  0.56340  1.0000 0.1201525167
H   H9        1.0  0.66710  0.04970  0.75920  1.0000 0.0891051967
H   H10       1.0  0.77800  0.97800  0.20440  1.0000 0.1201525167
H   H11       1.0  0.06420  0.89590  0.38150  1.0000 0.1315106089
H   H12       1.0  0.07040  0.86710  0.53530  1.0000 0.0891051967
H   H13       1.0  0.86240  0.01220  0.56280  1.0000 0.0803317897
H   H14       1.0  0.84820  0.04650  0.41170  1.0000 0.1201525167
H   H15       1.0  0.20270  0.17650  0.47200  1.0000 0.1315106089
H   H16       1.0  0.39320  0.19950  0.55310  1.0000 0.1064116288
H   H17       1.0  0.43660  0.06260  0.43660  1.0000 0.1201525167
H   H18       1.0  0.29050  0.90790  0.24080  1.0000 0.0891051967
H   H19       1.0  0.42640  0.22200  0.20000  1.0000 0.1201525167
H   H20       1.0  0.31730  0.93580  0.83170  1.0000 0.1315106089
H   H21       1.0  0.46490  0.92960  0.79670  1.0000 0.0891051967
H   H22       1.0  0.70040  0.13760  0.14980  1.0000 0.0803317897
H   H23       1.0  0.56350  0.15180  0.19830  1.0000 0.1201525167
H   H24       1.0  0.26930  0.79730  0.97380  1.0000 0.1315106089
H   H25       1.0  0.15990  0.60680  0.80630  1.0000 0.1064116288
H   H26       1.0  0.00000  0.56340  0.62600  1.0000 0.1201525167
H   H27       1.0  0.95030  0.70950  0.61740  1.0000 0.0891051967
H   H28       1.0  0.02200  0.22640  0.80000  1.0000 0.1201525167
H   H29       1.0  0.10410  0.48560  0.16830  1.0000 0.1315106089
H   H30       1.0  0.13290  0.66820  0.20330  1.0000 0.0891051967
H   H31       1.0  0.98780  0.55060  0.85020  1.0000 0.0803317897
H   H32       1.0  0.95350  0.36520  0.80170  1.0000 0.1201525167
H   H33       1.0  0.82350  0.29550  0.02620  1.0000 0.1315106089
H   H34       1.0  0.80050  0.35360  0.19370  1.0000 0.1064116288
H   H35       1.0  0.93740  0.37400  0.37400  1.0000 0.1201525167
H   H36       1.0  0.09210  0.33290  0.38260  1.0000 0.0891051967
C   C1        1.0  0.78570  0.64200  0.79570  1.0000 -0.0068443008
C   C2        1.0  0.76030  0.76810  0.75000  1.0000 0.1404299982
C   C3        1.0  0.59280  0.57280  0.61720  1.0000 0.1901286193
C   C4        1.0  0.50270  0.60480  0.58190  1.0000 -0.2613499067
C   C5        1.0  0.39470  0.51540  0.48930  1.0000 0.0595254083
C   C6        1.0  0.46320  0.37790  0.47330  1.0000 0.0542152435
C   C7        1.0  0.57380  0.45880  0.56380  1.0000 -0.2486191574
C   C8        1.0  0.71700  0.82940  0.69080  1.0000 0.1315106089
C   C9        1.0  0.69510  0.79570  0.57360  1.0000 -0.2134522326
C   C10       1.0  0.66230  0.86130  0.52680  1.0000 -0.0672720015
C   C11       1.0  0.64940  0.95470  0.59470  1.0000 -0.1866019718
C   C12       1.0  0.67380  0.98370  0.71110  1.0000 0.0345420934
C   C13       1.0  0.84630  0.99000  0.20430  1.0000 -0.0068443008
C   C14       1.0  0.01810  0.01030  0.25000  1.0000 0.1404299982
C   C15       1.0  0.95560  0.97560  0.38280  1.0000 0.1901286193
C   C16       1.0  0.02290  0.92080  0.41810  1.0000 -0.2613499067
C   C17       1.0  0.02610  0.90540  0.51070  1.0000 0.0595254083
C   C18       1.0  0.90460  0.98990  0.52670  1.0000 0.0542152435
C   C19       1.0  0.89500  0.01000  0.43620  1.0000 -0.2486191574
C   C20       1.0  0.13860  0.02620  0.30920  1.0000 0.1315106089
C   C21       1.0  0.22210  0.12150  0.42640  1.0000 -0.2134522326
C   C22       1.0  0.33450  0.13550  0.47320  1.0000 -0.0672720015
C   C23       1.0  0.36000  0.05470  0.40530  1.0000 -0.1866019718
C   C24       1.0  0.27260  0.96270  0.28890  1.0000 0.036015185
C   C25       1.0  0.35800  0.15370  0.14370  1.0000 -0.0068443008
C   C26       1.0  0.23190  0.98190  0.99220  1.0000 0.1404299982
C   C27       1.0  0.42720  0.04440  0.02000  1.0000 0.1901286193
C   C28       1.0  0.39520  0.97710  0.89790  1.0000 -0.2613499067
C   C29       1.0  0.48460  0.97390  0.87930  1.0000 0.0595254083
C   C30       1.0  0.62210  0.09540  0.08530  1.0000 0.0542152435
C   C31       1.0  0.54120  0.10500  0.11500  1.0000 -0.2486191574
C   C32       1.0  0.17060  0.86140  0.88760  1.0000 0.1315106089
C   C33       1.0  0.20430  0.77790  0.89940  1.0000 -0.2134522326
C   C34       1.0  0.13870  0.66550  0.80100  1.0000 -0.0672720015
C   C35       1.0  0.04530  0.64000  0.69470  1.0000 -0.1866019718
C   C36       1.0  0.01630  0.72740  0.69010  1.0000 0.036015185
C   C37       1.0  0.01000  0.21430  0.85630  1.0000 -0.0068443008
C   C38       1.0  0.98970  0.23970  0.00780  1.0000 0.1404299982
C   C39       1.0  0.02440  0.40720  0.98000  1.0000 0.1901286193
C   C40       1.0  0.07920  0.49730  0.10210  1.0000 -0.2613499067
C   C41       1.0  0.09460  0.60530  0.12070  1.0000 0.0595254083
C   C42       1.0  0.01010  0.53680  0.91470  1.0000 0.0542152435
C   C43       1.0  0.99000  0.42620  0.88500  1.0000 -0.2486191574
C   C44       1.0  0.97380  0.28300  0.11240  1.0000 0.1315106089
C   C45       1.0  0.87850  0.30490  0.10060  1.0000 -0.2134522326
C   C46       1.0  0.86450  0.33770  0.19900  1.0000 -0.0672720015
C   C47       1.0  0.94530  0.35060  0.30530  1.0000 -0.1866019718
C   C48       1.0  0.03730  0.32620  0.30990  1.0000 0.0345420934
N   N1        1.0  0.86370  0.81580  0.84670  1.0000 -0.2306456642
N   N2        1.0  0.88050  0.73600  0.87670  1.0000 -0.1751671932
N   N3        1.0  0.70680  0.65580  0.71180  1.0000 -0.0519582699
N   N4        1.0  0.37410  0.40450  0.43420  1.0000 -0.2306456642
N   N5        1.0  0.70600  0.92140  0.75840  1.0000 -0.2486191574
N   N6        1.0  0.96910  0.01700  0.15330  1.0000 -0.2306456642
N   N7        1.0  0.85930  0.00380  0.12330  1.0000 -0.1751671932
N   N8        1.0  0.94400  0.99500  0.28820  1.0000 -0.0519582699
N   N9        1.0  0.97030  0.93990  0.56580  1.0000 -0.2355563618
N   N10       1.0  0.16300  0.94760  0.24160  1.0000 -0.2486191574
N   N11       1.0  0.18420  0.03090  0.04790  1.0000 -0.2306456642
N   N12       1.0  0.26400  0.14070  0.14450  1.0000 -0.1745746784
N   N13       1.0  0.34420  0.05600  0.05100  1.0000 -0.0519582699
N   N14       1.0  0.59550  0.02970  0.96960  1.0000 -0.2306456642
N   N15       1.0  0.07860  0.83700  0.78460  1.0000 -0.2486191574
N   N16       1.0  0.98300  0.13630  0.95210  1.0000 -0.2306456642
N   N17       1.0  0.99620  0.11950  0.85550  1.0000 -0.1751671932
N   N18       1.0  0.00500  0.29320  0.94900  1.0000 -0.0519582699
N   N19       1.0  0.06010  0.62590  0.03040  1.0000 -0.2355563618
N   N20       1.0  0.05240  0.29400  0.21540  1.0000 -0.2486191574
