# DDEC6 charges by PACMAN v1.1 (https://github.com/mtap-research/PACMAN-charge/)
data_2019[Co][hcb]2[ASR]3
_chemical_formula_sum              "Co4 H56 C84 N16 O16"
_cell_length_a       11.3037
_cell_length_b       13.3988
_cell_length_c       20.2503
_cell_angle_alpha    90
_cell_angle_beta     90
_cell_angle_gamma    90

_symmetry_space_group_name_H-M    "P 1"
_symmetry_Int_Tables_number       1

loop_
  _symmetry_equiv_pos_as_xyz
  'x, y, z'

loop_
  _atom_site_type_symbol
  _atom_site_label
  _atom_site_symmetry_multiplicity
  _atom_site_fract_x
  _atom_site_fract_y
  _atom_site_fract_z
  _atom_site_occupancy
  _atom_site_charge
Co  Co1       1.0  0.21584  0.17586  0.75000  1.0000 0.843606476
Co  Co2       1.0  0.28416  0.67586  0.25000  1.0000 0.8460626345
Co  Co3       1.0  0.78416  0.82414  0.25000  1.0000 0.8460626345
Co  Co4       1.0  0.71584  0.32414  0.75000  1.0000 0.843606476
H   H1        1.0  0.27100  0.56330  0.39870  1.0000 0.1284253439
H   H2        1.0  0.58390  0.43690  0.35530  1.0000 0.1284253439
H   H3        1.0  0.25240  0.46320  0.48920  1.0000 0.1196272502
H   H4        1.0  0.23670  0.36570  0.58400  1.0000 0.1284253439
H   H5        1.0  0.55430  0.24030  0.54400  1.0000 0.1196272502
H   H6        1.0  0.57190  0.34090  0.45040  1.0000 0.110591546
H   H7        1.0  0.22900  0.06330  0.60130  1.0000 0.1284253439
H   H8        1.0  0.91610  0.93690  0.64470  1.0000 0.1284253439
H   H9        1.0  0.24760  0.96320  0.51080  1.0000 0.1196272502
H   H10       1.0  0.26330  0.86570  0.41600  1.0000 0.1284253439
H   H11       1.0  0.94570  0.74030  0.45600  1.0000 0.1196272502
H   H12       1.0  0.92810  0.84090  0.54960  1.0000 0.110591546
H   H13       1.0  0.27100  0.56330  0.10130  1.0000 0.1284253439
H   H14       1.0  0.58390  0.43690  0.14470  1.0000 0.1284253439
H   H15       1.0  0.25240  0.46320  0.01080  1.0000 0.1196272502
H   H16       1.0  0.23670  0.36570  0.91600  1.0000 0.1284253439
H   H17       1.0  0.55430  0.24030  0.95600  1.0000 0.1196272502
H   H18       1.0  0.57190  0.34090  0.04960  1.0000 0.110591546
H   H19       1.0  0.22900  0.06330  0.89870  1.0000 0.1284253439
H   H20       1.0  0.91610  0.93690  0.85530  1.0000 0.1284253439
H   H21       1.0  0.24760  0.96320  0.98920  1.0000 0.1196272502
H   H22       1.0  0.26330  0.86570  0.08400  1.0000 0.1284253439
H   H23       1.0  0.94570  0.74030  0.04400  1.0000 0.1196272502
H   H24       1.0  0.92810  0.84090  0.95040  1.0000 0.110591546
H   H25       1.0  0.63030  0.54170  0.25000  1.0000 0.1505577605
H   H26       1.0  0.56520  0.64800  0.25000  1.0000 0.1634697135
H   H27       1.0  0.86970  0.04170  0.75000  1.0000 0.1505577605
H   H28       1.0  0.93480  0.14800  0.75000  1.0000 0.1634697135
H   H29       1.0  0.72900  0.43670  0.89870  1.0000 0.1284253439
H   H30       1.0  0.41610  0.56310  0.85530  1.0000 0.1284253439
H   H31       1.0  0.74760  0.53680  0.98920  1.0000 0.1196272502
H   H32       1.0  0.76330  0.63430  0.08400  1.0000 0.1284253439
H   H33       1.0  0.44570  0.75970  0.04400  1.0000 0.1196272502
H   H34       1.0  0.42810  0.65910  0.95040  1.0000 0.110591546
H   H35       1.0  0.77100  0.93670  0.10130  1.0000 0.1284253439
H   H36       1.0  0.08390  0.06310  0.14470  1.0000 0.1284253439
H   H37       1.0  0.75240  0.03680  0.01080  1.0000 0.1196272502
H   H38       1.0  0.73670  0.13430  0.91600  1.0000 0.1284253439
H   H39       1.0  0.05430  0.25970  0.95600  1.0000 0.1196272502
H   H40       1.0  0.07190  0.15910  0.04960  1.0000 0.110591546
H   H41       1.0  0.72900  0.43670  0.60130  1.0000 0.1284253439
H   H42       1.0  0.41610  0.56310  0.64470  1.0000 0.1284253439
H   H43       1.0  0.74760  0.53680  0.51080  1.0000 0.1196272502
H   H44       1.0  0.76330  0.63430  0.41600  1.0000 0.1284253439
H   H45       1.0  0.44570  0.75970  0.45600  1.0000 0.1196272502
H   H46       1.0  0.42810  0.65910  0.54960  1.0000 0.110591546
H   H47       1.0  0.77100  0.93670  0.39870  1.0000 0.1284253439
H   H48       1.0  0.08390  0.06310  0.35530  1.0000 0.1284253439
H   H49       1.0  0.75240  0.03680  0.48920  1.0000 0.1196272502
H   H50       1.0  0.73670  0.13430  0.58400  1.0000 0.1284253439
H   H51       1.0  0.05430  0.25970  0.54400  1.0000 0.1196272502
H   H52       1.0  0.07190  0.15910  0.45040  1.0000 0.110591546
H   H53       1.0  0.36970  0.45830  0.75000  1.0000 0.1505577605
H   H54       1.0  0.43480  0.35200  0.75000  1.0000 0.1634697135
H   H55       1.0  0.13030  0.95830  0.25000  1.0000 0.1505577605
H   H56       1.0  0.06520  0.85200  0.25000  1.0000 0.1634697135
C   C1        1.0  0.34350  0.54741  0.37739  1.0000 -0.0266082418
C   C2        1.0  0.42368  0.47494  0.40043  1.0000 -0.0139951358
C   C3        1.0  0.51458  0.47706  0.35465  1.0000 -0.1264355739
C   C4        1.0  0.41282  0.41154  0.45947  1.0000 0.0799253847
C   C5        1.0  0.31420  0.41808  0.50013  1.0000 -0.1524071429
C   C6        1.0  0.30447  0.35957  0.55651  1.0000 -0.1030166816
C   C7        1.0  0.39295  0.29224  0.57302  1.0000 -0.0266082418
C   C8        1.0  0.49280  0.28564  0.53303  1.0000 -0.0937130828
C   C9        1.0  0.50290  0.34532  0.47705  1.0000 -0.1524071429
C   C10       1.0  0.38090  0.22901  0.63408  1.0000 0.5491100813
C   C11       1.0  0.15650  0.04741  0.62261  1.0000 -0.0266082418
C   C12       1.0  0.07632  0.97494  0.59957  1.0000 -0.0139951358
C   C13       1.0  0.98542  0.97706  0.64535  1.0000 -0.1264355739
C   C14       1.0  0.08718  0.91154  0.54053  1.0000 0.0799253847
C   C15       1.0  0.18580  0.91808  0.49987  1.0000 -0.1524071429
C   C16       1.0  0.19553  0.85957  0.44349  1.0000 -0.1030166816
C   C17       1.0  0.10705  0.79224  0.42698  1.0000 -0.0266082418
C   C18       1.0  0.00720  0.78564  0.46697  1.0000 -0.0937130828
C   C19       1.0  0.99710  0.84532  0.52295  1.0000 -0.1524071429
C   C20       1.0  0.11910  0.72901  0.36592  1.0000 0.5491100813
C   C21       1.0  0.34350  0.54741  0.12261  1.0000 -0.0266082418
C   C22       1.0  0.42368  0.47494  0.09957  1.0000 -0.0139951358
C   C23       1.0  0.51458  0.47706  0.14535  1.0000 -0.1264355739
C   C24       1.0  0.41282  0.41154  0.04053  1.0000 0.0799253847
C   C25       1.0  0.31420  0.41808  0.99987  1.0000 -0.1524071429
C   C26       1.0  0.30447  0.35957  0.94349  1.0000 -0.1030166816
C   C27       1.0  0.39295  0.29224  0.92698  1.0000 -0.0266082418
C   C28       1.0  0.49280  0.28564  0.96697  1.0000 -0.0937130828
C   C29       1.0  0.50290  0.34532  0.02295  1.0000 -0.1524071429
C   C30       1.0  0.38090  0.22901  0.86592  1.0000 0.5491100813
C   C31       1.0  0.15650  0.04741  0.87739  1.0000 -0.0266082418
C   C32       1.0  0.07632  0.97494  0.90043  1.0000 -0.0139951358
C   C33       1.0  0.98542  0.97706  0.85465  1.0000 -0.1264355739
C   C34       1.0  0.08718  0.91154  0.95947  1.0000 0.0799253847
C   C35       1.0  0.18580  0.91808  0.00013  1.0000 -0.1524071429
C   C36       1.0  0.19553  0.85957  0.05651  1.0000 -0.1030166816
C   C37       1.0  0.10705  0.79224  0.07302  1.0000 -0.0266082418
C   C38       1.0  0.00720  0.78564  0.03303  1.0000 -0.0937130828
C   C39       1.0  0.99710  0.84532  0.97705  1.0000 -0.1524071429
C   C40       1.0  0.11910  0.72901  0.13408  1.0000 0.5491100813
C   C41       1.0  0.55210  0.57500  0.25000  1.0000 -0.1030166816
C   C42       1.0  0.94790  0.07500  0.75000  1.0000 -0.0937130828
C   C43       1.0  0.65650  0.45259  0.87739  1.0000 -0.0266082418
C   C44       1.0  0.57632  0.52506  0.90043  1.0000 -0.0139951358
C   C45       1.0  0.48542  0.52294  0.85465  1.0000 -0.1264355739
C   C46       1.0  0.58718  0.58846  0.95947  1.0000 0.0799253847
C   C47       1.0  0.68580  0.58192  0.00013  1.0000 -0.1524071429
C   C48       1.0  0.69553  0.64043  0.05651  1.0000 -0.1030166816
C   C49       1.0  0.60705  0.70776  0.07302  1.0000 -0.0266082418
C   C50       1.0  0.50720  0.71436  0.03303  1.0000 -0.0937130828
C   C51       1.0  0.49710  0.65468  0.97705  1.0000 -0.1524071429
C   C52       1.0  0.61910  0.77099  0.13408  1.0000 0.5491100813
C   C53       1.0  0.84350  0.95259  0.12261  1.0000 -0.0266082418
C   C54       1.0  0.92368  0.02506  0.09957  1.0000 -0.0139951358
C   C55       1.0  0.01458  0.02294  0.14535  1.0000 -0.1264355739
C   C56       1.0  0.91282  0.08846  0.04053  1.0000 0.0799253847
C   C57       1.0  0.81420  0.08192  0.99987  1.0000 -0.1524071429
C   C58       1.0  0.80447  0.14043  0.94349  1.0000 -0.1030166816
C   C59       1.0  0.89295  0.20776  0.92698  1.0000 -0.0266082418
C   C60       1.0  0.99280  0.21436  0.96697  1.0000 -0.0937130828
C   C61       1.0  0.00290  0.15468  0.02295  1.0000 -0.1524071429
C   C62       1.0  0.88090  0.27099  0.86592  1.0000 0.5491100813
C   C63       1.0  0.65650  0.45259  0.62261  1.0000 -0.0266082418
C   C64       1.0  0.57632  0.52506  0.59957  1.0000 -0.0139951358
C   C65       1.0  0.48542  0.52294  0.64535  1.0000 -0.1264355739
C   C66       1.0  0.58718  0.58846  0.54053  1.0000 0.0799253847
C   C67       1.0  0.68580  0.58192  0.49987  1.0000 -0.1524071429
C   C68       1.0  0.69553  0.64043  0.44349  1.0000 -0.1030166816
C   C69       1.0  0.60705  0.70776  0.42698  1.0000 -0.0266082418
C   C70       1.0  0.50720  0.71436  0.46697  1.0000 -0.0937130828
C   C71       1.0  0.49710  0.65468  0.52295  1.0000 -0.1524071429
C   C72       1.0  0.61910  0.77099  0.36592  1.0000 0.5491100813
C   C73       1.0  0.84350  0.95259  0.37739  1.0000 -0.0266082418
C   C74       1.0  0.92368  0.02506  0.40043  1.0000 -0.0139951358
C   C75       1.0  0.01458  0.02294  0.35465  1.0000 -0.1264355739
C   C76       1.0  0.91282  0.08846  0.45947  1.0000 0.0799253847
C   C77       1.0  0.81420  0.08192  0.50013  1.0000 -0.1524071429
C   C78       1.0  0.80447  0.14043  0.55651  1.0000 -0.1030166816
C   C79       1.0  0.89295  0.20776  0.57302  1.0000 -0.0266082418
C   C80       1.0  0.99280  0.21436  0.53303  1.0000 -0.0937130828
C   C81       1.0  0.00290  0.15468  0.47705  1.0000 -0.1524071429
C   C82       1.0  0.88090  0.27099  0.63408  1.0000 0.5491100813
C   C83       1.0  0.44790  0.42500  0.75000  1.0000 -0.0937130828
C   C84       1.0  0.05210  0.92500  0.25000  1.0000 -0.1030166816
N   N1        1.0  0.48683  0.54647  0.30896  1.0000 0.1696661006
N   N2        1.0  0.38115  0.59096  0.32225  1.0000 -0.2279593606
N   N3        1.0  0.01317  0.04647  0.69104  1.0000 0.1696661006
N   N4        1.0  0.11885  0.09096  0.67775  1.0000 -0.2279593606
N   N5        1.0  0.48683  0.54647  0.19104  1.0000 0.1696661006
N   N6        1.0  0.38115  0.59096  0.17775  1.0000 -0.2279593606
N   N7        1.0  0.01317  0.04647  0.80896  1.0000 0.1696661006
N   N8        1.0  0.11885  0.09096  0.82225  1.0000 -0.2279593606
N   N9        1.0  0.51317  0.45353  0.80896  1.0000 0.1696661006
N   N10       1.0  0.61885  0.40904  0.82225  1.0000 -0.2279593606
N   N11       1.0  0.98683  0.95353  0.19104  1.0000 0.1696661006
N   N12       1.0  0.88115  0.90904  0.17775  1.0000 -0.2279593606
N   N13       1.0  0.51317  0.45353  0.69104  1.0000 0.1696661006
N   N14       1.0  0.61885  0.40904  0.67775  1.0000 -0.2279593606
N   N15       1.0  0.98683  0.95353  0.30896  1.0000 0.1696661006
N   N16       1.0  0.88115  0.90904  0.32225  1.0000 -0.2279593606
O   O1        1.0  0.29786  0.25074  0.67272  1.0000 -0.5704608072
O   O2        1.0  0.45495  0.15931  0.64354  1.0000 -0.5704608072
O   O3        1.0  0.20214  0.75074  0.32728  1.0000 -0.5704608072
O   O4        1.0  0.04505  0.65931  0.35646  1.0000 -0.5704608072
O   O5        1.0  0.29786  0.25074  0.82728  1.0000 -0.5704608072
O   O6        1.0  0.45495  0.15931  0.85646  1.0000 -0.5704608072
O   O7        1.0  0.20214  0.75074  0.17272  1.0000 -0.5704608072
O   O8        1.0  0.04505  0.65931  0.14354  1.0000 -0.5704608072
O   O9        1.0  0.70214  0.74926  0.17272  1.0000 -0.5704608072
O   O10       1.0  0.54505  0.84069  0.14354  1.0000 -0.5704608072
O   O11       1.0  0.79786  0.24926  0.82728  1.0000 -0.5704608072
O   O12       1.0  0.95495  0.34069  0.85646  1.0000 -0.5704608072
O   O13       1.0  0.70214  0.74926  0.32728  1.0000 -0.5704608072
O   O14       1.0  0.54505  0.84069  0.35646  1.0000 -0.5704608072
O   O15       1.0  0.79786  0.24926  0.67272  1.0000 -0.5704608072
O   O16       1.0  0.95495  0.34069  0.64354  1.0000 -0.5704608072
