# DDEC6 charges by PACMAN v1.1 (https://github.com/mtap-research/PACMAN-charge/)
data_2019[Gd][esg]3[ASR]2
_chemical_formula_sum              "Gd4 H60 C108 O24"
_cell_length_a       17.4286
_cell_length_b       17.4286
_cell_length_c       28.5443
_cell_angle_alpha    72.3591
_cell_angle_beta     107.641
_cell_angle_gamma    148.289

_symmetry_space_group_name_H-M    "P 1"
_symmetry_Int_Tables_number       1

loop_
  _symmetry_equiv_pos_as_xyz
  'x, y, z'

loop_
  _atom_site_type_symbol
  _atom_site_label
  _atom_site_symmetry_multiplicity
  _atom_site_fract_x
  _atom_site_fract_y
  _atom_site_fract_z
  _atom_site_occupancy
  _atom_site_charge
Gd  Gd1       1.0  0.33042  0.43218  0.49528  1.0000 2.0264920094
Gd  Gd2       1.0  0.43218  0.33042  0.00472  1.0000 2.0264920094
Gd  Gd3       1.0  0.66958  0.56782  0.50472  1.0000 2.0264920094
Gd  Gd4       1.0  0.56782  0.66958  0.99528  1.0000 2.0264920094
H   H1        1.0  0.17726  0.13592  0.63035  1.0000 0.1185902014
H   H2        1.0  0.10499  0.00105  0.70631  1.0000 0.1046004542
H   H3        1.0  0.48714  0.20144  0.73663  1.0000 0.1100651608
H   H4        1.0  0.55785  0.33439  0.65981  1.0000 0.1369906427
H   H5        1.0  0.73927  0.55835  0.94887  1.0000 0.1285069012
H   H6        1.0  0.89310  0.62940  0.90787  1.0000 0.1100651608
H   H7        1.0  0.05687  0.98625  0.84179  1.0000 0.1046004542
H   H8        1.0  0.91196  0.92110  0.88577  1.0000 0.1185902014
H   H9        1.0  0.58984  0.97008  0.88585  1.0000 0.1185902014
H   H10       1.0  0.49960  0.02354  0.84699  1.0000 0.1100651608
H   H11       1.0  0.10766  0.63292  0.90205  1.0000 0.1046004542
H   H12       1.0  0.20327  0.58519  0.94430  1.0000 0.1285069012
H   H13       1.0  0.35469  0.99143  0.78429  1.0000 0.1100651608
H   H14       1.0  0.10519  0.96955  0.78437  1.0000 0.1046004542
H   H15       1.0  0.12643  0.78445  0.90096  1.0000 0.1100651608
H   H16       1.0  0.13592  0.17726  0.86965  1.0000 0.1185902014
H   H17       1.0  0.00105  0.10499  0.79369  1.0000 0.1046004542
H   H18       1.0  0.20144  0.48714  0.76337  1.0000 0.1100651608
H   H19       1.0  0.33439  0.55785  0.84019  1.0000 0.1369906427
H   H20       1.0  0.55835  0.73927  0.55113  1.0000 0.1285069012
H   H21       1.0  0.62940  0.89310  0.59213  1.0000 0.1100651608
H   H22       1.0  0.98625  0.05687  0.65821  1.0000 0.1046004542
H   H23       1.0  0.92110  0.91196  0.61423  1.0000 0.1185902014
H   H24       1.0  0.97008  0.58984  0.61415  1.0000 0.1185902014
H   H25       1.0  0.02354  0.49960  0.65301  1.0000 0.1100651608
H   H26       1.0  0.63292  0.10766  0.59795  1.0000 0.1046004542
H   H27       1.0  0.58519  0.20327  0.55570  1.0000 0.1285069012
H   H28       1.0  0.99143  0.35469  0.71571  1.0000 0.1100651608
H   H29       1.0  0.96955  0.10519  0.71563  1.0000 0.1046004542
H   H30       1.0  0.78445  0.12643  0.59904  1.0000 0.1100651608
H   H31       1.0  0.82274  0.86408  0.36965  1.0000 0.1185902014
H   H32       1.0  0.89501  0.99895  0.29369  1.0000 0.1046004542
H   H33       1.0  0.51286  0.79856  0.26337  1.0000 0.1100651608
H   H34       1.0  0.44215  0.66561  0.34019  1.0000 0.1369906427
H   H35       1.0  0.26073  0.44165  0.05113  1.0000 0.1285069012
H   H36       1.0  0.10690  0.37060  0.09213  1.0000 0.1100651608
H   H37       1.0  0.94313  0.01375  0.15821  1.0000 0.1046004542
H   H38       1.0  0.08804  0.07890  0.11423  1.0000 0.1185902014
H   H39       1.0  0.41016  0.02992  0.11415  1.0000 0.1185902014
H   H40       1.0  0.50040  0.97646  0.15301  1.0000 0.1100651608
H   H41       1.0  0.89234  0.36708  0.09795  1.0000 0.1046004542
H   H42       1.0  0.79673  0.41481  0.05570  1.0000 0.1285069012
H   H43       1.0  0.64531  0.00857  0.21571  1.0000 0.1100651608
H   H44       1.0  0.89481  0.03045  0.21563  1.0000 0.1046004542
H   H45       1.0  0.87357  0.21555  0.09904  1.0000 0.1100651608
H   H46       1.0  0.86408  0.82274  0.13035  1.0000 0.1185902014
H   H47       1.0  0.99895  0.89501  0.20631  1.0000 0.1046004542
H   H48       1.0  0.79856  0.51286  0.23663  1.0000 0.1100651608
H   H49       1.0  0.66561  0.44215  0.15981  1.0000 0.1369906427
H   H50       1.0  0.44165  0.26073  0.44887  1.0000 0.1285069012
H   H51       1.0  0.37060  0.10690  0.40787  1.0000 0.1100651608
H   H52       1.0  0.01375  0.94313  0.34179  1.0000 0.1046004542
H   H53       1.0  0.07890  0.08804  0.38577  1.0000 0.1185902014
H   H54       1.0  0.02992  0.41016  0.38585  1.0000 0.1185902014
H   H55       1.0  0.97646  0.50040  0.34699  1.0000 0.1100651608
H   H56       1.0  0.36708  0.89234  0.40205  1.0000 0.1046004542
H   H57       1.0  0.41481  0.79673  0.44430  1.0000 0.1285069012
H   H58       1.0  0.00857  0.64531  0.28429  1.0000 0.1100651608
H   H59       1.0  0.03045  0.89481  0.28437  1.0000 0.1046004542
H   H60       1.0  0.21555  0.87357  0.40096  1.0000 0.1100651608
C   C1        1.0  0.42420  0.34220  0.58820  1.0000 0.6412903169
C   C2        1.0  0.37690  0.25170  0.63830  1.0000 -0.0120785164
C   C3        1.0  0.24140  0.15000  0.65210  1.0000 -0.1018346953
C   C4        1.0  0.19770  0.06810  0.69710  1.0000 -0.1527577585
C   C5        1.0  0.28350  0.08130  0.72840  1.0000 0.0757071325
C   C6        1.0  0.42220  0.18600  0.71460  1.0000 -0.1527577585
C   C7        1.0  0.46540  0.26720  0.66930  1.0000 -0.0918987098
C   C8        1.0  0.71910  0.69710  0.94790  1.0000 0.6186688044
C   C9        1.0  0.81070  0.73390  0.92040  1.0000 -0.0120785164
C   C10       1.0  0.80490  0.64610  0.92740  1.0000 -0.0918987098
C   C11       1.0  0.89590  0.68810  0.90280  1.0000 -0.1436773068
C   C12       1.0  0.98910  0.81270  0.87140  1.0000 0.0726327342
C   C13       1.0  0.99380  0.90020  0.86410  1.0000 -0.157366112
C   C14       1.0  0.90600  0.86000  0.88970  1.0000 -0.0918987098
C   C15       1.0  0.45650  0.73170  0.94500  1.0000 0.5612667301
C   C16       1.0  0.39730  0.76410  0.91740  1.0000 -0.0224359895
C   C17       1.0  0.49220  0.90180  0.88910  1.0000 -0.0918987098
C   C18       1.0  0.43750  0.93270  0.86640  1.0000 -0.157366112
C   C19       1.0  0.29800  0.83900  0.87040  1.0000 0.0726327342
C   C20       1.0  0.20610  0.70270  0.89920  1.0000 -0.1659822217
C   C21       1.0  0.26250  0.67310  0.92320  1.0000 -0.0918987098
C   C22       1.0  0.24030  0.87370  0.84630  1.0000 0.0757071325
C   C23       1.0  0.28840  0.95920  0.79990  1.0000 -0.2090275562
C   C24       1.0  0.23760  0.99520  0.77750  1.0000 0.0860421579
C   C25       1.0  0.14020  0.94560  0.80000  1.0000 -0.2090275562
C   C26       1.0  0.08960  0.85860  0.84620  1.0000 0.0860421579
C   C27       1.0  0.14990  0.83290  0.86860  1.0000 -0.1884127012
C   C28       1.0  0.34220  0.42420  0.91180  1.0000 0.6412903169
C   C29       1.0  0.25170  0.37690  0.86170  1.0000 -0.0120785164
C   C30       1.0  0.15000  0.24140  0.84790  1.0000 -0.1018346953
C   C31       1.0  0.06810  0.19770  0.80290  1.0000 -0.1527577585
C   C32       1.0  0.08130  0.28350  0.77160  1.0000 0.0757071325
C   C33       1.0  0.18600  0.42220  0.78540  1.0000 -0.1527577585
C   C34       1.0  0.26720  0.46540  0.83070  1.0000 -0.0918987098
C   C35       1.0  0.69710  0.71910  0.55210  1.0000 0.6186688044
C   C36       1.0  0.73390  0.81070  0.57960  1.0000 -0.0120785164
C   C37       1.0  0.64610  0.80490  0.57260  1.0000 -0.0918987098
C   C38       1.0  0.68810  0.89590  0.59720  1.0000 -0.1436773068
C   C39       1.0  0.81270  0.98910  0.62860  1.0000 0.0726327342
C   C40       1.0  0.90020  0.99380  0.63590  1.0000 -0.157366112
C   C41       1.0  0.86000  0.90600  0.61030  1.0000 -0.0918987098
C   C42       1.0  0.73170  0.45650  0.55500  1.0000 0.5612667301
C   C43       1.0  0.76410  0.39730  0.58260  1.0000 -0.0224359895
C   C44       1.0  0.90180  0.49220  0.61090  1.0000 -0.0918987098
C   C45       1.0  0.93270  0.43750  0.63360  1.0000 -0.1527577585
C   C46       1.0  0.83900  0.29800  0.62960  1.0000 0.0726327342
C   C47       1.0  0.70270  0.20610  0.60080  1.0000 -0.1659822217
C   C48       1.0  0.67310  0.26250  0.57680  1.0000 -0.0918987098
C   C49       1.0  0.87370  0.24030  0.65370  1.0000 0.0757071325
C   C50       1.0  0.95920  0.28840  0.70010  1.0000 -0.2090275562
C   C51       1.0  0.99520  0.23760  0.72250  1.0000 0.0860421579
C   C52       1.0  0.94560  0.14020  0.70000  1.0000 -0.2090275562
C   C53       1.0  0.85860  0.08960  0.65380  1.0000 0.0860421579
C   C54       1.0  0.83290  0.14990  0.63140  1.0000 -0.1884127012
C   C55       1.0  0.57580  0.65780  0.41180  1.0000 0.6412903169
C   C56       1.0  0.62310  0.74830  0.36170  1.0000 -0.0120785164
C   C57       1.0  0.75860  0.85000  0.34790  1.0000 -0.1018346953
C   C58       1.0  0.80230  0.93190  0.30290  1.0000 -0.1527577585
C   C59       1.0  0.71650  0.91870  0.27160  1.0000 0.0757071325
C   C60       1.0  0.57780  0.81400  0.28540  1.0000 -0.1527577585
C   C61       1.0  0.53460  0.73280  0.33070  1.0000 -0.0918987098
C   C62       1.0  0.28090  0.30290  0.05210  1.0000 0.6186688044
C   C63       1.0  0.18930  0.26610  0.07960  1.0000 -0.0120785164
C   C64       1.0  0.19510  0.35390  0.07260  1.0000 -0.0918987098
C   C65       1.0  0.10410  0.31190  0.09720  1.0000 -0.1436773068
C   C66       1.0  0.01090  0.18730  0.12860  1.0000 0.0726327342
C   C67       1.0  0.00620  0.09980  0.13590  1.0000 -0.157366112
C   C68       1.0  0.09400  0.14000  0.11030  1.0000 -0.0918987098
C   C69       1.0  0.54350  0.26830  0.05500  1.0000 0.5612667301
C   C70       1.0  0.60270  0.23590  0.08260  1.0000 -0.0224359895
C   C71       1.0  0.50780  0.09820  0.11090  1.0000 -0.0918987098
C   C72       1.0  0.56250  0.06730  0.13360  1.0000 -0.157366112
C   C73       1.0  0.70200  0.16100  0.12960  1.0000 0.0726327342
C   C74       1.0  0.79390  0.29730  0.10080  1.0000 -0.1659822217
C   C75       1.0  0.73750  0.32690  0.07680  1.0000 -0.0918987098
C   C76       1.0  0.75970  0.12630  0.15370  1.0000 0.0757071325
C   C77       1.0  0.71160  0.04080  0.20010  1.0000 -0.2090275562
C   C78       1.0  0.76240  0.00480  0.22250  1.0000 0.0860421579
C   C79       1.0  0.85980  0.05440  0.20000  1.0000 -0.2090275562
C   C80       1.0  0.91040  0.14140  0.15380  1.0000 0.0860421579
C   C81       1.0  0.85010  0.16710  0.13140  1.0000 -0.1884127012
C   C82       1.0  0.65780  0.57580  0.08820  1.0000 0.6412903169
C   C83       1.0  0.74830  0.62310  0.13830  1.0000 -0.0120785164
C   C84       1.0  0.85000  0.75860  0.15210  1.0000 -0.1018346953
C   C85       1.0  0.93190  0.80230  0.19710  1.0000 -0.1527577585
C   C86       1.0  0.91870  0.71650  0.22840  1.0000 0.0757071325
C   C87       1.0  0.81400  0.57780  0.21460  1.0000 -0.1527577585
C   C88       1.0  0.73280  0.53460  0.16930  1.0000 -0.0918987098
C   C89       1.0  0.30290  0.28090  0.44790  1.0000 0.6186688044
C   C90       1.0  0.26610  0.18930  0.42040  1.0000 -0.0120785164
C   C91       1.0  0.35390  0.19510  0.42740  1.0000 -0.0918987098
C   C92       1.0  0.31190  0.10410  0.40280  1.0000 -0.1436773068
C   C93       1.0  0.18730  0.01090  0.37140  1.0000 0.0726327342
C   C94       1.0  0.09980  0.00620  0.36410  1.0000 -0.157366112
C   C95       1.0  0.14000  0.09400  0.38970  1.0000 -0.0918987098
C   C96       1.0  0.26830  0.54350  0.44500  1.0000 0.5612667301
C   C97       1.0  0.23590  0.60270  0.41740  1.0000 -0.0224359895
C   C98       1.0  0.09820  0.50780  0.38910  1.0000 -0.0918987098
C   C99       1.0  0.06730  0.56250  0.36640  1.0000 -0.1527577585
C   C100      1.0  0.16100  0.70200  0.37040  1.0000 0.0726327342
C   C101      1.0  0.29730  0.79390  0.39920  1.0000 -0.1659822217
C   C102      1.0  0.32690  0.73750  0.42320  1.0000 -0.0918987098
C   C103      1.0  0.12630  0.75970  0.34630  1.0000 0.0757071325
C   C104      1.0  0.04080  0.71160  0.29990  1.0000 -0.2090275562
C   C105      1.0  0.00480  0.76240  0.27750  1.0000 0.0860421579
C   C106      1.0  0.05440  0.85980  0.30000  1.0000 -0.2090275562
C   C107      1.0  0.14140  0.91040  0.34620  1.0000 0.0860421579
C   C108      1.0  0.16710  0.85010  0.36860  1.0000 -0.1884127012
O   O1        1.0  0.54310  0.42590  0.57670  1.0000 -0.5857237927
O   O2        1.0  0.33640  0.32280  0.56300  1.0000 -0.6725297472
O   O3        1.0  0.74390  0.78930  0.94580  1.0000 -0.5984261385
O   O4        1.0  0.62300  0.57440  0.97410  1.0000 -0.7519805482
O   O5        1.0  0.38120  0.62000  0.97450  1.0000 -0.6320249638
O   O6        1.0  0.58400  0.81900  0.93720  1.0000 -0.6523072174
O   O7        1.0  0.42590  0.54310  0.92330  1.0000 -0.5857237927
O   O8        1.0  0.32280  0.33640  0.93700  1.0000 -0.6725297472
O   O9        1.0  0.78930  0.74390  0.55420  1.0000 -0.5984261385
O   O10       1.0  0.57440  0.62300  0.52590  1.0000 -0.7519805482
O   O11       1.0  0.62000  0.38120  0.52550  1.0000 -0.6320249638
O   O12       1.0  0.81900  0.58400  0.56280  1.0000 -0.6523072174
O   O13       1.0  0.45690  0.57410  0.42330  1.0000 -0.5857237927
O   O14       1.0  0.66360  0.67720  0.43700  1.0000 -0.6725297472
O   O15       1.0  0.25610  0.21070  0.05420  1.0000 -0.5984261385
O   O16       1.0  0.37700  0.42560  0.02590  1.0000 -0.7519805482
O   O17       1.0  0.61880  0.38000  0.02550  1.0000 -0.6320249638
O   O18       1.0  0.41600  0.18100  0.06280  1.0000 -0.6523072174
O   O19       1.0  0.57410  0.45690  0.07670  1.0000 -0.5857237927
O   O20       1.0  0.67720  0.66360  0.06300  1.0000 -0.6725297472
O   O21       1.0  0.21070  0.25610  0.44580  1.0000 -0.5984261385
O   O22       1.0  0.42560  0.37700  0.47410  1.0000 -0.7519805482
O   O23       1.0  0.38000  0.61880  0.47450  1.0000 -0.6320249638
O   O24       1.0  0.18100  0.41600  0.43720  1.0000 -0.6523072174
