# DDEC6 charges by PACMAN v1.1 (https://github.com/mtap-research/PACMAN-charge/)
data_2019[Co][nan]3[ASR]11
_chemical_formula_sum              "Co6 H50 C86 O30"
_cell_length_a       9.1157
_cell_length_b       11.3951
_cell_length_c       25.9703
_cell_angle_alpha    90
_cell_angle_beta     90
_cell_angle_gamma    90

_symmetry_space_group_name_H-M    "P 1"
_symmetry_Int_Tables_number       1

loop_
  _symmetry_equiv_pos_as_xyz
  'x, y, z'

loop_
  _atom_site_type_symbol
  _atom_site_label
  _atom_site_symmetry_multiplicity
  _atom_site_fract_x
  _atom_site_fract_y
  _atom_site_fract_z
  _atom_site_occupancy
  _atom_site_charge
Co  Co1       1.0  0.63383  0.83786  0.00000  1.0000 1.0262816392
Co  Co2       1.0  0.27200  0.93204  0.00000  1.0000 1.0426300608
Co  Co3       1.0  0.89651  0.01427  0.00000  1.0000 1.051661595
Co  Co4       1.0  0.36617  0.33786  0.50000  1.0000 1.0262816392
Co  Co5       1.0  0.72800  0.43204  0.50000  1.0000 1.0426300608
Co  Co6       1.0  0.10349  0.51427  0.50000  1.0000 1.051661595
H   H1        1.0  0.03140  0.82240  0.02650  1.0000 0.372897967
H   H2        1.0  0.36250  0.19850  0.11530  1.0000 0.1206597064
H   H3        1.0  0.40280  0.30620  0.18980  1.0000 0.1206597064
H   H4        1.0  0.97340  0.28010  0.22340  1.0000 0.1296619489
H   H5        1.0  0.93770  0.17810  0.14660  1.0000 0.1206597064
H   H6        1.0  0.39210  0.61420  0.30700  1.0000 0.1206597064
H   H7        1.0  0.32040  0.52310  0.38530  1.0000 0.1296619489
H   H8        1.0  0.12160  0.26370  0.30930  1.0000 0.1206597064
H   H9        1.0  0.53650  0.57680  0.22350  1.0000 0.1206597064
H   H10       1.0  0.58620  0.68160  0.14950  1.0000 0.1206597064
H   H11       1.0  0.15730  0.67220  0.11570  1.0000 0.1296619489
H   H12       1.0  0.11930  0.54890  0.18410  1.0000 0.1206597064
H   H13       1.0  0.96860  0.32240  0.47350  1.0000 0.372897967
H   H14       1.0  0.63750  0.69850  0.38470  1.0000 0.1206597064
H   H15       1.0  0.59720  0.80620  0.31020  1.0000 0.1206597064
H   H16       1.0  0.02660  0.78010  0.27660  1.0000 0.1296619489
H   H17       1.0  0.06230  0.67810  0.35340  1.0000 0.1206597064
H   H18       1.0  0.60790  0.11420  0.19300  1.0000 0.1206597064
H   H19       1.0  0.67960  0.02310  0.11470  1.0000 0.1296619489
H   H20       1.0  0.87840  0.76370  0.19070  1.0000 0.1206597064
H   H21       1.0  0.46350  0.07680  0.27650  1.0000 0.1206597064
H   H22       1.0  0.41380  0.18160  0.35050  1.0000 0.1206597064
H   H23       1.0  0.84270  0.17220  0.38430  1.0000 0.1296619489
H   H24       1.0  0.88070  0.04890  0.31590  1.0000 0.1206597064
H   H25       1.0  0.96860  0.32240  0.52650  1.0000 0.372897967
H   H26       1.0  0.63750  0.69850  0.61530  1.0000 0.1206597064
H   H27       1.0  0.59720  0.80620  0.68980  1.0000 0.1206597064
H   H28       1.0  0.02660  0.78010  0.72340  1.0000 0.1296619489
H   H29       1.0  0.06230  0.67810  0.64660  1.0000 0.1206597064
H   H30       1.0  0.60790  0.11420  0.80700  1.0000 0.1206597064
H   H31       1.0  0.67960  0.02310  0.88530  1.0000 0.1296619489
H   H32       1.0  0.87840  0.76370  0.80930  1.0000 0.1206597064
H   H33       1.0  0.46350  0.07680  0.72350  1.0000 0.1206597064
H   H34       1.0  0.41380  0.18160  0.64950  1.0000 0.1206597064
H   H35       1.0  0.84270  0.17220  0.61570  1.0000 0.1296619489
H   H36       1.0  0.88070  0.04890  0.68410  1.0000 0.1206597064
H   H37       1.0  0.03140  0.82240  0.97350  1.0000 0.372897967
H   H38       1.0  0.36250  0.19850  0.88470  1.0000 0.1206597064
H   H39       1.0  0.40280  0.30620  0.81020  1.0000 0.1206597064
H   H40       1.0  0.97340  0.28010  0.77660  1.0000 0.1296619489
H   H41       1.0  0.93770  0.17810  0.85340  1.0000 0.1206597064
H   H42       1.0  0.39210  0.61420  0.69300  1.0000 0.1206597064
H   H43       1.0  0.32040  0.52310  0.61470  1.0000 0.1296619489
H   H44       1.0  0.12160  0.26370  0.69070  1.0000 0.1206597064
H   H45       1.0  0.53650  0.57680  0.77650  1.0000 0.1206597064
H   H46       1.0  0.58620  0.68160  0.85050  1.0000 0.1206597064
H   H47       1.0  0.15730  0.67220  0.88430  1.0000 0.1296619489
H   H48       1.0  0.11930  0.54890  0.81590  1.0000 0.1206597064
H   H49       1.0  0.50350  0.14650  0.00000  1.0000 0.1296619489
H   H50       1.0  0.49650  0.64650  0.50000  1.0000 0.1296619489
C   C1        1.0  0.12190  0.10530  0.07570  1.0000 0.6079630099
C   C2        1.0  0.14850  0.17950  0.12390  1.0000 -0.0094872492
C   C3        1.0  0.28390  0.21660  0.13670  1.0000 -0.0928291499
C   C4        1.0  0.30870  0.28130  0.18130  1.0000 -0.1507034682
C   C5        1.0  0.19090  0.30800  0.21300  1.0000 0.0827652358
C   C6        1.0  0.05170  0.26640  0.20120  1.0000 -0.1507034682
C   C7        1.0  0.03110  0.20370  0.15560  1.0000 -0.0960531354
C   C8        1.0  0.21560  0.38400  0.26130  1.0000 0.0236093292
C   C9        1.0  0.28950  0.49180  0.26040  1.0000 0.0311016619
C   C10       1.0  0.33600  0.54600  0.30700  1.0000 -0.1595450684
C   C11       1.0  0.29160  0.48990  0.35420  1.0000 -0.0833805993
C   C12       1.0  0.20890  0.38990  0.35510  1.0000 -0.0435370847
C   C13       1.0  0.17330  0.33400  0.30880  1.0000 -0.1364348389
C   C14       1.0  0.16740  0.34990  0.40660  1.0000 0.5834967934
C   C15       1.0  0.32360  0.55060  0.21170  1.0000 0.0627034709
C   C16       1.0  0.46040  0.59260  0.20060  1.0000 -0.1507034682
C   C17       1.0  0.49050  0.65830  0.15660  1.0000 -0.0928291499
C   C18       1.0  0.37850  0.68850  0.12360  1.0000 -0.0246144019
C   C19       1.0  0.23620  0.64970  0.13610  1.0000 -0.0833805993
C   C20       1.0  0.21280  0.57860  0.17820  1.0000 -0.1507034682
C   C21       1.0  0.40550  0.75860  0.07650  1.0000 0.5945938669
C   C22       1.0  0.87810  0.60530  0.42430  1.0000 0.6079630099
C   C23       1.0  0.85150  0.67950  0.37610  1.0000 -0.0094872492
C   C24       1.0  0.71610  0.71660  0.36330  1.0000 -0.0928291499
C   C25       1.0  0.69130  0.78130  0.31870  1.0000 -0.1507034682
C   C26       1.0  0.80910  0.80800  0.28700  1.0000 0.0827652358
C   C27       1.0  0.94830  0.76640  0.29880  1.0000 -0.1507034682
C   C28       1.0  0.96890  0.70370  0.34440  1.0000 -0.0960531354
C   C29       1.0  0.78440  0.88400  0.23870  1.0000 0.0236093292
C   C30       1.0  0.71050  0.99180  0.23960  1.0000 0.0311016619
C   C31       1.0  0.66400  0.04600  0.19300  1.0000 -0.1595450684
C   C32       1.0  0.70840  0.98990  0.14580  1.0000 -0.0833805993
C   C33       1.0  0.79110  0.88990  0.14490  1.0000 -0.0435370847
C   C34       1.0  0.82670  0.83400  0.19120  1.0000 -0.1364348389
C   C35       1.0  0.83260  0.84990  0.09340  1.0000 0.5834967934
C   C36       1.0  0.67640  0.05060  0.28830  1.0000 0.0627034709
C   C37       1.0  0.53960  0.09260  0.29940  1.0000 -0.1507034682
C   C38       1.0  0.50950  0.15830  0.34340  1.0000 -0.0928291499
C   C39       1.0  0.62150  0.18850  0.37640  1.0000 -0.0246144019
C   C40       1.0  0.76380  0.14970  0.36390  1.0000 -0.0833805993
C   C41       1.0  0.78720  0.07860  0.32180  1.0000 -0.1507034682
C   C42       1.0  0.59450  0.25860  0.42350  1.0000 0.5945938669
C   C43       1.0  0.87810  0.60530  0.57570  1.0000 0.6079630099
C   C44       1.0  0.85150  0.67950  0.62390  1.0000 -0.0094872492
C   C45       1.0  0.71610  0.71660  0.63670  1.0000 -0.0928291499
C   C46       1.0  0.69130  0.78130  0.68130  1.0000 -0.1507034682
C   C47       1.0  0.80910  0.80800  0.71300  1.0000 0.0827652358
C   C48       1.0  0.94830  0.76640  0.70120  1.0000 -0.1507034682
C   C49       1.0  0.96890  0.70370  0.65560  1.0000 -0.0960531354
C   C50       1.0  0.78440  0.88400  0.76130  1.0000 0.0236093292
C   C51       1.0  0.71050  0.99180  0.76040  1.0000 0.0311016619
C   C52       1.0  0.66400  0.04600  0.80700  1.0000 -0.1595450684
C   C53       1.0  0.70840  0.98990  0.85420  1.0000 -0.0833805993
C   C54       1.0  0.79110  0.88990  0.85510  1.0000 -0.0435370847
C   C55       1.0  0.82670  0.83400  0.80880  1.0000 -0.1364348389
C   C56       1.0  0.83260  0.84990  0.90660  1.0000 0.5834967934
C   C57       1.0  0.67640  0.05060  0.71170  1.0000 0.0627034709
C   C58       1.0  0.53960  0.09260  0.70060  1.0000 -0.1507034682
C   C59       1.0  0.50950  0.15830  0.65660  1.0000 -0.0928291499
C   C60       1.0  0.62150  0.18850  0.62360  1.0000 -0.0246144019
C   C61       1.0  0.76380  0.14970  0.63610  1.0000 -0.0833805993
C   C62       1.0  0.78720  0.07860  0.67820  1.0000 -0.1507034682
C   C63       1.0  0.59450  0.25860  0.57650  1.0000 0.5945938669
C   C64       1.0  0.12190  0.10530  0.92430  1.0000 0.6079630099
C   C65       1.0  0.14850  0.17950  0.87610  1.0000 -0.0094872492
C   C66       1.0  0.28390  0.21660  0.86330  1.0000 -0.0928291499
C   C67       1.0  0.30870  0.28130  0.81870  1.0000 -0.1507034682
C   C68       1.0  0.19090  0.30800  0.78700  1.0000 0.0827652358
C   C69       1.0  0.05170  0.26640  0.79880  1.0000 -0.1507034682
C   C70       1.0  0.03110  0.20370  0.84440  1.0000 -0.0960531354
C   C71       1.0  0.21560  0.38400  0.73870  1.0000 0.0236093292
C   C72       1.0  0.28950  0.49180  0.73960  1.0000 0.0311016619
C   C73       1.0  0.33600  0.54600  0.69300  1.0000 -0.1595450684
C   C74       1.0  0.29160  0.48990  0.64580  1.0000 -0.0833805993
C   C75       1.0  0.20890  0.38990  0.64490  1.0000 -0.0435370847
C   C76       1.0  0.17330  0.33400  0.69120  1.0000 -0.1364348389
C   C77       1.0  0.16740  0.34990  0.59340  1.0000 0.5834967934
C   C78       1.0  0.32360  0.55060  0.78830  1.0000 0.0627034709
C   C79       1.0  0.46040  0.59260  0.79940  1.0000 -0.1507034682
C   C80       1.0  0.49050  0.65830  0.84340  1.0000 -0.0928291499
C   C81       1.0  0.37850  0.68850  0.87640  1.0000 -0.0246144019
C   C82       1.0  0.23620  0.64970  0.86390  1.0000 -0.0833805993
C   C83       1.0  0.21280  0.57860  0.82180  1.0000 -0.1507034682
C   C84       1.0  0.40550  0.75860  0.92350  1.0000 0.5945938669
C   C85       1.0  0.56700  0.08250  0.00000  1.0000 0.5253757082
C   C86       1.0  0.43300  0.58250  0.50000  1.0000 0.5253757082
O   O1        1.0  0.23450  0.05340  0.05800  1.0000 -0.5701680637
O   O2        1.0  0.99360  0.09860  0.05890  1.0000 -0.5420064884
O   O3        1.0  0.07310  0.27550  0.40960  1.0000 -0.4723709829
O   O4        1.0  0.22590  0.40340  0.44670  1.0000 -0.6445198066
O   O5        1.0  0.53890  0.75030  0.06010  1.0000 -0.5701680637
O   O6        1.0  0.30380  0.80860  0.05610  1.0000 -0.5063160814
O   O7        1.0  0.76550  0.55340  0.44200  1.0000 -0.5701680637
O   O8        1.0  0.00640  0.59860  0.44110  1.0000 -0.5420064884
O   O9        1.0  0.92690  0.77550  0.09040  1.0000 -0.4723709829
O   O10       1.0  0.77410  0.90340  0.05330  1.0000 -0.6445198066
O   O11       1.0  0.46110  0.25030  0.43990  1.0000 -0.5701680637
O   O12       1.0  0.69620  0.30860  0.44390  1.0000 -0.5063160814
O   O13       1.0  0.76550  0.55340  0.55800  1.0000 -0.5701680637
O   O14       1.0  0.00640  0.59860  0.55890  1.0000 -0.5420064884
O   O15       1.0  0.92690  0.77550  0.90960  1.0000 -0.4723709829
O   O16       1.0  0.77410  0.90340  0.94670  1.0000 -0.6445198066
O   O17       1.0  0.46110  0.25030  0.56010  1.0000 -0.5701680637
O   O18       1.0  0.69620  0.30860  0.55610  1.0000 -0.5063160814
O   O19       1.0  0.23450  0.05340  0.94200  1.0000 -0.5701680637
O   O20       1.0  0.99360  0.09860  0.94110  1.0000 -0.5420064884
O   O21       1.0  0.07310  0.27550  0.59040  1.0000 -0.4723709829
O   O22       1.0  0.22590  0.40340  0.55330  1.0000 -0.6445198066
O   O23       1.0  0.53890  0.75030  0.93990  1.0000 -0.5701680637
O   O24       1.0  0.30380  0.80860  0.94390  1.0000 -0.5063160814
O   O25       1.0  0.50580  0.98460  0.00000  1.0000 -0.5420064884
O   O26       1.0  0.04590  0.86470  0.00000  1.0000 -0.7073245801
O   O27       1.0  0.70380  0.10830  0.00000  1.0000 -0.4921602763
O   O28       1.0  0.49420  0.48460  0.50000  1.0000 -0.5420064884
O   O29       1.0  0.95410  0.36470  0.50000  1.0000 -0.7073245801
O   O30       1.0  0.29620  0.60830  0.50000  1.0000 -0.4921602763
