# DDEC6 charges by PACMAN v1.1 (https://github.com/mtap-research/PACMAN-charge/)
data_2019[Zr][scu]3[ASR]5
_chemical_formula_sum              "Zr12 H116 C192 N4 O48"
_cell_length_a       29.7552
_cell_length_b       29.7552
_cell_length_c       29.7552
_cell_angle_alpha    136.056
_cell_angle_beta     102.518
_cell_angle_gamma    93.6256

_symmetry_space_group_name_H-M    "P 1"
_symmetry_Int_Tables_number       1

loop_
  _symmetry_equiv_pos_as_xyz
  'x, y, z'

loop_
  _atom_site_type_symbol
  _atom_site_label
  _atom_site_symmetry_multiplicity
  _atom_site_fract_x
  _atom_site_fract_y
  _atom_site_fract_z
  _atom_site_occupancy
  _atom_site_charge
Zr  Zr1       1.0  0.73526  0.43977  0.29549  1.0000 2.2915327303
Zr  Zr2       1.0  0.14428  0.43977  0.70451  1.0000 2.2915327303
Zr  Zr3       1.0  0.85572  0.56023  0.29549  1.0000 2.2915327303
Zr  Zr4       1.0  0.26474  0.56023  0.70451  1.0000 2.2915327303
Zr  Zr5       1.0  0.15708  0.57965  0.73673  1.0000 2.3709070436
Zr  Zr6       1.0  0.84292  0.42035  0.26327  1.0000 2.3709070436
Zr  Zr7       1.0  0.15708  0.42035  0.57743  1.0000 2.3709070436
Zr  Zr8       1.0  0.84292  0.57965  0.42257  1.0000 2.3709070436
Zr  Zr9       1.0  0.74803  0.42023  0.16826  1.0000 2.3862186027
Zr  Zr10      1.0  0.25197  0.57977  0.83174  1.0000 2.3862186027
Zr  Zr11      1.0  0.74803  0.57977  0.32780  1.0000 2.3862186027
Zr  Zr12      1.0  0.25197  0.42023  0.67220  1.0000 2.3950252287
H   H1        1.0  0.28698  0.72061  0.72803  1.0000 0.1180798077
H   H2        1.0  0.59231  0.25676  0.10415  1.0000 0.1282027341
H   H3        1.0  0.21068  0.76104  0.77136  1.0000 0.1282027341
H   H4        1.0  0.24527  0.92854  0.79331  1.0000 0.1180798077
H   H5        1.0  0.22392  0.84246  0.78040  1.0000 0.1087942329
H   H6        1.0  0.33778  0.78430  0.72650  1.0000 0.1087942329
H   H7        1.0  0.35914  0.87037  0.73941  1.0000 0.1087942329
H   H8        1.0  0.59880  0.26639  0.01985  1.0000 0.1009470898
H   H9        1.0  0.36666  0.11938  0.82488  1.0000 0.1180798077
H   H10       1.0  0.38960  0.00218  0.84518  1.0000 0.1009470898
H   H11       1.0  0.52777  0.21351  0.92428  1.0000 0.1087942329
H   H12       1.0  0.44853  0.14025  0.84676  1.0000 0.1087942329
H   H13       1.0  0.44428  0.09828  0.94772  1.0000 0.1087942329
H   H14       1.0  0.52352  0.17154  0.02524  1.0000 0.1087942329
H   H15       1.0  0.99258  0.55895  0.27197  1.0000 0.1180798077
H   H16       1.0  0.15261  0.48816  0.89585  1.0000 0.1282027341
H   H17       1.0  0.98968  0.43932  0.22864  1.0000 0.1282027341
H   H18       1.0  0.13523  0.45196  0.20669  1.0000 0.1180798077
H   H19       1.0  0.06206  0.44352  0.21960  1.0000 0.1087942329
H   H20       1.0  0.05780  0.61128  0.27350  1.0000 0.1087942329
H   H21       1.0  0.13096  0.61973  0.26059  1.0000 0.1087942329
H   H22       1.0  0.24654  0.57895  0.98015  1.0000 0.1009470898
H   H23       1.0  0.29450  0.54178  0.17512  1.0000 0.1180798077
H   H24       1.0  0.15700  0.54442  0.15482  1.0000 0.1009470898
H   H25       1.0  0.28923  0.60349  0.07572  1.0000 0.1087942329
H   H26       1.0  0.29349  0.60177  0.15324  1.0000 0.1087942329
H   H27       1.0  0.15056  0.49656  0.05228  1.0000 0.1087942329
H   H28       1.0  0.14630  0.49828  0.97476  1.0000 0.1087942329
H   H29       1.0  0.00742  0.27939  0.56637  1.0000 0.1180798077
H   H30       1.0  0.84739  0.74324  0.33555  1.0000 0.1282027341
H   H31       1.0  0.01032  0.23896  0.44964  1.0000 0.1282027341
H   H32       1.0  0.86477  0.07146  0.31673  1.0000 0.1180798077
H   H33       1.0  0.93794  0.15754  0.38146  1.0000 0.1087942329
H   H34       1.0  0.94220  0.21570  0.55348  1.0000 0.1087942329
H   H35       1.0  0.86904  0.12963  0.48877  1.0000 0.1087942329
H   H36       1.0  0.75346  0.73361  0.33241  1.0000 0.1009470898
H   H37       1.0  0.70550  0.88062  0.24728  1.0000 0.1180798077
H   H38       1.0  0.84300  0.99782  0.38742  1.0000 0.1009470898
H   H39       1.0  0.71077  0.78649  0.31426  1.0000 0.1087942329
H   H40       1.0  0.70651  0.85975  0.30828  1.0000 0.1087942329
H   H41       1.0  0.84944  0.90172  0.34600  1.0000 0.1087942329
H   H42       1.0  0.85370  0.82846  0.35198  1.0000 0.1087942329
H   H43       1.0  0.71302  0.44105  0.43363  1.0000 0.1180798077
H   H44       1.0  0.40769  0.51184  0.66445  1.0000 0.1282027341
H   H45       1.0  0.78932  0.56068  0.55036  1.0000 0.1282027341
H   H46       1.0  0.75473  0.54804  0.68327  1.0000 0.1180798077
H   H47       1.0  0.77608  0.55648  0.61854  1.0000 0.1087942329
H   H48       1.0  0.66222  0.38872  0.44652  1.0000 0.1087942329
H   H49       1.0  0.64086  0.38027  0.51123  1.0000 0.1087942329
H   H50       1.0  0.40120  0.42105  0.66759  1.0000 0.1009470898
H   H51       1.0  0.63334  0.45822  0.75272  1.0000 0.1087942329
H   H52       1.0  0.61040  0.45558  0.61258  1.0000 0.1009470898
H   H53       1.0  0.47223  0.39651  0.68574  1.0000 0.1087942329
H   H54       1.0  0.55147  0.39823  0.69172  1.0000 0.1087942329
H   H55       1.0  0.55572  0.50344  0.65400  1.0000 0.1087942329
H   H56       1.0  0.47648  0.50172  0.64802  1.0000 0.1087942329
H   H57       1.0  0.71302  0.27939  0.27197  1.0000 0.1180798077
H   H58       1.0  0.40769  0.74324  0.89585  1.0000 0.1282027341
H   H59       1.0  0.78932  0.23896  0.22864  1.0000 0.1282027341
H   H60       1.0  0.75473  0.07146  0.20669  1.0000 0.1180798077
H   H61       1.0  0.77608  0.15754  0.21960  1.0000 0.1087942329
H   H62       1.0  0.66222  0.21570  0.27350  1.0000 0.1087942329
H   H63       1.0  0.64086  0.12963  0.26059  1.0000 0.1087942329
H   H64       1.0  0.40120  0.73361  0.98015  1.0000 0.1009470898
H   H65       1.0  0.63334  0.88062  0.17512  1.0000 0.1087942329
H   H66       1.0  0.61040  0.99782  0.15482  1.0000 0.1009470898
H   H67       1.0  0.47223  0.78649  0.07572  1.0000 0.1087942329
H   H68       1.0  0.55147  0.85975  0.15324  1.0000 0.1087942329
H   H69       1.0  0.55572  0.90172  0.05228  1.0000 0.1087942329
H   H70       1.0  0.47648  0.82846  0.97476  1.0000 0.1087942329
H   H71       1.0  0.00742  0.44105  0.72803  1.0000 0.1180798077
H   H72       1.0  0.84739  0.51184  0.10415  1.0000 0.1282027341
H   H73       1.0  0.01032  0.56068  0.77136  1.0000 0.1282027341
H   H74       1.0  0.86477  0.54804  0.79331  1.0000 0.1180798077
H   H75       1.0  0.93794  0.55648  0.78040  1.0000 0.1087942329
H   H76       1.0  0.94220  0.38872  0.72650  1.0000 0.1087942329
H   H77       1.0  0.86904  0.38027  0.73941  1.0000 0.1087942329
H   H78       1.0  0.75346  0.42105  0.01985  1.0000 0.1009470898
H   H79       1.0  0.70550  0.45822  0.82488  1.0000 0.1180798077
H   H80       1.0  0.84300  0.45558  0.84518  1.0000 0.1087942329
H   H81       1.0  0.71077  0.39651  0.92428  1.0000 0.1087942329
H   H82       1.0  0.70651  0.39823  0.84676  1.0000 0.1087942329
H   H83       1.0  0.84944  0.50344  0.94772  1.0000 0.1087942329
H   H84       1.0  0.85370  0.50172  0.02524  1.0000 0.1087942329
H   H85       1.0  0.99258  0.72061  0.43363  1.0000 0.1180798077
H   H86       1.0  0.15261  0.25676  0.66445  1.0000 0.1282027341
H   H87       1.0  0.98968  0.76104  0.55036  1.0000 0.1282027341
H   H88       1.0  0.13523  0.92854  0.68327  1.0000 0.1180798077
H   H89       1.0  0.06206  0.84246  0.61854  1.0000 0.1087942329
H   H90       1.0  0.05780  0.78430  0.44652  1.0000 0.1087942329
H   H91       1.0  0.13096  0.87037  0.51123  1.0000 0.1087942329
H   H92       1.0  0.24654  0.26639  0.66759  1.0000 0.1009470898
H   H93       1.0  0.29450  0.11938  0.75272  1.0000 0.1180798077
H   H94       1.0  0.15700  0.00218  0.61258  1.0000 0.1009470898
H   H95       1.0  0.28923  0.21351  0.68574  1.0000 0.1087942329
H   H96       1.0  0.29349  0.14025  0.69172  1.0000 0.1087942329
H   H97       1.0  0.15056  0.09828  0.65400  1.0000 0.1087942329
H   H98       1.0  0.14630  0.17154  0.64802  1.0000 0.1087942329
H   H99       1.0  0.28698  0.55895  0.56637  1.0000 0.1180798077
H   H100      1.0  0.59231  0.48816  0.33555  1.0000 0.1282027341
H   H101      1.0  0.21068  0.43932  0.44964  1.0000 0.1282027341
H   H102      1.0  0.24527  0.45196  0.31673  1.0000 0.1180798077
H   H103      1.0  0.22392  0.44352  0.38146  1.0000 0.1087942329
H   H104      1.0  0.33778  0.61128  0.55348  1.0000 0.1087942329
H   H105      1.0  0.35914  0.61973  0.48877  1.0000 0.1087942329
H   H106      1.0  0.59880  0.57895  0.33241  1.0000 0.1009470898
H   H107      1.0  0.36666  0.54178  0.24728  1.0000 0.1180798077
H   H108      1.0  0.38960  0.54442  0.38742  1.0000 0.1009470898
H   H109      1.0  0.52777  0.60349  0.31426  1.0000 0.1087942329
H   H110      1.0  0.44853  0.60177  0.30828  1.0000 0.1087942329
H   H111      1.0  0.44428  0.49656  0.34600  1.0000 0.1087942329
H   H112      1.0  0.52352  0.49828  0.35198  1.0000 0.1087942329
H   H113      1.0  0.22521  0.89670  0.67149  1.0000 0.2722850494
H   H114      1.0  0.22521  0.55372  0.32851  1.0000 0.2722850494
H   H115      1.0  0.77479  0.10330  0.32851  1.0000 0.2722850494
H   H116      1.0  0.77479  0.44628  0.67149  1.0000 0.2722850494
C   C1        1.0  0.22500  0.67810  0.74470  1.0000 0.6730737175
C   C2        1.0  0.26730  0.74830  0.74340  1.0000 -0.0869876951
C   C3        1.0  0.60710  0.27310  0.09180  1.0000 -0.2611323133
C   C4        1.0  0.65690  0.32460  0.13930  1.0000 0.6768101719
C   C5        1.0  0.23130  0.73480  0.75590  1.0000 -0.2803195551
C   C6        1.0  0.30432  0.90803  0.76769  1.0000 0.0787246469
C   C7        1.0  0.26385  0.89970  0.77995  1.0000 -0.1784544386
C   C8        1.0  0.25101  0.84804  0.77217  1.0000 -0.1403959044
C   C9        1.0  0.27873  0.80480  0.75213  1.0000 0.1009470898
C   C10       1.0  0.31924  0.81318  0.73986  1.0000 -0.1506957651
C   C11       1.0  0.33203  0.86479  0.74764  1.0000 -0.1506957651
C   C12       1.0  0.58320  0.24990  0.03150  1.0000 -0.1252690204
C   C13       1.0  0.38603  0.06791  0.84252  1.0000 0.0690578955
C   C14       1.0  0.35531  0.08139  0.81372  1.0000 -0.2025976169
C   C15       1.0  0.30761  0.03803  0.76818  1.0000 -0.0076890159
C   C16       1.0  0.29064  0.98119  0.75145  1.0000 0.0878015863
C   C17       1.0  0.32135  0.96781  0.78034  1.0000 -0.0076890159
C   C18       1.0  0.36905  0.01117  0.82588  1.0000 -0.2025976169
C   C19       1.0  0.53350  0.19982  0.98248  1.0000 0.0878015863
C   C20       1.0  0.51103  0.19043  0.92900  1.0000 -0.1403959044
C   C21       1.0  0.46356  0.14647  0.88249  1.0000 -0.1594837455
C   C22       1.0  0.43855  0.11200  0.88955  1.0000 0.0690578955
C   C23       1.0  0.46102  0.12139  0.94303  1.0000 -0.1594837455
C   C24       1.0  0.50849  0.16524  0.98945  1.0000 -0.1506957651
C   C25       1.0  0.93340  0.48030  0.25530  1.0000 0.6768101719
C   C26       1.0  0.00490  0.52390  0.25660  1.0000 -0.0869876951
C   C27       1.0  0.18130  0.51530  0.90820  1.0000 -0.2611323133
C   C28       1.0  0.18530  0.51760  0.86070  1.0000 0.6768101719
C   C29       1.0  0.97890  0.47540  0.24410  1.0000 -0.2803195551
C   C30       1.0  0.14034  0.53663  0.23231  1.0000 0.0787246469
C   C31       1.0  0.11975  0.48390  0.22005  1.0000 -0.1784544386
C   C32       1.0  0.07587  0.47884  0.22783  1.0000 -0.1403959044
C   C33       1.0  0.05267  0.52660  0.24787  1.0000 0.1009470898
C   C34       1.0  0.07332  0.57938  0.26014  1.0000 -0.1506957651
C   C35       1.0  0.11715  0.58439  0.25236  1.0000 -0.1594837455
C   C36       1.0  0.21840  0.55170  0.96850  1.0000 -0.1232854622
C   C37       1.0  0.22539  0.54351  0.15748  1.0000 0.0690578955
C   C38       1.0  0.26767  0.54159  0.18628  1.0000 -0.2025976169
C   C39       1.0  0.26985  0.53943  0.23182  1.0000 -0.0076890159
C   C40       1.0  0.22974  0.53919  0.24855  1.0000 0.0878015863
C   C41       1.0  0.18747  0.54101  0.21966  1.0000 -0.0076890159
C   C42       1.0  0.18529  0.54317  0.17412  1.0000 -0.2025976169
C   C43       1.0  0.21734  0.55102  0.01752  1.0000 0.0878015863
C   C44       1.0  0.26143  0.58203  0.07100  1.0000 -0.1506957651
C   C45       1.0  0.26398  0.58107  0.11751  1.0000 -0.1594837455
C   C46       1.0  0.22245  0.54900  0.11045  1.0000 0.064722491
C   C47       1.0  0.17836  0.51799  0.05697  1.0000 -0.1594837455
C   C48       1.0  0.17579  0.51904  0.01055  1.0000 -0.1403959044
C   C49       1.0  0.06660  0.32190  0.54690  1.0000 0.6730737175
C   C50       1.0  0.99510  0.25170  0.51900  1.0000 -0.0869876951
C   C51       1.0  0.81870  0.72690  0.33400  1.0000 -0.2611323133
C   C52       1.0  0.81470  0.67540  0.33230  1.0000 0.6768101719
C   C53       1.0  0.02110  0.26520  0.49650  1.0000 -0.2803195551
C   C54       1.0  0.85966  0.09197  0.39629  1.0000 0.0787246469
C   C55       1.0  0.88025  0.10030  0.36415  1.0000 -0.1784544386
C   C56       1.0  0.92413  0.15196  0.40297  1.0000 -0.1403959044
C   C57       1.0  0.94733  0.19520  0.47393  1.0000 0.1009470898
C   C58       1.0  0.92668  0.18682  0.50606  1.0000 -0.1506957651
C   C59       1.0  0.88285  0.13521  0.46724  1.0000 -0.1506957651
C   C60       1.0  0.78160  0.75010  0.33333  1.0000 -0.1232854622
C   C61       1.0  0.77461  0.93209  0.31812  1.0000 0.0690578955
C   C62       1.0  0.73233  0.91861  0.27392  1.0000 -0.2055402197
C   C63       1.0  0.73015  0.96197  0.26958  1.0000 -0.0076890159
C   C64       1.0  0.77026  0.01881  0.30945  1.0000 0.0878015863
C   C65       1.0  0.81253  0.03219  0.35354  1.0000 -0.0076890159
C   C66       1.0  0.81471  0.98883  0.35788  1.0000 -0.2025976169
C   C67       1.0  0.78266  0.80018  0.33368  1.0000 0.0878015863
C   C68       1.0  0.73857  0.80957  0.32060  1.0000 -0.1506957651
C   C69       1.0  0.73602  0.85353  0.31709  1.0000 -0.1594837455
C   C70       1.0  0.77755  0.88800  0.32655  1.0000 0.0690578955
C   C71       1.0  0.82164  0.87861  0.33963  1.0000 -0.1594837455
C   C72       1.0  0.82421  0.83476  0.34325  1.0000 -0.1403959044
C   C73       1.0  0.77500  0.51970  0.45310  1.0000 0.6730737175
C   C74       1.0  0.73270  0.47610  0.48100  1.0000 -0.0869876951
C   C75       1.0  0.39290  0.48470  0.66600  1.0000 -0.2611323133
C   C76       1.0  0.34310  0.48240  0.66770  1.0000 0.6768101719
C   C77       1.0  0.76870  0.52460  0.50350  1.0000 -0.2803195551
C   C78       1.0  0.69568  0.46337  0.60371  1.0000 0.0787246469
C   C79       1.0  0.73615  0.51610  0.63585  1.0000 -0.1784544386
C   C80       1.0  0.74899  0.52116  0.59703  1.0000 -0.1403959044
C   C81       1.0  0.72127  0.47340  0.52607  1.0000 0.1009470898
C   C82       1.0  0.68076  0.42062  0.49394  1.0000 -0.1506957651
C   C83       1.0  0.66797  0.41561  0.53276  1.0000 -0.1506957651
C   C84       1.0  0.41680  0.44830  0.66667  1.0000 -0.1252690204
C   C85       1.0  0.61397  0.45649  0.68188  1.0000 0.0690578955
C   C86       1.0  0.64469  0.45841  0.72608  1.0000 -0.2025976169
C   C87       1.0  0.69239  0.46057  0.73042  1.0000 -0.0076890159
C   C88       1.0  0.70936  0.46081  0.69055  1.0000 0.0878015863
C   C89       1.0  0.67865  0.45899  0.64646  1.0000 -0.0076890159
C   C90       1.0  0.63095  0.45683  0.64212  1.0000 -0.2025976169
C   C91       1.0  0.46650  0.44898  0.66632  1.0000 0.0878015863
C   C92       1.0  0.48897  0.41797  0.67940  1.0000 -0.1506957651
C   C93       1.0  0.53644  0.41893  0.68291  1.0000 -0.1594837455
C   C94       1.0  0.56145  0.45100  0.67345  1.0000 0.0690578955
C   C95       1.0  0.53898  0.48201  0.66037  1.0000 -0.1594837455
C   C96       1.0  0.49151  0.48096  0.65675  1.0000 -0.1506957651
C   C97       1.0  0.77500  0.32190  0.25530  1.0000 0.6768101719
C   C98       1.0  0.73270  0.25170  0.25660  1.0000 -0.0869876951
C   C99       1.0  0.39290  0.72690  0.90820  1.0000 -0.2611323133
C   C100      1.0  0.34310  0.67540  0.86070  1.0000 0.6768101719
C   C101      1.0  0.76870  0.26520  0.24410  1.0000 -0.2803195551
C   C102      1.0  0.69568  0.09197  0.23231  1.0000 0.0787246469
C   C103      1.0  0.73615  0.10030  0.22005  1.0000 -0.1784544386
C   C104      1.0  0.74899  0.15196  0.22783  1.0000 -0.1403959044
C   C105      1.0  0.72127  0.19520  0.24787  1.0000 0.1009470898
C   C106      1.0  0.68076  0.18682  0.26014  1.0000 -0.1506957651
C   C107      1.0  0.66797  0.13521  0.25236  1.0000 -0.1594837455
C   C108      1.0  0.41680  0.75010  0.96850  1.0000 -0.1232854622
C   C109      1.0  0.61397  0.93209  0.15748  1.0000 0.0690578955
C   C110      1.0  0.64469  0.91861  0.18628  1.0000 -0.2025976169
C   C111      1.0  0.69239  0.96197  0.23182  1.0000 -0.0076890159
C   C112      1.0  0.70936  0.01881  0.24855  1.0000 0.0878015863
C   C113      1.0  0.67865  0.03219  0.21966  1.0000 -0.0076890159
C   C114      1.0  0.63095  0.98883  0.17412  1.0000 -0.2025976169
C   C115      1.0  0.46650  0.80018  0.01752  1.0000 0.0878015863
C   C116      1.0  0.48897  0.80957  0.07100  1.0000 -0.1506957651
C   C117      1.0  0.53644  0.85353  0.11751  1.0000 -0.1594837455
C   C118      1.0  0.56145  0.88800  0.11045  1.0000 0.0690578955
C   C119      1.0  0.53898  0.87861  0.05697  1.0000 -0.1594837455
C   C120      1.0  0.49151  0.83476  0.01055  1.0000 -0.1403959044
C   C121      1.0  0.06660  0.51970  0.74470  1.0000 0.6730737175
C   C122      1.0  0.99510  0.47610  0.74340  1.0000 -0.0869876951
C   C123      1.0  0.81870  0.48470  0.09180  1.0000 -0.2611323133
C   C124      1.0  0.81470  0.48240  0.13930  1.0000 0.6730737175
C   C125      1.0  0.02110  0.52460  0.75590  1.0000 -0.2803195551
C   C126      1.0  0.85966  0.46337  0.76769  1.0000 0.0787246469
C   C127      1.0  0.88025  0.51610  0.77995  1.0000 -0.1784544386
C   C128      1.0  0.92413  0.52116  0.77217  1.0000 -0.1403959044
C   C129      1.0  0.94733  0.47340  0.75213  1.0000 0.1009470898
C   C130      1.0  0.92668  0.42062  0.73986  1.0000 -0.1506957651
C   C131      1.0  0.88285  0.41561  0.74764  1.0000 -0.1506957651
C   C132      1.0  0.78160  0.44830  0.03150  1.0000 -0.1232854622
C   C133      1.0  0.77461  0.45649  0.84252  1.0000 0.0690578955
C   C134      1.0  0.73233  0.45841  0.81372  1.0000 -0.2025976169
C   C135      1.0  0.73015  0.46057  0.76818  1.0000 -0.0076890159
C   C136      1.0  0.77026  0.46081  0.75145  1.0000 0.0787246469
C   C137      1.0  0.81253  0.45899  0.78034  1.0000 -0.0076890159
C   C138      1.0  0.81471  0.45683  0.82588  1.0000 -0.2025976169
C   C139      1.0  0.78266  0.44898  0.98248  1.0000 0.0878015863
C   C140      1.0  0.73857  0.41797  0.92900  1.0000 -0.1403959044
C   C141      1.0  0.73602  0.41893  0.88249  1.0000 -0.1594837455
C   C142      1.0  0.77755  0.45100  0.88955  1.0000 0.0690578955
C   C143      1.0  0.82164  0.48201  0.94303  1.0000 -0.1594837455
C   C144      1.0  0.82421  0.48096  0.98945  1.0000 -0.1403959044
C   C145      1.0  0.93340  0.67810  0.45310  1.0000 0.6730737175
C   C146      1.0  0.00490  0.74830  0.48100  1.0000 -0.0869876951
C   C147      1.0  0.18130  0.27310  0.66600  1.0000 -0.2611323133
C   C148      1.0  0.18530  0.32460  0.66770  1.0000 0.6730737175
C   C149      1.0  0.97890  0.73480  0.50350  1.0000 -0.2803195551
C   C150      1.0  0.14034  0.90803  0.60371  1.0000 0.0787246469
C   C151      1.0  0.11975  0.89970  0.63585  1.0000 -0.1784544386
C   C152      1.0  0.07587  0.84804  0.59703  1.0000 -0.1403959044
C   C153      1.0  0.05267  0.80480  0.52607  1.0000 0.1009470898
C   C154      1.0  0.07332  0.81318  0.49394  1.0000 -0.1506957651
C   C155      1.0  0.11715  0.86479  0.53276  1.0000 -0.1506957651
C   C156      1.0  0.21840  0.24990  0.66667  1.0000 -0.1232854622
C   C157      1.0  0.22539  0.06791  0.68188  1.0000 0.0690578955
C   C158      1.0  0.26767  0.08139  0.72608  1.0000 -0.2025976169
C   C159      1.0  0.26985  0.03803  0.73042  1.0000 -0.0076890159
C   C160      1.0  0.22974  0.98119  0.69055  1.0000 0.0878015863
C   C161      1.0  0.18747  0.96781  0.64646  1.0000 -0.0076890159
C   C162      1.0  0.18529  0.01117  0.64212  1.0000 -0.2025976169
C   C163      1.0  0.21734  0.19982  0.66632  1.0000 0.0878015863
C   C164      1.0  0.26143  0.19043  0.67940  1.0000 -0.1506957651
C   C165      1.0  0.26398  0.14647  0.68291  1.0000 -0.1594837455
C   C166      1.0  0.22245  0.11200  0.67345  1.0000 0.0690578955
C   C167      1.0  0.17836  0.12139  0.66037  1.0000 -0.1594837455
C   C168      1.0  0.17579  0.16524  0.65675  1.0000 -0.1506957651
C   C169      1.0  0.22500  0.48030  0.54690  1.0000 0.6730737175
C   C170      1.0  0.26730  0.52390  0.51900  1.0000 -0.0869876951
C   C171      1.0  0.60710  0.51530  0.33400  1.0000 -0.2611323133
C   C172      1.0  0.65690  0.51760  0.33230  1.0000 0.6730737175
C   C173      1.0  0.23130  0.47540  0.49650  1.0000 -0.2803195551
C   C174      1.0  0.30432  0.53663  0.39629  1.0000 0.0787246469
C   C175      1.0  0.26385  0.48390  0.36415  1.0000 -0.1784544386
C   C176      1.0  0.25101  0.47884  0.40297  1.0000 -0.1403959044
C   C177      1.0  0.27873  0.52660  0.47393  1.0000 0.1009470898
C   C178      1.0  0.31924  0.57938  0.50606  1.0000 -0.1506957651
C   C179      1.0  0.33203  0.58439  0.46724  1.0000 -0.1506957651
C   C180      1.0  0.58320  0.55170  0.33333  1.0000 -0.1232854622
C   C181      1.0  0.38603  0.54351  0.31812  1.0000 0.0690578955
C   C182      1.0  0.35531  0.54159  0.27392  1.0000 -0.2025976169
C   C183      1.0  0.30761  0.53943  0.26958  1.0000 -0.0076890159
C   C184      1.0  0.29064  0.53919  0.30945  1.0000 0.0878015863
C   C185      1.0  0.32135  0.54101  0.35354  1.0000 -0.0076890159
C   C186      1.0  0.36905  0.54317  0.35788  1.0000 -0.2025976169
C   C187      1.0  0.53350  0.55102  0.33368  1.0000 0.0878015863
C   C188      1.0  0.51103  0.58203  0.32060  1.0000 -0.1506957651
C   C189      1.0  0.46356  0.58107  0.31709  1.0000 -0.1594837455
C   C190      1.0  0.43855  0.54900  0.32655  1.0000 0.0690578955
C   C191      1.0  0.46102  0.51799  0.33963  1.0000 -0.1594837455
C   C192      1.0  0.50849  0.51904  0.34325  1.0000 -0.1403959044
N   N1        1.0  0.24190  0.93700  0.69510  1.0000 -0.3862931304
N   N2        1.0  0.24190  0.54680  0.30490  1.0000 -0.3862931304
N   N3        1.0  0.75810  0.06300  0.30490  1.0000 -0.3862931304
N   N4        1.0  0.75810  0.45320  0.69510  1.0000 -0.3862931304
O   O1        1.0  0.82643  0.45576  0.21967  1.0000 -1.1789947517
O   O2        1.0  0.25580  0.64735  0.72925  1.0000 -0.5586815648
O   O3        1.0  0.18897  0.66236  0.75001  1.0000 -0.5712460079
O   O4        1.0  0.67886  0.34056  0.11850  1.0000 -0.6072346442
O   O5        1.0  0.67219  0.35295  0.20004  1.0000 -0.5712460079
O   O6        1.0  0.23609  0.60676  0.78033  1.0000 -1.1789947517
O   O7        1.0  0.91810  0.52655  0.27075  1.0000 -0.5586815648
O   O8        1.0  0.91235  0.43896  0.24999  1.0000 -0.5712460079
O   O9        1.0  0.22206  0.56036  0.88150  1.0000 -0.6072346442
O   O10       1.0  0.15291  0.47215  0.79996  1.0000 -0.5712460079
O   O11       1.0  0.76391  0.54424  0.37067  1.0000 -1.1727417556
O   O12       1.0  0.08190  0.35265  0.60845  1.0000 -0.5586815648
O   O13       1.0  0.08765  0.33764  0.52661  1.0000 -0.5712460079
O   O14       1.0  0.77794  0.65944  0.33830  1.0000 -0.6072346442
O   O15       1.0  0.84709  0.64705  0.31924  1.0000 -0.5712460079
O   O16       1.0  0.17357  0.39324  0.62933  1.0000 -1.1789947517
O   O17       1.0  0.74420  0.47345  0.39155  1.0000 -0.5586815648
O   O18       1.0  0.81103  0.56104  0.47339  1.0000 -0.5712460079
O   O19       1.0  0.32114  0.43964  0.66170  1.0000 -0.6072346442
O   O20       1.0  0.32781  0.52785  0.68076  1.0000 -0.5712460079
O   O21       1.0  0.17357  0.54424  0.78033  1.0000 -1.1727417556
O   O22       1.0  0.74420  0.35265  0.27075  1.0000 -0.5586815648
O   O23       1.0  0.81103  0.33764  0.24999  1.0000 -0.5712460079
O   O24       1.0  0.32114  0.65944  0.88150  1.0000 -0.6072346442
O   O25       1.0  0.32781  0.64705  0.79996  1.0000 -0.5712460079
O   O26       1.0  0.76391  0.39324  0.21967  1.0000 -1.1789947517
O   O27       1.0  0.08190  0.47345  0.72925  1.0000 -0.5586815648
O   O28       1.0  0.08765  0.56104  0.75001  1.0000 -0.5712460079
O   O29       1.0  0.77794  0.43964  0.11850  1.0000 -0.6072346442
O   O30       1.0  0.84709  0.52785  0.20004  1.0000 -0.5712460079
O   O31       1.0  0.23609  0.45576  0.62933  1.0000 -1.1727417556
O   O32       1.0  0.91810  0.64735  0.39155  1.0000 -0.5586815648
O   O33       1.0  0.91235  0.66236  0.47339  1.0000 -0.5712460079
O   O34       1.0  0.22206  0.34056  0.66170  1.0000 -0.6072346442
O   O35       1.0  0.15291  0.35295  0.68076  1.0000 -0.5712460079
O   O36       1.0  0.82643  0.60676  0.37067  1.0000 -1.1789947517
O   O37       1.0  0.25580  0.52655  0.60845  1.0000 -0.5586815648
O   O38       1.0  0.18897  0.43896  0.52661  1.0000 -0.5712460079
O   O39       1.0  0.67886  0.56036  0.33830  1.0000 -0.6072346442
O   O40       1.0  0.67219  0.47215  0.31924  1.0000 -0.5712460079
O   O41       1.0  0.77310  0.52570  0.24740  1.0000 -1.0001047202
O   O42       1.0  0.27830  0.52570  0.75260  1.0000 -1.0001047202
O   O43       1.0  0.72170  0.47430  0.24740  1.0000 -1.0001047202
O   O44       1.0  0.22690  0.47430  0.75260  1.0000 -1.0001047202
O   O45       1.0  0.13150  0.47460  0.65690  1.0000 -0.9805143722
O   O46       1.0  0.81770  0.47460  0.34310  1.0000 -0.9805143722
O   O47       1.0  0.18230  0.52540  0.65690  1.0000 -0.9805143722
O   O48       1.0  0.86850  0.52540  0.34310  1.0000 -0.9805143722
