# DDEC6 charges by PACMAN v1.1 (https://github.com/mtap-research/PACMAN-charge/)
data_2019[Zn][nan]2[ASR]4
_chemical_formula_sum              "Zn8 H108 C172 N16 O48"
_cell_length_a       11.3246
_cell_length_b       28.6921
_cell_length_c       18.3532
_cell_angle_alpha    90
_cell_angle_beta     125.978
_cell_angle_gamma    90

_symmetry_space_group_name_H-M    "P 1"
_symmetry_Int_Tables_number       1

loop_
  _symmetry_equiv_pos_as_xyz
  'x, y, z'

loop_
  _atom_site_type_symbol
  _atom_site_label
  _atom_site_symmetry_multiplicity
  _atom_site_fract_x
  _atom_site_fract_y
  _atom_site_fract_z
  _atom_site_occupancy
  _atom_site_charge
Zn  Zn1       1.0  0.23849  0.67503  0.54528  1.0000 0.8310620724
Zn  Zn2       1.0  0.77656  0.67614  0.37457  1.0000 0.8310620724
Zn  Zn3       1.0  0.76151  0.17503  0.95472  1.0000 0.8310620724
Zn  Zn4       1.0  0.22344  0.17614  0.12543  1.0000 0.8310620724
Zn  Zn5       1.0  0.76151  0.32497  0.45472  1.0000 0.8310620724
Zn  Zn6       1.0  0.22344  0.32386  0.62543  1.0000 0.8310620724
Zn  Zn7       1.0  0.23849  0.82497  0.04528  1.0000 0.8310620724
Zn  Zn8       1.0  0.77656  0.82386  0.87457  1.0000 0.8310620724
H   H1        1.0  0.54387  0.70583  0.71243  1.0000 0.1295073922
H   H2        1.0  0.78572  0.69055  0.77297  1.0000 0.1399910417
H   H3        1.0  0.64764  0.60315  0.56368  1.0000 0.1399910417
H   H4        1.0  0.40935  0.61955  0.51113  1.0000 0.1196666837
H   H5        1.0  0.99227  0.65457  0.83640  1.0000 0.1515397331
H   H6        1.0  0.22883  0.63663  0.88597  1.0000 0.1295073922
H   H7        1.0  0.08748  0.59464  0.64210  1.0000 0.1399910417
H   H8        1.0  0.84979  0.61356  0.58592  1.0000 0.1515397331
H   H9        1.0  0.34224  0.59714  0.75864  1.0000 0.1515397331
H   H10       1.0  0.39820  0.61343  0.85790  1.0000 0.1295073922
H   H11       1.0  0.33720  0.51511  0.73401  1.0000 0.1399910417
H   H12       1.0  0.33811  0.43748  0.77304  1.0000 0.1399910417
H   H13       1.0  0.31959  0.48119  0.97432  1.0000 0.1196666837
H   H14       1.0  0.32295  0.55855  0.93750  1.0000 0.1126787576
H   H15       1.0  0.38277  0.39820  0.96472  1.0000 0.1196666837
H   H16       1.0  0.35260  0.38172  0.87177  1.0000 0.1515397331
H   H17       1.0  0.08233  0.40164  0.73554  1.0000 0.1399910417
H   H18       1.0  0.84387  0.38087  0.67868  1.0000 0.1601255774
H   H19       1.0  0.97983  0.34924  0.93200  1.0000 0.1515397331
H   H20       1.0  0.21400  0.37147  0.98363  1.0000 0.1295073922
H   H21       1.0  0.66087  0.33951  0.63279  1.0000 0.1399910417
H   H22       1.0  0.42430  0.32142  0.57719  1.0000 0.1196666837
H   H23       1.0  0.51333  0.32886  0.81868  1.0000 0.1196666837
H   H24       1.0  0.75426  0.34870  0.88119  1.0000 0.1399910417
H   H25       1.0  0.25905  0.73261  0.81940  1.0000 0.1196666837
H   H26       1.0  0.76880  0.76838  0.60680  1.0000 0.1196666837
H   H27       1.0  0.23810  0.49741  0.54315  1.0000 0.1196666837
H   H28       1.0  0.45613  0.20583  0.78757  1.0000 0.1295073922
H   H29       1.0  0.21428  0.19055  0.72703  1.0000 0.1399910417
H   H30       1.0  0.35236  0.10315  0.93632  1.0000 0.1399910417
H   H31       1.0  0.59065  0.11955  0.98887  1.0000 0.1196666837
H   H32       1.0  0.00773  0.15457  0.66360  1.0000 0.1515397331
H   H33       1.0  0.77117  0.13663  0.61403  1.0000 0.1295073922
H   H34       1.0  0.91252  0.09464  0.85790  1.0000 0.1399910417
H   H35       1.0  0.15021  0.11356  0.91408  1.0000 0.1515397331
H   H36       1.0  0.65776  0.09714  0.74136  1.0000 0.1515397331
H   H37       1.0  0.60180  0.11343  0.64210  1.0000 0.1295073922
H   H38       1.0  0.66280  0.01511  0.76599  1.0000 0.1399910417
H   H39       1.0  0.66189  0.93748  0.72696  1.0000 0.1399910417
H   H40       1.0  0.68041  0.98119  0.52568  1.0000 0.1196666837
H   H41       1.0  0.67705  0.05855  0.56250  1.0000 0.1126787576
H   H42       1.0  0.61723  0.89820  0.53528  1.0000 0.1196666837
H   H43       1.0  0.64740  0.88172  0.62823  1.0000 0.1515397331
H   H44       1.0  0.91767  0.90164  0.76446  1.0000 0.1399910417
H   H45       1.0  0.15613  0.88087  0.82132  1.0000 0.1601255774
H   H46       1.0  0.02017  0.84924  0.56800  1.0000 0.1515397331
H   H47       1.0  0.78600  0.87147  0.51637  1.0000 0.1295073922
H   H48       1.0  0.33913  0.83951  0.86721  1.0000 0.1399910417
H   H49       1.0  0.57570  0.82142  0.92281  1.0000 0.1196666837
H   H50       1.0  0.48667  0.82886  0.68132  1.0000 0.1196666837
H   H51       1.0  0.24574  0.84870  0.61881  1.0000 0.1399910417
H   H52       1.0  0.74095  0.23261  0.68060  1.0000 0.1196666837
H   H53       1.0  0.23120  0.26838  0.89320  1.0000 0.1196666837
H   H54       1.0  0.76190  0.99741  0.95685  1.0000 0.1196666837
H   H55       1.0  0.45613  0.29417  0.28757  1.0000 0.1295073922
H   H56       1.0  0.21428  0.30945  0.22703  1.0000 0.1399910417
H   H57       1.0  0.35236  0.39685  0.43632  1.0000 0.1399910417
H   H58       1.0  0.59065  0.38045  0.48887  1.0000 0.1196666837
H   H59       1.0  0.00773  0.34543  0.16360  1.0000 0.1515397331
H   H60       1.0  0.77117  0.36337  0.11403  1.0000 0.1295073922
H   H61       1.0  0.91252  0.40536  0.35790  1.0000 0.1399910417
H   H62       1.0  0.15021  0.38644  0.41408  1.0000 0.1515397331
H   H63       1.0  0.65776  0.40286  0.24136  1.0000 0.1515397331
H   H64       1.0  0.60180  0.38657  0.14210  1.0000 0.1295073922
H   H65       1.0  0.66280  0.48489  0.26599  1.0000 0.1399910417
H   H66       1.0  0.66189  0.56252  0.22696  1.0000 0.1399910417
H   H67       1.0  0.68041  0.51881  0.02568  1.0000 0.1196666837
H   H68       1.0  0.67705  0.44145  0.06250  1.0000 0.1126787576
H   H69       1.0  0.61723  0.60180  0.03528  1.0000 0.1196666837
H   H70       1.0  0.64740  0.61828  0.12823  1.0000 0.1515397331
H   H71       1.0  0.91767  0.59836  0.26446  1.0000 0.1399910417
H   H72       1.0  0.15613  0.61913  0.32132  1.0000 0.1601255774
H   H73       1.0  0.02017  0.65076  0.06800  1.0000 0.1515397331
H   H74       1.0  0.78600  0.62853  0.01637  1.0000 0.1295073922
H   H75       1.0  0.33913  0.66049  0.36721  1.0000 0.1399910417
H   H76       1.0  0.57570  0.67858  0.42281  1.0000 0.1196666837
H   H77       1.0  0.48667  0.67114  0.18132  1.0000 0.1196666837
H   H78       1.0  0.24574  0.65130  0.11881  1.0000 0.1399910417
H   H79       1.0  0.74095  0.26739  0.18060  1.0000 0.1196666837
H   H80       1.0  0.23120  0.23162  0.39320  1.0000 0.1196666837
H   H81       1.0  0.76190  0.50259  0.45685  1.0000 0.1196666837
H   H82       1.0  0.54387  0.79417  0.21243  1.0000 0.1295073922
H   H83       1.0  0.78572  0.80945  0.27297  1.0000 0.1399910417
H   H84       1.0  0.64764  0.89685  0.06368  1.0000 0.1399910417
H   H85       1.0  0.40935  0.88045  0.01113  1.0000 0.1196666837
H   H86       1.0  0.99227  0.84543  0.33640  1.0000 0.1515397331
H   H87       1.0  0.22883  0.86337  0.38597  1.0000 0.1295073922
H   H88       1.0  0.08748  0.90536  0.14210  1.0000 0.1399910417
H   H89       1.0  0.84979  0.88644  0.08592  1.0000 0.1515397331
H   H90       1.0  0.34224  0.90286  0.25864  1.0000 0.1515397331
H   H91       1.0  0.39820  0.88657  0.35790  1.0000 0.1295073922
H   H92       1.0  0.33720  0.98489  0.23401  1.0000 0.1399910417
H   H93       1.0  0.33811  0.06252  0.27304  1.0000 0.1399910417
H   H94       1.0  0.31959  0.01881  0.47432  1.0000 0.1196666837
H   H95       1.0  0.32295  0.94145  0.43750  1.0000 0.1126787576
H   H96       1.0  0.38277  0.10180  0.46472  1.0000 0.1196666837
H   H97       1.0  0.35260  0.11828  0.37177  1.0000 0.1515397331
H   H98       1.0  0.08233  0.09836  0.23554  1.0000 0.1399910417
H   H99       1.0  0.84387  0.11913  0.17868  1.0000 0.1601255774
H   H100      1.0  0.97983  0.15076  0.43200  1.0000 0.1515397331
H   H101      1.0  0.21400  0.12853  0.48363  1.0000 0.1295073922
H   H102      1.0  0.66087  0.16049  0.13279  1.0000 0.1399910417
H   H103      1.0  0.42430  0.17858  0.07719  1.0000 0.1196666837
H   H104      1.0  0.51333  0.17114  0.31868  1.0000 0.1196666837
H   H105      1.0  0.75426  0.15130  0.38119  1.0000 0.1399910417
H   H106      1.0  0.25905  0.76739  0.31940  1.0000 0.1196666837
H   H107      1.0  0.76880  0.73162  0.10680  1.0000 0.1196666837
H   H108      1.0  0.23810  0.00259  0.04315  1.0000 0.1196666837
C   C1        1.0  0.56570  0.68470  0.68200  1.0000 0.1126787576
C   C2        1.0  0.70990  0.67620  0.71820  1.0000 -0.1824034662
C   C3        1.0  0.74230  0.64590  0.67230  1.0000 0.1126787576
C   C4        1.0  0.62870  0.62450  0.59520  1.0000 -0.1698745729
C   C5        1.0  0.48740  0.63450  0.56420  1.0000 0.0672872779
C   C6        1.0  0.89530  0.63500  0.70620  1.0000 0.1196666837
C   C7        1.0  0.01000  0.64210  0.79570  1.0000 -0.1698745729
C   C8        1.0  0.14950  0.63110  0.82500  1.0000 0.0233812307
C   C9        1.0  0.06640  0.60670  0.68150  1.0000 0.0629185955
C   C10       1.0  0.92580  0.61770  0.64810  1.0000 -0.1495030335
C   C11       1.0  0.32360  0.59480  0.80490  1.0000 -0.2000482236
C   C12       1.0  0.33040  0.54430  0.83160  1.0000 0.0875673979
C   C13       1.0  0.33390  0.50830  0.78340  1.0000 -0.1414133236
C   C14       1.0  0.33280  0.46200  0.80580  1.0000 -0.1414133236
C   C15       1.0  0.32400  0.45210  0.87590  1.0000 0.0837500631
C   C16       1.0  0.32240  0.48810  0.92470  1.0000 -0.1495030335
C   C17       1.0  0.32490  0.53410  0.90330  1.0000 -0.1698745729
C   C18       1.0  0.31760  0.40240  0.89860  1.0000 -0.2000482236
C   C19       1.0  0.05980  0.39120  0.77520  1.0000 0.0672872779
C   C20       1.0  0.91860  0.37860  0.74150  1.0000 -0.1414133236
C   C21       1.0  0.88540  0.36280  0.79870  1.0000 0.1126787576
C   C22       1.0  0.99860  0.36010  0.89080  1.0000 -0.1698745729
C   C23       1.0  0.13720  0.37330  0.92120  1.0000 0.0233812307
C   C24       1.0  0.73400  0.34830  0.76280  1.0000 0.1196666837
C   C25       1.0  0.63280  0.33860  0.67240  1.0000 -0.1698745729
C   C26       1.0  0.49200  0.32760  0.63970  1.0000 0.1016473561
C   C27       1.0  0.54340  0.33200  0.78030  1.0000 0.1016473561
C   C28       1.0  0.68760  0.34380  0.81810  1.0000 -0.1883421154
C   C29       1.0  0.19170  0.71150  0.66090  1.0000 0.5511402278
C   C30       1.0  0.09580  0.73130  0.68570  1.0000 -0.0503707291
C   C31       1.0  0.15920  0.74020  0.77580  1.0000 -0.161990738
C   C32       1.0  0.08050  0.75980  0.80370  1.0000 -0.0354330029
C   C33       1.0  0.93260  0.77020  0.74010  1.0000 -0.0503707291
C   C34       1.0  0.86900  0.76120  0.65000  1.0000 -0.161990738
C   C35       1.0  0.94760  0.74190  0.62090  1.0000 -0.0298835118
C   C36       1.0  0.16350  0.77150  0.90270  1.0000 0.5712492257
C   C37       1.0  0.84030  0.79060  0.76710  1.0000 0.5511402278
C   C38       1.0  0.86350  0.73180  0.52170  1.0000 0.5787914931
C   C39       1.0  0.14350  0.58150  0.49330  1.0000 0.5787914931
C   C40       1.0  0.06270  0.53970  0.49270  1.0000 -0.0298835118
C   C41       1.0  0.14110  0.49840  0.52620  1.0000 -0.161990738
C   C42       1.0  0.91830  0.54120  0.46470  1.0000 -0.0503707291
C   C43       1.0  0.82450  0.58450  0.42540  1.0000 0.5511402278
C   C44       1.0  0.43430  0.18470  0.81800  1.0000 0.1126787576
C   C45       1.0  0.29010  0.17620  0.78180  1.0000 -0.1824034662
C   C46       1.0  0.25770  0.14590  0.82770  1.0000 0.1126787576
C   C47       1.0  0.37130  0.12450  0.90480  1.0000 -0.1698745729
C   C48       1.0  0.51260  0.13450  0.93580  1.0000 0.0672872779
C   C49       1.0  0.10470  0.13500  0.79380  1.0000 0.1196666837
C   C50       1.0  0.99000  0.14210  0.70430  1.0000 -0.1698745729
C   C51       1.0  0.85050  0.13110  0.67500  1.0000 0.0233812307
C   C52       1.0  0.93360  0.10670  0.81850  1.0000 0.0629185955
C   C53       1.0  0.07420  0.11770  0.85190  1.0000 -0.1495030335
C   C54       1.0  0.67640  0.09480  0.69510  1.0000 -0.2000482236
C   C55       1.0  0.66960  0.04430  0.66840  1.0000 0.0875673979
C   C56       1.0  0.66610  0.00830  0.71660  1.0000 -0.1414133236
C   C57       1.0  0.66720  0.96200  0.69420  1.0000 -0.1414133236
C   C58       1.0  0.67600  0.95210  0.62410  1.0000 0.0837500631
C   C59       1.0  0.67760  0.98810  0.57530  1.0000 -0.1495030335
C   C60       1.0  0.67510  0.03410  0.59670  1.0000 -0.1698745729
C   C61       1.0  0.68240  0.90240  0.60140  1.0000 -0.2000482236
C   C62       1.0  0.94020  0.89120  0.72480  1.0000 0.0672872779
C   C63       1.0  0.08140  0.87860  0.75850  1.0000 -0.1414133236
C   C64       1.0  0.11460  0.86280  0.70130  1.0000 0.1126787576
C   C65       1.0  0.00140  0.86010  0.60920  1.0000 -0.1698745729
C   C66       1.0  0.86280  0.87330  0.57880  1.0000 0.0233812307
C   C67       1.0  0.26600  0.84830  0.73720  1.0000 0.1196666837
C   C68       1.0  0.36720  0.83860  0.82760  1.0000 -0.1698745729
C   C69       1.0  0.50800  0.82760  0.86030  1.0000 0.1016473561
C   C70       1.0  0.45660  0.83200  0.71970  1.0000 0.1016473561
C   C71       1.0  0.31240  0.84380  0.68190  1.0000 -0.1883421154
C   C72       1.0  0.80830  0.21150  0.83910  1.0000 0.5511402278
C   C73       1.0  0.90420  0.23130  0.81430  1.0000 -0.0503707291
C   C74       1.0  0.84080  0.24020  0.72420  1.0000 -0.161990738
C   C75       1.0  0.91950  0.25980  0.69630  1.0000 -0.0354330029
C   C76       1.0  0.06740  0.27020  0.75990  1.0000 -0.0552334027
C   C77       1.0  0.13100  0.26120  0.85000  1.0000 -0.161990738
C   C78       1.0  0.05240  0.24190  0.87910  1.0000 -0.0298835118
C   C79       1.0  0.83650  0.27150  0.59730  1.0000 0.5712492257
C   C80       1.0  0.15970  0.29060  0.73290  1.0000 0.5511402278
C   C81       1.0  0.13650  0.23180  0.97830  1.0000 0.5787914931
C   C82       1.0  0.85650  0.08150  0.00670  1.0000 0.5787914931
C   C83       1.0  0.93730  0.03970  0.00730  1.0000 -0.0298835118
C   C84       1.0  0.85890  0.99840  0.97380  1.0000 -0.161990738
C   C85       1.0  0.08170  0.04120  0.03530  1.0000 -0.0503707291
C   C86       1.0  0.17550  0.08450  0.07460  1.0000 0.5511402278
C   C87       1.0  0.43430  0.31530  0.31800  1.0000 0.1126787576
C   C88       1.0  0.29010  0.32380  0.28180  1.0000 -0.1824034662
C   C89       1.0  0.25770  0.35410  0.32770  1.0000 0.1126787576
C   C90       1.0  0.37130  0.37550  0.40480  1.0000 -0.1698745729
C   C91       1.0  0.51260  0.36550  0.43580  1.0000 0.0672872779
C   C92       1.0  0.10470  0.36500  0.29380  1.0000 0.1196666837
C   C93       1.0  0.99000  0.35790  0.20430  1.0000 -0.1698745729
C   C94       1.0  0.85050  0.36890  0.17500  1.0000 0.0233812307
C   C95       1.0  0.93360  0.39330  0.31850  1.0000 0.0629185955
C   C96       1.0  0.07420  0.38230  0.35190  1.0000 -0.1495030335
C   C97       1.0  0.67640  0.40520  0.19510  1.0000 -0.2000482236
C   C98       1.0  0.66960  0.45570  0.16840  1.0000 0.0875673979
C   C99       1.0  0.66610  0.49170  0.21660  1.0000 -0.1414133236
C   C100      1.0  0.66720  0.53800  0.19420  1.0000 -0.1414133236
C   C101      1.0  0.67600  0.54790  0.12410  1.0000 0.0837500631
C   C102      1.0  0.67760  0.51190  0.07530  1.0000 -0.1495030335
C   C103      1.0  0.67510  0.46590  0.09670  1.0000 -0.1698745729
C   C104      1.0  0.68240  0.59760  0.10140  1.0000 -0.2000482236
C   C105      1.0  0.94020  0.60880  0.22480  1.0000 0.0672872779
C   C106      1.0  0.08140  0.62140  0.25850  1.0000 -0.1414133236
C   C107      1.0  0.11460  0.63720  0.20130  1.0000 0.1126787576
C   C108      1.0  0.00140  0.63990  0.10920  1.0000 -0.1698745729
C   C109      1.0  0.86280  0.62670  0.07880  1.0000 0.0233812307
C   C110      1.0  0.26600  0.65170  0.23720  1.0000 0.1196666837
C   C111      1.0  0.36720  0.66140  0.32760  1.0000 -0.1698745729
C   C112      1.0  0.50800  0.67240  0.36030  1.0000 0.1016473561
C   C113      1.0  0.45660  0.66800  0.21970  1.0000 0.1016473561
C   C114      1.0  0.31240  0.65620  0.18190  1.0000 -0.1883421154
C   C115      1.0  0.80830  0.28850  0.33910  1.0000 0.5511402278
C   C116      1.0  0.90420  0.26870  0.31430  1.0000 -0.0503707291
C   C117      1.0  0.84080  0.25980  0.22420  1.0000 -0.161990738
C   C118      1.0  0.91950  0.24020  0.19630  1.0000 -0.0298835118
C   C119      1.0  0.06740  0.22980  0.25990  1.0000 -0.0552334027
C   C120      1.0  0.13100  0.23880  0.35000  1.0000 -0.161990738
C   C121      1.0  0.05240  0.25810  0.37910  1.0000 -0.0298835118
C   C122      1.0  0.83650  0.22850  0.09730  1.0000 0.5712492257
C   C123      1.0  0.15970  0.20940  0.23290  1.0000 0.5511402278
C   C124      1.0  0.13650  0.26820  0.47830  1.0000 0.5787914931
C   C125      1.0  0.85650  0.41850  0.50670  1.0000 0.5787914931
C   C126      1.0  0.93730  0.46030  0.50730  1.0000 -0.0298835118
C   C127      1.0  0.85890  0.50160  0.47380  1.0000 -0.161990738
C   C128      1.0  0.08170  0.45880  0.53530  1.0000 -0.0503707291
C   C129      1.0  0.17550  0.41550  0.57460  1.0000 0.5511402278
C   C130      1.0  0.56570  0.81530  0.18200  1.0000 0.1126787576
C   C131      1.0  0.70990  0.82380  0.21820  1.0000 -0.1824034662
C   C132      1.0  0.74230  0.85410  0.17230  1.0000 0.1126787576
C   C133      1.0  0.62870  0.87550  0.09520  1.0000 -0.1698745729
C   C134      1.0  0.48740  0.86550  0.06420  1.0000 0.0672872779
C   C135      1.0  0.89530  0.86500  0.20620  1.0000 0.1196666837
C   C136      1.0  0.01000  0.85790  0.29570  1.0000 -0.1698745729
C   C137      1.0  0.14950  0.86890  0.32500  1.0000 0.0233812307
C   C138      1.0  0.06640  0.89330  0.18150  1.0000 0.0629185955
C   C139      1.0  0.92580  0.88230  0.14810  1.0000 -0.1495030335
C   C140      1.0  0.32360  0.90520  0.30490  1.0000 -0.2000482236
C   C141      1.0  0.33040  0.95570  0.33160  1.0000 0.0875673979
C   C142      1.0  0.33390  0.99170  0.28340  1.0000 -0.1495030335
C   C143      1.0  0.33280  0.03800  0.30580  1.0000 -0.1414133236
C   C144      1.0  0.32400  0.04790  0.37590  1.0000 0.0837500631
C   C145      1.0  0.32240  0.01190  0.42470  1.0000 -0.1495030335
C   C146      1.0  0.32490  0.96590  0.40330  1.0000 -0.1698745729
C   C147      1.0  0.31760  0.09760  0.39860  1.0000 -0.2000482236
C   C148      1.0  0.05980  0.10880  0.27520  1.0000 0.0672872779
C   C149      1.0  0.91860  0.12140  0.24150  1.0000 -0.1414133236
C   C150      1.0  0.88540  0.13720  0.29870  1.0000 0.1196666837
C   C151      1.0  0.99860  0.13990  0.39080  1.0000 -0.1698745729
C   C152      1.0  0.13720  0.12670  0.42120  1.0000 0.0233812307
C   C153      1.0  0.73400  0.15170  0.26280  1.0000 0.1196666837
C   C154      1.0  0.63280  0.16140  0.17240  1.0000 -0.1698745729
C   C155      1.0  0.49200  0.17240  0.13970  1.0000 0.1016473561
C   C156      1.0  0.54340  0.16800  0.28030  1.0000 0.1016473561
C   C157      1.0  0.68760  0.15620  0.31810  1.0000 -0.1883421154
C   C158      1.0  0.19170  0.78850  0.16090  1.0000 0.5511402278
C   C159      1.0  0.09580  0.76870  0.18570  1.0000 -0.0503707291
C   C160      1.0  0.15920  0.75980  0.27580  1.0000 -0.161990738
C   C161      1.0  0.08050  0.74020  0.30370  1.0000 -0.0354330029
C   C162      1.0  0.93260  0.72980  0.24010  1.0000 -0.0503707291
C   C163      1.0  0.86900  0.73880  0.15000  1.0000 -0.161990738
C   C164      1.0  0.94760  0.75810  0.12090  1.0000 -0.0298835118
C   C165      1.0  0.16350  0.72850  0.40270  1.0000 0.5712492257
C   C166      1.0  0.84030  0.70940  0.26710  1.0000 0.5511402278
C   C167      1.0  0.86350  0.76820  0.02170  1.0000 0.5787914931
C   C168      1.0  0.14350  0.91850  0.99330  1.0000 0.5787914931
C   C169      1.0  0.06270  0.96030  0.99270  1.0000 -0.0298835118
C   C170      1.0  0.14110  0.00160  0.02620  1.0000 -0.161990738
C   C171      1.0  0.91830  0.95880  0.96470  1.0000 -0.0503707291
C   C172      1.0  0.82450  0.91550  0.92540  1.0000 0.5511402278
N   N1        1.0  0.45620  0.66510  0.60730  1.0000 -0.2264088006
N   N2        1.0  0.17450  0.61240  0.76830  1.0000 0.1126787576
N   N3        1.0  0.16550  0.38880  0.86410  1.0000 0.1126787576
N   N4        1.0  0.44570  0.32508  0.69220  1.0000 -0.222272879
N   N5        1.0  0.54380  0.16510  0.89270  1.0000 -0.2264088006
N   N6        1.0  0.82550  0.11240  0.73170  1.0000 0.1126787576
N   N7        1.0  0.83450  0.88880  0.63590  1.0000 0.1126787576
N   N8        1.0  0.55430  0.82508  0.80780  1.0000 -0.222272879
N   N9        1.0  0.54380  0.33490  0.39270  1.0000 -0.2264088006
N   N10       1.0  0.82550  0.38760  0.23170  1.0000 0.1126787576
N   N11       1.0  0.83450  0.61120  0.13590  1.0000 0.1126787576
N   N12       1.0  0.55430  0.67492  0.30780  1.0000 -0.222272879
N   N13       1.0  0.45620  0.83490  0.10730  1.0000 -0.2264088006
N   N14       1.0  0.17450  0.88760  0.26830  1.0000 0.1126787576
N   N15       1.0  0.16550  0.11120  0.36410  1.0000 0.1126787576
N   N16       1.0  0.44570  0.17492  0.19220  1.0000 -0.222272879
O   O1        1.0  0.14750  0.71795  0.58000  1.0000 -0.5097677321
O   O2        1.0  0.30520  0.69075  0.71830  1.0000 -0.569734952
O   O3        1.0  0.22650  0.73994  0.95910  1.0000 -0.569734952
O   O4        1.0  0.16680  0.81430  0.91950  1.0000 -0.5387309403
O   O5        1.0  0.87730  0.78085  0.84490  1.0000 -0.5020029158
O   O6        1.0  0.73390  0.81549  0.71160  1.0000 -0.5794299455
O   O7        1.0  0.80600  0.76505  0.46790  1.0000 -0.569734952
O   O8        1.0  0.84950  0.68919  0.49970  1.0000 -0.5387309403
O   O9        1.0  0.85500  0.61297  0.38550  1.0000 -0.5387309403
O   O10       1.0  0.72430  0.58957  0.43330  1.0000 -0.546696654
O   O11       1.0  0.16660  0.61332  0.54890  1.0000 -0.5560283274
O   O12       1.0  0.18890  0.58079  0.44670  1.0000 -0.546696654
O   O13       1.0  0.85250  0.21795  0.92000  1.0000 -0.5097677321
O   O14       1.0  0.69480  0.19075  0.78170  1.0000 -0.569734952
O   O15       1.0  0.77350  0.23994  0.54090  1.0000 -0.569734952
O   O16       1.0  0.83320  0.31430  0.58050  1.0000 -0.5387309403
O   O17       1.0  0.12270  0.28085  0.65510  1.0000 -0.5020029158
O   O18       1.0  0.26610  0.31549  0.78840  1.0000 -0.5794299455
O   O19       1.0  0.19400  0.26505  0.03210  1.0000 -0.569734952
O   O20       1.0  0.15050  0.18919  0.00030  1.0000 -0.5387309403
O   O21       1.0  0.14500  0.11297  0.11450  1.0000 -0.5387309403
O   O22       1.0  0.27570  0.08957  0.06670  1.0000 -0.546696654
O   O23       1.0  0.83340  0.11332  0.95110  1.0000 -0.5560283274
O   O24       1.0  0.81110  0.08079  0.05330  1.0000 -0.546696654
O   O25       1.0  0.85250  0.28205  0.42000  1.0000 -0.5097677321
O   O26       1.0  0.69480  0.30925  0.28170  1.0000 -0.569734952
O   O27       1.0  0.77350  0.26006  0.04090  1.0000 -0.569734952
O   O28       1.0  0.83320  0.18570  0.08050  1.0000 -0.5387309403
O   O29       1.0  0.12270  0.21915  0.15510  1.0000 -0.5020029158
O   O30       1.0  0.26610  0.18451  0.28840  1.0000 -0.5794299455
O   O31       1.0  0.19400  0.23495  0.53210  1.0000 -0.569734952
O   O32       1.0  0.15050  0.31081  0.50030  1.0000 -0.5387309403
O   O33       1.0  0.14500  0.38703  0.61450  1.0000 -0.5387309403
O   O34       1.0  0.27570  0.41043  0.56670  1.0000 -0.546696654
O   O35       1.0  0.83340  0.38668  0.45110  1.0000 -0.5560283274
O   O36       1.0  0.81110  0.41921  0.55330  1.0000 -0.546696654
O   O37       1.0  0.14750  0.78205  0.08000  1.0000 -0.5097677321
O   O38       1.0  0.30520  0.80925  0.21830  1.0000 -0.569734952
O   O39       1.0  0.22650  0.76006  0.45910  1.0000 -0.569734952
O   O40       1.0  0.16680  0.68570  0.41950  1.0000 -0.5387309403
O   O41       1.0  0.87730  0.71915  0.34490  1.0000 -0.5020029158
O   O42       1.0  0.73390  0.68451  0.21160  1.0000 -0.5794299455
O   O43       1.0  0.80600  0.73495  0.96790  1.0000 -0.569734952
O   O44       1.0  0.84950  0.81081  0.99970  1.0000 -0.5387309403
O   O45       1.0  0.85500  0.88703  0.88550  1.0000 -0.5387309403
O   O46       1.0  0.72430  0.91043  0.93330  1.0000 -0.546696654
O   O47       1.0  0.16660  0.88668  0.04890  1.0000 -0.5560283274
O   O48       1.0  0.18890  0.91921  0.94670  1.0000 -0.546696654
