# DDEC6 charges by PACMAN v1.1 (https://github.com/mtap-research/PACMAN-charge/)
data_2019[Ni][hcb]2[ASR]2
_chemical_formula_sum              "Ni4 H56 C84 N16 O16"
_cell_length_a       11.2054
_cell_length_b       13.3065
_cell_length_c       20.1664
_cell_angle_alpha    90
_cell_angle_beta     90
_cell_angle_gamma    90

_symmetry_space_group_name_H-M    "P 1"
_symmetry_Int_Tables_number       1

loop_
  _symmetry_equiv_pos_as_xyz
  'x, y, z'

loop_
  _atom_site_type_symbol
  _atom_site_label
  _atom_site_symmetry_multiplicity
  _atom_site_fract_x
  _atom_site_fract_y
  _atom_site_fract_z
  _atom_site_occupancy
  _atom_site_charge
Ni  Ni1       1.0  0.21798  0.82810  0.25000  1.0000 0.702085809
Ni  Ni2       1.0  0.28202  0.32810  0.75000  1.0000 0.702085809
Ni  Ni3       1.0  0.78202  0.17190  0.75000  1.0000 0.6927921932
Ni  Ni4       1.0  0.71798  0.67190  0.25000  1.0000 0.702085809
H   H1        1.0  0.91610  0.06080  0.35690  1.0000 0.1296422383
H   H2        1.0  0.23590  0.94000  0.39730  1.0000 0.1296422383
H   H3        1.0  0.25140  0.03650  0.49030  1.0000 0.1216016551
H   H4        1.0  0.26510  0.13300  0.58630  1.0000 0.1216016551
H   H5        1.0  0.94640  0.26040  0.54480  1.0000 0.1216016551
H   H6        1.0  0.92980  0.16010  0.45070  1.0000 0.1121673371
H   H7        1.0  0.58390  0.56080  0.64310  1.0000 0.1296422383
H   H8        1.0  0.26410  0.44000  0.60270  1.0000 0.1296422383
H   H9        1.0  0.24860  0.53650  0.50970  1.0000 0.1216016551
H   H10       1.0  0.23490  0.63300  0.41370  1.0000 0.1216016551
H   H11       1.0  0.55360  0.76040  0.45520  1.0000 0.1216016551
H   H12       1.0  0.57020  0.66010  0.54930  1.0000 0.1121673371
H   H13       1.0  0.91610  0.06080  0.14310  1.0000 0.1296422383
H   H14       1.0  0.23590  0.94000  0.10270  1.0000 0.1296422383
H   H15       1.0  0.25140  0.03650  0.00970  1.0000 0.1216016551
H   H16       1.0  0.26510  0.13300  0.91370  1.0000 0.1216016551
H   H17       1.0  0.94640  0.26040  0.95520  1.0000 0.1216016551
H   H18       1.0  0.92980  0.16010  0.04930  1.0000 0.1121673371
H   H19       1.0  0.58390  0.56080  0.85690  1.0000 0.1296422383
H   H20       1.0  0.26410  0.44000  0.89730  1.0000 0.1296422383
H   H21       1.0  0.24860  0.53650  0.99030  1.0000 0.1216016551
H   H22       1.0  0.23490  0.63300  0.08630  1.0000 0.1296422383
H   H23       1.0  0.55360  0.76040  0.04480  1.0000 0.1216016551
H   H24       1.0  0.57020  0.66010  0.95070  1.0000 0.1121673371
H   H25       1.0  0.93700  0.85110  0.25000  1.0000 0.1697961171
H   H26       1.0  0.87090  0.95800  0.25000  1.0000 0.1503614236
H   H27       1.0  0.56300  0.35110  0.75000  1.0000 0.1697961171
H   H28       1.0  0.62910  0.45800  0.75000  1.0000 0.1503614236
H   H29       1.0  0.08390  0.93920  0.85690  1.0000 0.1296422383
H   H30       1.0  0.76410  0.06000  0.89730  1.0000 0.1296422383
H   H31       1.0  0.74860  0.96350  0.99030  1.0000 0.1216016551
H   H32       1.0  0.73490  0.86700  0.08630  1.0000 0.1296422383
H   H33       1.0  0.05360  0.73960  0.04480  1.0000 0.1216016551
H   H34       1.0  0.07020  0.83990  0.95070  1.0000 0.1121673371
H   H35       1.0  0.41610  0.43920  0.14310  1.0000 0.1296422383
H   H36       1.0  0.73590  0.56000  0.10270  1.0000 0.1296422383
H   H37       1.0  0.75140  0.46350  0.00970  1.0000 0.1216016551
H   H38       1.0  0.76510  0.36700  0.91370  1.0000 0.1216016551
H   H39       1.0  0.44640  0.23960  0.95520  1.0000 0.1216016551
H   H40       1.0  0.42980  0.33990  0.04930  1.0000 0.1121673371
H   H41       1.0  0.08390  0.93920  0.64310  1.0000 0.1296422383
H   H42       1.0  0.76410  0.06000  0.60270  1.0000 0.1296422383
H   H43       1.0  0.74860  0.96350  0.50970  1.0000 0.1216016551
H   H44       1.0  0.73490  0.86700  0.41370  1.0000 0.1296422383
H   H45       1.0  0.05360  0.73960  0.45520  1.0000 0.1216016551
H   H46       1.0  0.07020  0.83990  0.54930  1.0000 0.1121673371
H   H47       1.0  0.41610  0.43920  0.35690  1.0000 0.1296422383
H   H48       1.0  0.73590  0.56000  0.39730  1.0000 0.1296422383
H   H49       1.0  0.75140  0.46350  0.49030  1.0000 0.1216016551
H   H50       1.0  0.76510  0.36700  0.58630  1.0000 0.1216016551
H   H51       1.0  0.44640  0.23960  0.54480  1.0000 0.1216016551
H   H52       1.0  0.42980  0.33990  0.45070  1.0000 0.1121673371
H   H53       1.0  0.06300  0.14890  0.75000  1.0000 0.1697961171
H   H54       1.0  0.12910  0.04200  0.75000  1.0000 0.1503614236
H   H55       1.0  0.43700  0.64890  0.25000  1.0000 0.1643801194
H   H56       1.0  0.37090  0.54200  0.25000  1.0000 0.1503614236
C   C1        1.0  0.98712  0.02186  0.35549  1.0000 -0.1195479434
C   C2        1.0  0.07942  0.02532  0.40071  1.0000 -0.0148301719
C   C3        1.0  0.16181  0.95466  0.37659  1.0000 -0.0237175942
C   C4        1.0  0.08926  0.08815  0.46038  1.0000 0.082294279
C   C5        1.0  0.18864  0.08154  0.50133  1.0000 -0.1510142748
C   C6        1.0  0.19753  0.13988  0.55822  1.0000 -0.1038062769
C   C7        1.0  0.10858  0.20812  0.57435  1.0000 -0.0277315963
C   C8        1.0  0.00860  0.21480  0.53395  1.0000 -0.0930296822
C   C9        1.0  0.99890  0.15519  0.47776  1.0000 -0.1510142748
C   C10       1.0  0.12020  0.27198  0.63544  1.0000 0.5467135023
C   C11       1.0  0.51288  0.52186  0.64451  1.0000 -0.1195479434
C   C12       1.0  0.42058  0.52532  0.59929  1.0000 -0.0148301719
C   C13       1.0  0.33819  0.45466  0.62341  1.0000 -0.0237175942
C   C14       1.0  0.41074  0.58815  0.53962  1.0000 0.082294279
C   C15       1.0  0.31136  0.58154  0.49867  1.0000 -0.1510142748
C   C16       1.0  0.30247  0.63988  0.44178  1.0000 -0.1038062769
C   C17       1.0  0.39142  0.70812  0.42565  1.0000 -0.0277315963
C   C18       1.0  0.49140  0.71480  0.46605  1.0000 -0.0930296822
C   C19       1.0  0.50110  0.65519  0.52224  1.0000 -0.1510142748
C   C20       1.0  0.37980  0.77198  0.36456  1.0000 0.5467135023
C   C21       1.0  0.98712  0.02186  0.14451  1.0000 -0.1195479434
C   C22       1.0  0.07942  0.02532  0.09929  1.0000 -0.0148301719
C   C23       1.0  0.16181  0.95466  0.12341  1.0000 -0.0237175942
C   C24       1.0  0.08926  0.08815  0.03962  1.0000 0.082294279
C   C25       1.0  0.18864  0.08154  0.99867  1.0000 -0.1510142748
C   C26       1.0  0.19753  0.13988  0.94178  1.0000 -0.1038062769
C   C27       1.0  0.10858  0.20812  0.92565  1.0000 -0.0277315963
C   C28       1.0  0.00860  0.21480  0.96605  1.0000 -0.0930296822
C   C29       1.0  0.99890  0.15519  0.02224  1.0000 -0.1510142748
C   C30       1.0  0.12020  0.27198  0.86456  1.0000 0.5467135023
C   C31       1.0  0.51288  0.52186  0.85549  1.0000 -0.1195479434
C   C32       1.0  0.42058  0.52532  0.90071  1.0000 -0.0148301719
C   C33       1.0  0.33819  0.45466  0.87659  1.0000 -0.0237175942
C   C34       1.0  0.41074  0.58815  0.96038  1.0000 0.082294279
C   C35       1.0  0.31136  0.58154  0.00133  1.0000 -0.1510142748
C   C36       1.0  0.30247  0.63988  0.05822  1.0000 -0.1038062769
C   C37       1.0  0.39142  0.70812  0.07435  1.0000 -0.0277315963
C   C38       1.0  0.49140  0.71480  0.03395  1.0000 -0.0930296822
C   C39       1.0  0.50110  0.65519  0.97776  1.0000 -0.1510142748
C   C40       1.0  0.37980  0.77198  0.13544  1.0000 0.5467135023
C   C41       1.0  0.94990  0.92470  0.25000  1.0000 -0.0930296822
C   C42       1.0  0.55010  0.42470  0.75000  1.0000 -0.0930296822
C   C43       1.0  0.01288  0.97814  0.85549  1.0000 -0.1195479434
C   C44       1.0  0.92058  0.97468  0.90071  1.0000 -0.0148301719
C   C45       1.0  0.83819  0.04534  0.87659  1.0000 -0.0237175942
C   C46       1.0  0.91074  0.91185  0.96038  1.0000 0.082294279
C   C47       1.0  0.81136  0.91846  0.00133  1.0000 -0.1510142748
C   C48       1.0  0.80247  0.86012  0.05822  1.0000 -0.1038062769
C   C49       1.0  0.89142  0.79188  0.07435  1.0000 -0.0277315963
C   C50       1.0  0.99140  0.78520  0.03395  1.0000 -0.0930296822
C   C51       1.0  0.00110  0.84481  0.97776  1.0000 -0.1510142748
C   C52       1.0  0.87980  0.72802  0.13544  1.0000 0.5467135023
C   C53       1.0  0.48712  0.47814  0.14451  1.0000 -0.1195479434
C   C54       1.0  0.57942  0.47468  0.09929  1.0000 -0.0148301719
C   C55       1.0  0.66181  0.54534  0.12341  1.0000 -0.0237175942
C   C56       1.0  0.58926  0.41185  0.03962  1.0000 0.082294279
C   C57       1.0  0.68864  0.41846  0.99867  1.0000 -0.1510142748
C   C58       1.0  0.69753  0.36012  0.94178  1.0000 -0.1038062769
C   C59       1.0  0.60858  0.29188  0.92565  1.0000 -0.0277315963
C   C60       1.0  0.50860  0.28520  0.96605  1.0000 -0.0930296822
C   C61       1.0  0.49890  0.34481  0.02224  1.0000 -0.1510142748
C   C62       1.0  0.62020  0.22802  0.86456  1.0000 0.5467135023
C   C63       1.0  0.01288  0.97814  0.64451  1.0000 -0.1195479434
C   C64       1.0  0.92058  0.97468  0.59929  1.0000 -0.0148301719
C   C65       1.0  0.83819  0.04534  0.62341  1.0000 -0.0237175942
C   C66       1.0  0.91074  0.91185  0.53962  1.0000 0.082294279
C   C67       1.0  0.81136  0.91846  0.49867  1.0000 -0.1510142748
C   C68       1.0  0.80247  0.86012  0.44178  1.0000 -0.1038062769
C   C69       1.0  0.89142  0.79188  0.42565  1.0000 -0.0277315963
C   C70       1.0  0.99140  0.78520  0.46605  1.0000 -0.0930296822
C   C71       1.0  0.00110  0.84481  0.52224  1.0000 -0.1510142748
C   C72       1.0  0.87980  0.72802  0.36456  1.0000 0.5467135023
C   C73       1.0  0.48712  0.47814  0.35549  1.0000 -0.1195479434
C   C74       1.0  0.57942  0.47468  0.40071  1.0000 -0.0148301719
C   C75       1.0  0.66181  0.54534  0.37659  1.0000 -0.0237175942
C   C76       1.0  0.58926  0.41185  0.46038  1.0000 0.082294279
C   C77       1.0  0.68864  0.41846  0.50133  1.0000 -0.1510142748
C   C78       1.0  0.69753  0.36012  0.55822  1.0000 -0.1038062769
C   C79       1.0  0.60858  0.29188  0.57435  1.0000 -0.0277315963
C   C80       1.0  0.50860  0.28520  0.53395  1.0000 -0.0930296822
C   C81       1.0  0.49890  0.34481  0.47776  1.0000 -0.1510142748
C   C82       1.0  0.62020  0.22802  0.63544  1.0000 0.5467135023
C   C83       1.0  0.05010  0.07530  0.75000  1.0000 -0.0930296822
C   C84       1.0  0.44990  0.57530  0.25000  1.0000 -0.1038062769
N   N1        1.0  0.12389  0.91085  0.32149  1.0000 -0.2017321799
N   N2        1.0  0.01582  0.95355  0.30905  1.0000 0.1697961171
N   N3        1.0  0.37611  0.41085  0.67851  1.0000 -0.2017321799
N   N4        1.0  0.48418  0.45355  0.69095  1.0000 0.1697961171
N   N5        1.0  0.12389  0.91085  0.17851  1.0000 -0.2017321799
N   N6        1.0  0.01582  0.95355  0.19095  1.0000 0.1697961171
N   N7        1.0  0.37611  0.41085  0.82149  1.0000 -0.2017321799
N   N8        1.0  0.48418  0.45355  0.80905  1.0000 0.1697961171
N   N9        1.0  0.87611  0.08915  0.82149  1.0000 -0.2017321799
N   N10       1.0  0.98418  0.04645  0.80905  1.0000 0.1697961171
N   N11       1.0  0.62389  0.58915  0.17851  1.0000 -0.2017321799
N   N12       1.0  0.51582  0.54645  0.19095  1.0000 0.1697961171
N   N13       1.0  0.87611  0.08915  0.67851  1.0000 -0.2017321799
N   N14       1.0  0.98418  0.04645  0.69095  1.0000 0.1697961171
N   N15       1.0  0.62389  0.58915  0.32149  1.0000 -0.2017321799
N   N16       1.0  0.51582  0.54645  0.30905  1.0000 0.1697961171
O   O1        1.0  0.20237  0.24949  0.67502  1.0000 -0.5431295175
O   O2        1.0  0.04630  0.34295  0.64388  1.0000 -0.5699434418
O   O3        1.0  0.29763  0.74949  0.32498  1.0000 -0.5431295175
O   O4        1.0  0.45370  0.84295  0.35612  1.0000 -0.5699434418
O   O5        1.0  0.20237  0.24949  0.82498  1.0000 -0.5431295175
O   O6        1.0  0.04630  0.34295  0.85612  1.0000 -0.5699434418
O   O7        1.0  0.29763  0.74949  0.17502  1.0000 -0.5431295175
O   O8        1.0  0.45370  0.84295  0.14388  1.0000 -0.5699434418
O   O9        1.0  0.79763  0.75051  0.17502  1.0000 -0.5431295175
O   O10       1.0  0.95370  0.65705  0.14388  1.0000 -0.5699434418
O   O11       1.0  0.70237  0.25051  0.82498  1.0000 -0.5431295175
O   O12       1.0  0.54630  0.15705  0.85612  1.0000 -0.5699434418
O   O13       1.0  0.79763  0.75051  0.32498  1.0000 -0.5431295175
O   O14       1.0  0.95370  0.65705  0.35612  1.0000 -0.5699434418
O   O15       1.0  0.70237  0.25051  0.67502  1.0000 -0.5431295175
O   O16       1.0  0.54630  0.15705  0.64388  1.0000 -0.5699434418
