# DDEC6 charges by PACMAN v1.1 (https://github.com/mtap-research/PACMAN-charge/)
data_2019[Nd][nan]3[ASR]2
_chemical_formula_sum              "Nd4 H12 C28 S2 N4 O24"
_cell_length_a       13.3
_cell_length_b       13.3
_cell_length_c       8.8425
_cell_angle_alpha    74.1981
_cell_angle_beta     105.802
_cell_angle_gamma    116.174

_symmetry_space_group_name_H-M    "P 1"
_symmetry_Int_Tables_number       1

loop_
  _symmetry_equiv_pos_as_xyz
  'x, y, z'

loop_
  _atom_site_type_symbol
  _atom_site_label
  _atom_site_symmetry_multiplicity
  _atom_site_fract_x
  _atom_site_fract_y
  _atom_site_fract_z
  _atom_site_occupancy
  _atom_site_charge
Nd  Nd1       1.0  0.80882  0.07036  0.90237  1.0000 2.1100603593
Nd  Nd2       1.0  0.07036  0.80882  0.59763  1.0000 2.1100603593
Nd  Nd3       1.0  0.19118  0.92964  0.09763  1.0000 2.1100603593
Nd  Nd4       1.0  0.92964  0.19118  0.40237  1.0000 2.1100603593
H   H1        1.0  0.11762  0.35486  0.03808  1.0000 0.1436039609
H   H2        1.0  0.18526  0.52412  0.13732  1.0000 0.1436039609
H   H3        1.0  0.01200  0.52000  0.62100  1.0000 0.1148825837
H   H4        1.0  0.35486  0.11762  0.46192  1.0000 0.1436039609
H   H5        1.0  0.52412  0.18526  0.36268  1.0000 0.1436039609
H   H6        1.0  0.52000  0.01200  0.87900  1.0000 0.1148825837
H   H7        1.0  0.88238  0.64514  0.96192  1.0000 0.1436039609
H   H8        1.0  0.81474  0.47588  0.86268  1.0000 0.1436039609
H   H9        1.0  0.98800  0.48000  0.37900  1.0000 0.1148825837
H   H10       1.0  0.64514  0.88238  0.53808  1.0000 0.1436039609
H   H11       1.0  0.47588  0.81474  0.63732  1.0000 0.1436039609
H   H12       1.0  0.48000  0.98800  0.12100  1.0000 0.1148825837
C   C1        1.0  0.15732  0.71868  0.99142  1.0000 0.549701835
C   C2        1.0  0.05841  0.41839  0.81411  1.0000 -0.0678791526
C   C3        1.0  0.13026  0.61214  0.93266  1.0000 0.1148825837
C   C4        1.0  0.00926  0.31074  0.74396  1.0000 0.6329779876
C   C5        1.0  0.04731  0.51689  0.72141  1.0000 0.1011718911
C   C6        1.0  0.10931  0.41949  0.97251  1.0000 -0.0450041192
C   C7        1.0  0.14813  0.51987  0.03223  1.0000 -0.1422861266
C   C8        1.0  0.71868  0.15732  0.50858  1.0000 0.549701835
C   C9        1.0  0.41839  0.05841  0.68589  1.0000 -0.0678791526
C   C10       1.0  0.61214  0.13026  0.56734  1.0000 0.1148825837
C   C11       1.0  0.31074  0.00926  0.75604  1.0000 0.6329779876
C   C12       1.0  0.51689  0.04731  0.77859  1.0000 0.1011718911
C   C13       1.0  0.41949  0.10931  0.52749  1.0000 -0.0437946703
C   C14       1.0  0.51987  0.14813  0.46777  1.0000 -0.1422861266
C   C15       1.0  0.84268  0.28132  0.00858  1.0000 0.549701835
C   C16       1.0  0.94159  0.58161  0.18589  1.0000 -0.0678791526
C   C17       1.0  0.86974  0.38786  0.06734  1.0000 0.1148825837
C   C18       1.0  0.99074  0.68926  0.25604  1.0000 0.6329779876
C   C19       1.0  0.95269  0.48311  0.27859  1.0000 0.1011718911
C   C20       1.0  0.89069  0.58051  0.02749  1.0000 -0.0437946703
C   C21       1.0  0.85187  0.48013  0.96777  1.0000 -0.1422861266
C   C22       1.0  0.28132  0.84268  0.49142  1.0000 0.549701835
C   C23       1.0  0.58161  0.94159  0.31411  1.0000 -0.0678791526
C   C24       1.0  0.38786  0.86974  0.43266  1.0000 0.1148825837
C   C25       1.0  0.68926  0.99074  0.24396  1.0000 0.6329779876
C   C26       1.0  0.48311  0.95269  0.22141  1.0000 0.1011718911
C   C27       1.0  0.58051  0.89069  0.47251  1.0000 -0.0450041192
C   C28       1.0  0.48013  0.85187  0.53223  1.0000 -0.1422861266
S   S1        1.0  0.02073  0.02073  0.25000  1.0000 1.5701035512
S   S2        1.0  0.97927  0.97927  0.75000  1.0000 1.5701035512
N   N1        1.0  0.08025  0.61215  0.77745  1.0000 -0.3645113158
N   N2        1.0  0.61215  0.08025  0.72255  1.0000 -0.3645113158
N   N3        1.0  0.91975  0.38785  0.22255  1.0000 -0.3645113158
N   N4        1.0  0.38785  0.91975  0.27745  1.0000 -0.3645113158
O   O1        1.0  0.98786  0.21862  0.84062  1.0000 -0.6177969771
O   O2        1.0  0.12565  0.79293  0.89346  1.0000 -0.6912103045
O   O3        1.0  0.92153  0.99637  0.11988  1.0000 -0.7790739286
O   O4        1.0  0.12357  0.04081  0.19508  1.0000 -0.7687424171
O   O5        1.0  0.20550  0.73104  0.13193  1.0000 -0.5644472885
O   O6        1.0  0.99478  0.32316  0.59491  1.0000 -0.6555900323
O   O7        1.0  0.21862  0.98786  0.65938  1.0000 -0.6177969771
O   O8        1.0  0.79293  0.12565  0.60654  1.0000 -0.6912103045
O   O9        1.0  0.99637  0.92153  0.38012  1.0000 -0.7790739286
O   O10       1.0  0.04081  0.12357  0.30492  1.0000 -0.7687424171
O   O11       1.0  0.73104  0.20550  0.36807  1.0000 -0.5644472885
O   O12       1.0  0.32316  0.99478  0.90509  1.0000 -0.6555900323
O   O13       1.0  0.01214  0.78138  0.15938  1.0000 -0.6177969771
O   O14       1.0  0.87435  0.20707  0.10654  1.0000 -0.6912103045
O   O15       1.0  0.07847  0.00363  0.88012  1.0000 -0.7790739286
O   O16       1.0  0.87643  0.95919  0.80492  1.0000 -0.7687424171
O   O17       1.0  0.79450  0.26896  0.86807  1.0000 -0.5644472885
O   O18       1.0  0.00522  0.67684  0.40509  1.0000 -0.6555900323
O   O19       1.0  0.78138  0.01214  0.34062  1.0000 -0.6177969771
O   O20       1.0  0.20707  0.87435  0.39346  1.0000 -0.6912103045
O   O21       1.0  0.00363  0.07847  0.61988  1.0000 -0.7790739286
O   O22       1.0  0.95919  0.87643  0.69508  1.0000 -0.7687424171
O   O23       1.0  0.26896  0.79450  0.63193  1.0000 -0.5644472885
O   O24       1.0  0.67684  0.00522  0.09491  1.0000 -0.6555900323
