# DDEC6 charges by PACMAN v1.1 (https://github.com/mtap-research/PACMAN-charge/)
data_2019[Cu][dmd]3[ASR]1
_chemical_formula_sum              "Cu8 H48 C48 N24"
_cell_length_a       11.2461
_cell_length_b       14.913
_cell_length_c       12.333
_cell_angle_alpha    90
_cell_angle_beta     111.029
_cell_angle_gamma    90

_symmetry_space_group_name_H-M    "P 1"
_symmetry_Int_Tables_number       1

loop_
  _symmetry_equiv_pos_as_xyz
  'x, y, z'

loop_
  _atom_site_type_symbol
  _atom_site_label
  _atom_site_symmetry_multiplicity
  _atom_site_fract_x
  _atom_site_fract_y
  _atom_site_fract_z
  _atom_site_occupancy
  _atom_site_charge
Cu  Cu1       1.0  0.09004  0.50195  0.59202  1.0000 0.4388036758
Cu  Cu2       1.0  0.15007  0.72606  0.90509  1.0000 0.3200351179
Cu  Cu3       1.0  0.90996  0.00195  0.90798  1.0000 0.4388036758
Cu  Cu4       1.0  0.84993  0.22606  0.59491  1.0000 0.3200351179
Cu  Cu5       1.0  0.90996  0.49805  0.40798  1.0000 0.434986952
Cu  Cu6       1.0  0.84993  0.27394  0.09491  1.0000 0.3200351179
Cu  Cu7       1.0  0.09004  0.99805  0.09202  1.0000 0.4388036758
Cu  Cu8       1.0  0.15007  0.77394  0.40509  1.0000 0.3200351179
H   H1        1.0  0.28470  0.55790  0.99880  1.0000 0.1481163197
H   H2        1.0  0.42970  0.54130  0.06910  1.0000 0.1481163197
H   H3        1.0  0.32790  0.51610  0.12360  1.0000 0.1676895202
H   H4        1.0  0.53770  0.68080  0.55340  1.0000 0.1577148393
H   H5        1.0  0.41490  0.64620  0.45410  1.0000 0.1577148393
H   H6        1.0  0.50010  0.57930  0.54790  1.0000 0.1577148393
H   H7        1.0  0.72080  0.55100  0.16870  1.0000 0.1577148393
H   H8        1.0  0.61530  0.62470  0.12180  1.0000 0.1417704665
H   H9        1.0  0.75530  0.65240  0.19670  1.0000 0.1676895202
H   H10       1.0  0.42160  0.83890  0.38220  1.0000 0.1481163197
H   H11       1.0  0.55370  0.83000  0.36710  1.0000 0.1481163197
H   H12       1.0  0.45270  0.89900  0.29150  1.0000 0.1577148393
H   H13       1.0  0.71530  0.05790  0.50120  1.0000 0.1481163197
H   H14       1.0  0.57030  0.04130  0.43090  1.0000 0.1481163197
H   H15       1.0  0.67210  0.01610  0.37640  1.0000 0.1676895202
H   H16       1.0  0.46230  0.18080  0.94660  1.0000 0.1577148393
H   H17       1.0  0.58510  0.14620  0.04590  1.0000 0.1577148393
H   H18       1.0  0.49990  0.07930  0.95210  1.0000 0.1577148393
H   H19       1.0  0.27920  0.05100  0.33130  1.0000 0.1577148393
H   H20       1.0  0.38470  0.12470  0.37820  1.0000 0.1417704665
H   H21       1.0  0.24470  0.15240  0.30330  1.0000 0.1676895202
H   H22       1.0  0.57840  0.33890  0.11780  1.0000 0.1481163197
H   H23       1.0  0.44630  0.33000  0.13290  1.0000 0.1481163197
H   H24       1.0  0.54730  0.39900  0.20850  1.0000 0.1577148393
H   H25       1.0  0.71530  0.44210  0.00120  1.0000 0.1481163197
H   H26       1.0  0.57030  0.45870  0.93090  1.0000 0.1481163197
H   H27       1.0  0.67210  0.48390  0.87640  1.0000 0.1676895202
H   H28       1.0  0.46230  0.31920  0.44660  1.0000 0.1577148393
H   H29       1.0  0.58510  0.35380  0.54590  1.0000 0.1577148393
H   H30       1.0  0.49990  0.42070  0.45210  1.0000 0.1577148393
H   H31       1.0  0.27920  0.44900  0.83130  1.0000 0.1577148393
H   H32       1.0  0.38470  0.37530  0.87820  1.0000 0.1417704665
H   H33       1.0  0.24470  0.34760  0.80330  1.0000 0.1676895202
H   H34       1.0  0.57840  0.16110  0.61780  1.0000 0.1481163197
H   H35       1.0  0.44630  0.17000  0.63290  1.0000 0.1481163197
H   H36       1.0  0.54730  0.10100  0.70850  1.0000 0.1577148393
H   H37       1.0  0.28470  0.94210  0.49880  1.0000 0.1481163197
H   H38       1.0  0.42970  0.95870  0.56910  1.0000 0.1481163197
H   H39       1.0  0.32790  0.98390  0.62360  1.0000 0.1676895202
H   H40       1.0  0.53770  0.81920  0.05340  1.0000 0.1577148393
H   H41       1.0  0.41490  0.85380  0.95410  1.0000 0.1577148393
H   H42       1.0  0.50010  0.92070  0.04790  1.0000 0.1577148393
H   H43       1.0  0.72080  0.94900  0.66870  1.0000 0.1577148393
H   H44       1.0  0.61530  0.87530  0.62180  1.0000 0.1417704665
H   H45       1.0  0.75530  0.84760  0.69670  1.0000 0.1676895202
H   H46       1.0  0.42160  0.66110  0.88220  1.0000 0.1481163197
H   H47       1.0  0.55370  0.67000  0.86710  1.0000 0.1481163197
H   H48       1.0  0.45270  0.60100  0.79150  1.0000 0.1577148393
C   C1        1.0  0.12510  0.63780  0.79170  1.0000 -0.0985795136
C   C2        1.0  0.41020  0.77070  0.23630  1.0000 0.2084277898
C   C3        1.0  0.44710  0.68360  0.23020  1.0000 -0.1231565184
C   C4        1.0  0.36080  0.65120  0.12680  1.0000 0.1987624218
C   C5        1.0  0.34980  0.55810  0.07480  1.0000 -0.457720507
C   C6        1.0  0.55460  0.63410  0.31220  1.0000 -0.0897896632
C   C7        1.0  0.66050  0.59950  0.29190  1.0000 0.1987624218
C   C8        1.0  0.57540  0.61330  0.43000  1.0000 0.222265362
C   C9        1.0  0.50060  0.63140  0.50250  1.0000 -0.457720507
C   C10       1.0  0.69060  0.60760  0.18550  1.0000 -0.457720507
C   C11       1.0  0.46440  0.84100  0.32750  1.0000 -0.4420676499
C   C12       1.0  0.04860  0.90910  0.93930  1.0000 -0.0783586416
C   C13       1.0  0.87490  0.13780  0.70830  1.0000 -0.0985795136
C   C14       1.0  0.58980  0.27070  0.26370  1.0000 0.2084277898
C   C15       1.0  0.55290  0.18360  0.26980  1.0000 -0.1231565184
C   C16       1.0  0.63920  0.15120  0.37320  1.0000 0.1987624218
C   C17       1.0  0.65020  0.05810  0.42520  1.0000 -0.457720507
C   C18       1.0  0.44540  0.13410  0.18780  1.0000 -0.0897896632
C   C19       1.0  0.33950  0.09950  0.20810  1.0000 0.1987624218
C   C20       1.0  0.42460  0.11330  0.07000  1.0000 0.222265362
C   C21       1.0  0.49940  0.13140  0.99750  1.0000 -0.457720507
C   C22       1.0  0.30940  0.10760  0.31450  1.0000 -0.457720507
C   C23       1.0  0.53560  0.34100  0.17250  1.0000 -0.4420676499
C   C24       1.0  0.95140  0.40910  0.56070  1.0000 -0.0783586416
C   C25       1.0  0.87490  0.36220  0.20830  1.0000 -0.0985795136
C   C26       1.0  0.58980  0.22930  0.76370  1.0000 0.2084277898
C   C27       1.0  0.55290  0.31640  0.76980  1.0000 -0.1231565184
C   C28       1.0  0.63920  0.34880  0.87320  1.0000 0.1987624218
C   C29       1.0  0.65020  0.44190  0.92520  1.0000 -0.457720507
C   C30       1.0  0.44540  0.36590  0.68780  1.0000 -0.0897896632
C   C31       1.0  0.33950  0.40050  0.70810  1.0000 0.1987624218
C   C32       1.0  0.42460  0.38670  0.57000  1.0000 0.222265362
C   C33       1.0  0.49940  0.36860  0.49750  1.0000 -0.4548305243
C   C34       1.0  0.30940  0.39240  0.81450  1.0000 -0.457720507
C   C35       1.0  0.53560  0.15900  0.67250  1.0000 -0.4420676499
C   C36       1.0  0.95140  0.09090  0.06070  1.0000 -0.0783586416
C   C37       1.0  0.12510  0.86220  0.29170  1.0000 -0.0985795136
C   C38       1.0  0.41020  0.72930  0.73630  1.0000 0.2084277898
C   C39       1.0  0.44710  0.81640  0.73020  1.0000 -0.1231565184
C   C40       1.0  0.36080  0.84880  0.62680  1.0000 0.1987624218
C   C41       1.0  0.34980  0.94190  0.57480  1.0000 -0.457720507
C   C42       1.0  0.55460  0.86590  0.81220  1.0000 -0.0897896632
C   C43       1.0  0.66050  0.90050  0.79190  1.0000 0.1987624218
C   C44       1.0  0.57540  0.88670  0.93000  1.0000 0.222265362
C   C45       1.0  0.50060  0.86860  0.00250  1.0000 -0.457720507
C   C46       1.0  0.69060  0.89240  0.68550  1.0000 -0.457720507
C   C47       1.0  0.46440  0.65900  0.82750  1.0000 -0.4420676499
C   C48       1.0  0.04860  0.59090  0.43930  1.0000 -0.0783586416
N   N1        1.0  0.11260  0.58490  0.72070  1.0000 -0.2594491512
N   N2        1.0  0.27500  0.71410  0.07130  1.0000 -0.160770905
N   N3        1.0  0.30700  0.78760  0.14080  1.0000 -0.1739288886
N   N4        1.0  0.73990  0.55920  0.38750  1.0000 -0.160770905
N   N5        1.0  0.68690  0.56720  0.46980  1.0000 -0.2221437327
N   N6        1.0  0.08930  0.84600  0.91650  1.0000 -0.2545595139
N   N7        1.0  0.88740  0.08490  0.77930  1.0000 -0.2683876722
N   N8        1.0  0.72500  0.21410  0.42870  1.0000 -0.160770905
N   N9        1.0  0.69300  0.28760  0.35920  1.0000 -0.1739288886
N   N10       1.0  0.26010  0.05920  0.11250  1.0000 -0.160770905
N   N11       1.0  0.31310  0.06720  0.03020  1.0000 -0.2221437327
N   N12       1.0  0.91070  0.34600  0.58350  1.0000 -0.2545595139
N   N13       1.0  0.88740  0.41510  0.27930  1.0000 -0.2683876722
N   N14       1.0  0.72500  0.28590  0.92870  1.0000 -0.160770905
N   N15       1.0  0.69300  0.21240  0.85920  1.0000 -0.1739288886
N   N16       1.0  0.26010  0.44080  0.61250  1.0000 -0.160770905
N   N17       1.0  0.31310  0.43280  0.53020  1.0000 -0.2221437327
N   N18       1.0  0.91070  0.15400  0.08350  1.0000 -0.2545595139
N   N19       1.0  0.11260  0.91510  0.22070  1.0000 -0.2683876722
N   N20       1.0  0.27500  0.78590  0.57130  1.0000 -0.160770905
N   N21       1.0  0.30700  0.71240  0.64080  1.0000 -0.1753336161
N   N22       1.0  0.73990  0.94080  0.88750  1.0000 -0.160770905
N   N23       1.0  0.68690  0.93280  0.96980  1.0000 -0.2221437327
N   N24       1.0  0.08930  0.65400  0.41650  1.0000 -0.2594491512
