# DDEC6 charges by PACMAN v1.1 (https://github.com/mtap-research/PACMAN-charge/)
data_2019[Cu][nan]2[ASR]3
_chemical_formula_sum              "Cu4 H48 C84 N4 O16 F12"
_cell_length_a       15.1652
_cell_length_b       15.1652
_cell_length_c       18.2463
_cell_angle_alpha    85.7205
_cell_angle_beta     94.2795
_cell_angle_gamma    76.0224

_symmetry_space_group_name_H-M    "P 1"
_symmetry_Int_Tables_number       1

loop_
  _symmetry_equiv_pos_as_xyz
  'x, y, z'

loop_
  _atom_site_type_symbol
  _atom_site_label
  _atom_site_symmetry_multiplicity
  _atom_site_fract_x
  _atom_site_fract_y
  _atom_site_fract_z
  _atom_site_occupancy
  _atom_site_charge
Cu  Cu1       1.0  0.53725  0.43699  0.45796  1.0000 0.8238597453
Cu  Cu2       1.0  0.43699  0.53725  0.04204  1.0000 0.8238597453
Cu  Cu3       1.0  0.46275  0.56301  0.54204  1.0000 0.8238597453
Cu  Cu4       1.0  0.56301  0.46275  0.95796  1.0000 0.8238597453
H   H1        1.0  0.05220  0.56724  0.71632  1.0000 0.2806925342
H   H2        1.0  0.96479  0.57159  0.67147  1.0000 0.2806925342
H   H3        1.0  0.21497  0.64285  0.87187  1.0000 0.1304031091
H   H4        1.0  0.10796  0.68506  0.76954  1.0000 0.1198335333
H   H5        1.0  0.29458  0.56318  0.64426  1.0000 0.1198335333
H   H6        1.0  0.40252  0.51976  0.74575  1.0000 0.1198335333
H   H7        1.0  0.21461  0.71039  0.57038  1.0000 0.1304031091
H   H8        1.0  0.98578  0.70926  0.44674  1.0000 0.1198335333
H   H9        1.0  0.83835  0.69749  0.62058  1.0000 0.1198335333
H   H10       1.0  0.70204  0.65606  0.60591  1.0000 0.1304031091
H   H11       1.0  0.79926  0.50626  0.44359  1.0000 0.1143291905
H   H12       1.0  0.93169  0.55467  0.45607  1.0000 0.1198335333
H   H13       1.0  0.56724  0.05220  0.78368  1.0000 0.2806925342
H   H14       1.0  0.57159  0.96479  0.82853  1.0000 0.2806925342
H   H15       1.0  0.64285  0.21497  0.62813  1.0000 0.1304031091
H   H16       1.0  0.68506  0.10796  0.73046  1.0000 0.1198335333
H   H17       1.0  0.56318  0.29458  0.85574  1.0000 0.1198335333
H   H18       1.0  0.51976  0.40252  0.75425  1.0000 0.1198335333
H   H19       1.0  0.71039  0.21461  0.92962  1.0000 0.1304031091
H   H20       1.0  0.70926  0.98578  0.05326  1.0000 0.1198335333
H   H21       1.0  0.69749  0.83835  0.87942  1.0000 0.1198335333
H   H22       1.0  0.65606  0.70204  0.89409  1.0000 0.1304031091
H   H23       1.0  0.50626  0.79926  0.05641  1.0000 0.1143291905
H   H24       1.0  0.55467  0.93169  0.04393  1.0000 0.1198335333
H   H25       1.0  0.94780  0.43276  0.28368  1.0000 0.2806925342
H   H26       1.0  0.03521  0.42841  0.32853  1.0000 0.2806925342
H   H27       1.0  0.78503  0.35715  0.12813  1.0000 0.1304031091
H   H28       1.0  0.89204  0.31494  0.23046  1.0000 0.1198335333
H   H29       1.0  0.70542  0.43682  0.35574  1.0000 0.1198335333
H   H30       1.0  0.59748  0.48024  0.25425  1.0000 0.1198335333
H   H31       1.0  0.78539  0.28961  0.42962  1.0000 0.1304031091
H   H32       1.0  0.01422  0.29074  0.55326  1.0000 0.1198335333
H   H33       1.0  0.16165  0.30251  0.37942  1.0000 0.1198335333
H   H34       1.0  0.29796  0.34394  0.39409  1.0000 0.1304031091
H   H35       1.0  0.20074  0.49374  0.55641  1.0000 0.1143291905
H   H36       1.0  0.06831  0.44533  0.54393  1.0000 0.1198335333
H   H37       1.0  0.43276  0.94780  0.21632  1.0000 0.2806925342
H   H38       1.0  0.42841  0.03521  0.17147  1.0000 0.2806925342
H   H39       1.0  0.35715  0.78503  0.37187  1.0000 0.1304031091
H   H40       1.0  0.31494  0.89204  0.26954  1.0000 0.1198335333
H   H41       1.0  0.43682  0.70542  0.14426  1.0000 0.1198335333
H   H42       1.0  0.48024  0.59748  0.24575  1.0000 0.1198335333
H   H43       1.0  0.28961  0.78539  0.07038  1.0000 0.1304031091
H   H44       1.0  0.29074  0.01422  0.94674  1.0000 0.1198335333
H   H45       1.0  0.30251  0.16165  0.12058  1.0000 0.1198335333
H   H46       1.0  0.34394  0.29796  0.10591  1.0000 0.1304031091
H   H47       1.0  0.49374  0.20074  0.94359  1.0000 0.1143291905
H   H48       1.0  0.44533  0.06831  0.95607  1.0000 0.1198335333
C   C1        1.0  0.38692  0.54772  0.88700  1.0000 0.5773282587
C   C2        1.0  0.31844  0.57624  0.82030  1.0000 -0.0226763898
C   C3        1.0  0.23170  0.62590  0.82590  1.0000 -0.0817040798
C   C4        1.0  0.16690  0.65190  0.76420  1.0000 -0.1595873538
C   C5        1.0  0.19118  0.62818  0.69550  1.0000 0.0759163328
C   C6        1.0  0.27790  0.57950  0.69040  1.0000 -0.1426694219
C   C7        1.0  0.34358  0.55258  0.75130  1.0000 -0.0817040798
C   C8        1.0  0.12829  0.65549  0.62630  1.0000 -0.0226763898
C   C9        1.0  0.15790  0.69690  0.56600  1.0000 -0.1110394536
C   C10       1.0  0.10430  0.71850  0.49940  1.0000 -0.1110394536
C   C11       1.0  0.13460  0.76820  0.43740  1.0000 0.5582300365
C   C12       1.0  0.02070  0.69670  0.49210  1.0000 -0.1261531733
C   C13       1.0  0.98839  0.65639  0.55210  1.0000 -0.0226763898
C   C14       1.0  0.04340  0.63320  0.61980  1.0000 0.1909330167
C   C15       1.0  0.89948  0.62988  0.54250  1.0000 0.0759163328
C   C16       1.0  0.83050  0.65890  0.58470  1.0000 -0.1595873538
C   C17       1.0  0.74863  0.63343  0.57680  1.0000 -0.0916122183
C   C18       1.0  0.73697  0.57357  0.52453  1.0000 -0.0226763898
C   C19       1.0  0.80663  0.54503  0.47950  1.0000 -0.0817040798
C   C20       1.0  0.88642  0.57322  0.48740  1.0000 -0.1426694219
C   C21       1.0  0.64985  0.54465  0.51470  1.0000 0.5702581942
C   C22       1.0  0.54772  0.38692  0.61300  1.0000 0.5773282587
C   C23       1.0  0.57624  0.31844  0.67970  1.0000 -0.0226763898
C   C24       1.0  0.62590  0.23170  0.67410  1.0000 -0.0817040798
C   C25       1.0  0.65190  0.16690  0.73580  1.0000 -0.1595873538
C   C26       1.0  0.62818  0.19118  0.80450  1.0000 0.0759163328
C   C27       1.0  0.57950  0.27790  0.80960  1.0000 -0.1426694219
C   C28       1.0  0.55258  0.34358  0.74870  1.0000 -0.0817040798
C   C29       1.0  0.65549  0.12829  0.87370  1.0000 -0.0226763898
C   C30       1.0  0.69690  0.15790  0.93400  1.0000 -0.1110394536
C   C31       1.0  0.71850  0.10430  0.00060  1.0000 -0.1110394536
C   C32       1.0  0.76820  0.13460  0.06260  1.0000 0.5582300365
C   C33       1.0  0.69670  0.02070  0.00790  1.0000 -0.1261531733
C   C34       1.0  0.65639  0.98839  0.94790  1.0000 -0.0226763898
C   C35       1.0  0.63320  0.04340  0.88020  1.0000 0.1909330167
C   C36       1.0  0.62988  0.89948  0.95750  1.0000 0.0759163328
C   C37       1.0  0.65890  0.83050  0.91530  1.0000 -0.1595873538
C   C38       1.0  0.63343  0.74863  0.92320  1.0000 -0.0916122183
C   C39       1.0  0.57357  0.73697  0.97547  1.0000 -0.0226763898
C   C40       1.0  0.54503  0.80663  0.02050  1.0000 -0.0817040798
C   C41       1.0  0.57322  0.88642  0.01260  1.0000 -0.1426694219
C   C42       1.0  0.54465  0.64985  0.98530  1.0000 0.5702581942
C   C43       1.0  0.61308  0.45228  0.11300  1.0000 0.5773282587
C   C44       1.0  0.68156  0.42376  0.17970  1.0000 -0.0226763898
C   C45       1.0  0.76830  0.37410  0.17410  1.0000 -0.0817040798
C   C46       1.0  0.83310  0.34810  0.23580  1.0000 -0.1595873538
C   C47       1.0  0.80882  0.37182  0.30450  1.0000 0.0759163328
C   C48       1.0  0.72210  0.42050  0.30960  1.0000 -0.1426694219
C   C49       1.0  0.65642  0.44742  0.24870  1.0000 -0.0817040798
C   C50       1.0  0.87171  0.34451  0.37370  1.0000 -0.0226763898
C   C51       1.0  0.84210  0.30310  0.43400  1.0000 -0.1110394536
C   C52       1.0  0.89570  0.28150  0.50060  1.0000 -0.1110394536
C   C53       1.0  0.86540  0.23180  0.56260  1.0000 0.5582300365
C   C54       1.0  0.97930  0.30330  0.50790  1.0000 -0.1261531733
C   C55       1.0  0.01161  0.34361  0.44790  1.0000 -0.0226763898
C   C56       1.0  0.95660  0.36680  0.38020  1.0000 0.1909330167
C   C57       1.0  0.10052  0.37012  0.45750  1.0000 0.0759163328
C   C58       1.0  0.16950  0.34110  0.41530  1.0000 -0.1595873538
C   C59       1.0  0.25137  0.36657  0.42320  1.0000 -0.0916122183
C   C60       1.0  0.26303  0.42643  0.47547  1.0000 -0.0226763898
C   C61       1.0  0.19337  0.45497  0.52050  1.0000 -0.0817040798
C   C62       1.0  0.11358  0.42678  0.51260  1.0000 -0.1426694219
C   C63       1.0  0.35015  0.45535  0.48530  1.0000 0.5702581942
C   C64       1.0  0.45228  0.61308  0.38700  1.0000 0.5773282587
C   C65       1.0  0.42376  0.68156  0.32030  1.0000 -0.0226763898
C   C66       1.0  0.37410  0.76830  0.32590  1.0000 -0.0817040798
C   C67       1.0  0.34810  0.83310  0.26420  1.0000 -0.1595873538
C   C68       1.0  0.37182  0.80882  0.19550  1.0000 0.0759163328
C   C69       1.0  0.42050  0.72210  0.19040  1.0000 -0.1426694219
C   C70       1.0  0.44742  0.65642  0.25130  1.0000 -0.0817040798
C   C71       1.0  0.34451  0.87171  0.12630  1.0000 -0.0226763898
C   C72       1.0  0.30310  0.84210  0.06600  1.0000 -0.1110394536
C   C73       1.0  0.28150  0.89570  0.99940  1.0000 -0.1110394536
C   C74       1.0  0.23180  0.86540  0.93740  1.0000 0.5582300365
C   C75       1.0  0.30330  0.97930  0.99210  1.0000 -0.1261531733
C   C76       1.0  0.34361  0.01161  0.05210  1.0000 -0.0226763898
C   C77       1.0  0.36680  0.95660  0.11980  1.0000 0.1909330167
C   C78       1.0  0.37012  0.10052  0.04250  1.0000 0.0759163328
C   C79       1.0  0.34110  0.16950  0.08470  1.0000 -0.1595873538
C   C80       1.0  0.36657  0.25137  0.07680  1.0000 -0.0916122183
C   C81       1.0  0.42643  0.26303  0.02453  1.0000 -0.0226763898
C   C82       1.0  0.45497  0.19337  0.97950  1.0000 -0.0817040798
C   C83       1.0  0.42678  0.11358  0.98740  1.0000 -0.1453031361
C   C84       1.0  0.45535  0.35015  0.01470  1.0000 0.5702581942
N   N1        1.0  0.01691  0.58471  0.67610  1.0000 -0.545928067
N   N2        1.0  0.58471  0.01691  0.82390  1.0000 -0.5446357787
N   N3        1.0  0.98309  0.41529  0.32390  1.0000 -0.5446357787
N   N4        1.0  0.41529  0.98309  0.17610  1.0000 -0.545928067
O   O1        1.0  0.46707  0.50599  0.87607  1.0000 -0.5192080498
O   O2        1.0  0.35968  0.56760  0.94789  1.0000 -0.4981224
O   O3        1.0  0.58493  0.58563  0.54875  1.0000 -0.5073581695
O   O4        1.0  0.64708  0.48138  0.47547  1.0000 -0.5073581695
O   O5        1.0  0.50599  0.46707  0.62393  1.0000 -0.5192080498
O   O6        1.0  0.56760  0.35968  0.55211  1.0000 -0.4981224
O   O7        1.0  0.58563  0.58493  0.95125  1.0000 -0.5073581695
O   O8        1.0  0.48138  0.64708  0.02453  1.0000 -0.5073581695
O   O9        1.0  0.53293  0.49401  0.12393  1.0000 -0.5192080498
O   O10       1.0  0.64032  0.43240  0.05211  1.0000 -0.4981224
O   O11       1.0  0.41507  0.41437  0.45125  1.0000 -0.5073581695
O   O12       1.0  0.35292  0.51862  0.52453  1.0000 -0.5073581695
O   O13       1.0  0.49401  0.53293  0.37607  1.0000 -0.5192080498
O   O14       1.0  0.43240  0.64032  0.44789  1.0000 -0.4981224
O   O15       1.0  0.41437  0.41507  0.04875  1.0000 -0.5073581695
O   O16       1.0  0.51862  0.35292  0.97547  1.0000 -0.5073581695
F   F1        1.0  0.07980  0.80160  0.38480  1.0000 -0.2519809775
F   F2        1.0  0.19310  0.68790  0.39680  1.0000 -0.1962419584
F   F3        1.0  0.20010  0.80010  0.44870  1.0000 -0.2519809775
F   F4        1.0  0.80160  0.07980  0.11520  1.0000 -0.2519809775
F   F5        1.0  0.68790  0.19310  0.10320  1.0000 -0.1962419584
F   F6        1.0  0.80010  0.20010  0.05130  1.0000 -0.2519809775
F   F7        1.0  0.92020  0.19840  0.61520  1.0000 -0.2519809775
F   F8        1.0  0.80690  0.31210  0.60320  1.0000 -0.1962419584
F   F9        1.0  0.79990  0.19990  0.55130  1.0000 -0.2519809775
F   F10       1.0  0.19840  0.92020  0.88480  1.0000 -0.2519809775
F   F11       1.0  0.31210  0.80690  0.89680  1.0000 -0.1962419584
F   F12       1.0  0.19990  0.79990  0.94870  1.0000 -0.2519809775
