# DDEC6 charges by PACMAN v1.1 (https://github.com/mtap-research/PACMAN-charge/)
data_2019[Cu][nan]2[ASR]1
_chemical_formula_sum              "Cu8 P16 H120 C112 O36"
_cell_length_a       10.4
_cell_length_b       10.355
_cell_length_c       33.277
_cell_angle_alpha    90
_cell_angle_beta     99.033
_cell_angle_gamma    90

_symmetry_space_group_name_H-M    "P 1"
_symmetry_Int_Tables_number       1

loop_
  _symmetry_equiv_pos_as_xyz
  'x, y, z'

loop_
  _atom_site_type_symbol
  _atom_site_label
  _atom_site_symmetry_multiplicity
  _atom_site_fract_x
  _atom_site_fract_y
  _atom_site_fract_z
  _atom_site_occupancy
  _atom_site_charge
Cu  Cu1       1.0  0.83175  0.36799  0.34347  1.0000 1.047390966
Cu  Cu2       1.0  0.16825  0.36799  0.15653  1.0000 1.047390966
Cu  Cu3       1.0  0.00000  0.42749  0.25000  1.0000 1.0187850579
Cu  Cu4       1.0  0.50000  0.19462  0.25000  1.0000 0.6197162851
Cu  Cu5       1.0  0.16825  0.63201  0.65653  1.0000 1.047390966
Cu  Cu6       1.0  0.83175  0.63201  0.84347  1.0000 1.047390966
Cu  Cu7       1.0  0.00000  0.57251  0.75000  1.0000 1.0187850579
Cu  Cu8       1.0  0.50000  0.80538  0.75000  1.0000 0.6197162851
P   P1        1.0  0.76109  0.66236  0.35437  1.0000 1.0829767271
P   P2        1.0  0.90165  0.06583  0.34388  1.0000 1.0956919177
P   P3        1.0  0.53151  0.29875  0.34064  1.0000 1.1230219587
P   P4        1.0  0.12345  0.42751  0.34339  1.0000 1.1069408043
P   P5        1.0  0.23891  0.66236  0.14563  1.0000 1.0829767271
P   P6        1.0  0.09835  0.06583  0.15612  1.0000 1.0956919177
P   P7        1.0  0.46849  0.29875  0.15936  1.0000 1.1230219587
P   P8        1.0  0.87655  0.42751  0.15661  1.0000 1.1069408043
P   P9        1.0  0.23891  0.33764  0.64563  1.0000 1.0829767271
P   P10       1.0  0.09835  0.93417  0.65612  1.0000 1.0956919177
P   P11       1.0  0.46849  0.70125  0.65936  1.0000 1.1230219587
P   P12       1.0  0.87655  0.57249  0.65661  1.0000 1.1069408043
P   P13       1.0  0.76109  0.33764  0.85437  1.0000 1.0829767271
P   P14       1.0  0.90165  0.93417  0.84388  1.0000 1.0956919177
P   P15       1.0  0.53151  0.70125  0.84064  1.0000 1.1230219587
P   P16       1.0  0.12345  0.57249  0.84339  1.0000 1.1069408043
H   H1        1.0  0.22300  0.37600  0.23970  1.0000 0.3054204865
H   H2        1.0  0.19600  0.49650  0.23420  1.0000 0.3294142395
H   H3        1.0  0.91560  0.80900  0.38490  1.0000 0.1306923254
H   H4        1.0  0.92900  0.79070  0.33810  1.0000 0.1596834476
H   H5        1.0  0.73890  0.94920  0.36790  1.0000 0.1306923254
H   H6        1.0  0.73570  0.92180  0.32050  1.0000 0.1667919553
H   H7        1.0  0.41320  0.47220  0.36030  1.0000 0.1462023541
H   H8        1.0  0.36990  0.44300  0.31290  1.0000 0.1596834476
H   H9        1.0  0.28810  0.29970  0.37800  1.0000 0.1437091663
H   H10       1.0  0.25500  0.25480  0.33160  1.0000 0.1667919553
H   H11       1.0  0.87490  0.59790  0.43470  1.0000 0.1196454803
H   H12       1.0  0.80400  0.57240  0.49710  1.0000 0.1081495795
H   H13       1.0  0.58580  0.60460  0.50250  1.0000 0.1081495795
H   H14       1.0  0.43820  0.66220  0.44510  1.0000 0.1035264372
H   H15       1.0  0.50980  0.69510  0.38280  1.0000 0.1306923254
H   H16       1.0  0.17190  0.08350  0.38120  1.0000 0.1196454803
H   H17       1.0  0.27950  0.12530  0.44700  1.0000 0.1081495795
H   H18       1.0  0.16040  0.14870  0.50030  1.0000 0.1081495795
H   H19       1.0  0.93410  0.14130  0.48750  1.0000 0.1035264372
H   H20       1.0  0.82530  0.10440  0.42160  1.0000 0.1196454803
H   H21       1.0  0.61790  0.37730  0.42230  1.0000 0.1196454803
H   H22       1.0  0.64780  0.27620  0.48590  1.0000 0.1035264372
H   H23       1.0  0.60280  0.05770  0.49100  1.0000 0.1081495795
H   H24       1.0  0.52490  0.93790  0.43280  1.0000 0.1081495795
H   H25       1.0  0.49090  0.03820  0.36890  1.0000 0.1306923254
H   H26       1.0  0.22260  0.68550  0.33830  1.0000 0.1306923254
H   H27       1.0  0.25710  0.86050  0.38300  1.0000 0.1196454803
H   H28       1.0  0.20560  0.84380  0.44850  1.0000 0.1081495795
H   H29       1.0  0.13070  0.64900  0.47100  1.0000 0.1081495795
H   H30       1.0  0.10080  0.47080  0.42710  1.0000 0.1196454803
H   H31       1.0  0.77700  0.37600  0.26030  1.0000 0.3054204865
H   H32       1.0  0.80400  0.49650  0.26580  1.0000 0.3294142395
H   H33       1.0  0.08440  0.80900  0.11510  1.0000 0.1306923254
H   H34       1.0  0.07100  0.79070  0.16190  1.0000 0.1596834476
H   H35       1.0  0.26110  0.94920  0.13210  1.0000 0.1306923254
H   H36       1.0  0.26430  0.92180  0.17950  1.0000 0.1667919553
H   H37       1.0  0.58680  0.47220  0.13970  1.0000 0.1462023541
H   H38       1.0  0.63010  0.44300  0.18710  1.0000 0.1596834476
H   H39       1.0  0.71190  0.29970  0.12200  1.0000 0.1437091663
H   H40       1.0  0.74500  0.25480  0.16840  1.0000 0.1667919553
H   H41       1.0  0.12510  0.59790  0.06530  1.0000 0.1196454803
H   H42       1.0  0.19600  0.57240  0.00290  1.0000 0.1081495795
H   H43       1.0  0.41420  0.60460  0.99750  1.0000 0.1081495795
H   H44       1.0  0.56180  0.66220  0.05490  1.0000 0.1035264372
H   H45       1.0  0.49020  0.69510  0.11720  1.0000 0.1306923254
H   H46       1.0  0.82810  0.08350  0.11880  1.0000 0.1196454803
H   H47       1.0  0.72050  0.12530  0.05300  1.0000 0.1081495795
H   H48       1.0  0.83960  0.14870  0.99970  1.0000 0.1081495795
H   H49       1.0  0.06590  0.14130  0.01250  1.0000 0.1081495795
H   H50       1.0  0.17470  0.10440  0.07840  1.0000 0.1196454803
H   H51       1.0  0.38210  0.37730  0.07770  1.0000 0.1196454803
H   H52       1.0  0.35220  0.27620  0.01410  1.0000 0.1035264372
H   H53       1.0  0.39720  0.05770  0.00900  1.0000 0.1081495795
H   H54       1.0  0.47510  0.93790  0.06720  1.0000 0.1081495795
H   H55       1.0  0.50910  0.03820  0.13110  1.0000 0.1306923254
H   H56       1.0  0.77740  0.68550  0.16170  1.0000 0.1306923254
H   H57       1.0  0.74290  0.86050  0.11700  1.0000 0.1196454803
H   H58       1.0  0.79440  0.84380  0.05150  1.0000 0.1081495795
H   H59       1.0  0.86930  0.64900  0.02900  1.0000 0.1081495795
H   H60       1.0  0.89920  0.47080  0.07290  1.0000 0.1196454803
H   H61       1.0  0.77700  0.62400  0.76030  1.0000 0.3046989425
H   H62       1.0  0.80400  0.50350  0.76580  1.0000 0.3294142395
H   H63       1.0  0.08440  0.19100  0.61510  1.0000 0.1306923254
H   H64       1.0  0.07100  0.20930  0.66190  1.0000 0.1596834476
H   H65       1.0  0.26110  0.05080  0.63210  1.0000 0.1306923254
H   H66       1.0  0.26430  0.07820  0.67950  1.0000 0.1667919553
H   H67       1.0  0.58680  0.52780  0.63970  1.0000 0.1462023541
H   H68       1.0  0.63010  0.55700  0.68710  1.0000 0.1596834476
H   H69       1.0  0.71190  0.70030  0.62200  1.0000 0.1437091663
H   H70       1.0  0.74500  0.74520  0.66840  1.0000 0.1667919553
H   H71       1.0  0.12510  0.40210  0.56530  1.0000 0.1196454803
H   H72       1.0  0.19600  0.42760  0.50290  1.0000 0.1081495795
H   H73       1.0  0.41420  0.39540  0.49750  1.0000 0.1081495795
H   H74       1.0  0.56180  0.33780  0.55490  1.0000 0.1035264372
H   H75       1.0  0.49020  0.30490  0.61720  1.0000 0.1306923254
H   H76       1.0  0.82810  0.91650  0.61880  1.0000 0.1196454803
H   H77       1.0  0.72050  0.87470  0.55300  1.0000 0.1081495795
H   H78       1.0  0.83960  0.85130  0.49970  1.0000 0.1081495795
H   H79       1.0  0.06590  0.85870  0.51250  1.0000 0.1081495795
H   H80       1.0  0.17470  0.89560  0.57840  1.0000 0.1196454803
H   H81       1.0  0.38210  0.62270  0.57770  1.0000 0.1196454803
H   H82       1.0  0.35220  0.72380  0.51410  1.0000 0.1035264372
H   H83       1.0  0.39720  0.94230  0.50900  1.0000 0.1081495795
H   H84       1.0  0.47510  0.06210  0.56720  1.0000 0.1081495795
H   H85       1.0  0.50910  0.96180  0.63110  1.0000 0.1306923254
H   H86       1.0  0.77740  0.31450  0.66170  1.0000 0.1306923254
H   H87       1.0  0.74290  0.13950  0.61700  1.0000 0.1196454803
H   H88       1.0  0.79440  0.15620  0.55150  1.0000 0.1081495795
H   H89       1.0  0.86930  0.35100  0.52900  1.0000 0.1081495795
H   H90       1.0  0.89920  0.52920  0.57290  1.0000 0.1196454803
H   H91       1.0  0.22300  0.62400  0.73970  1.0000 0.3046989425
H   H92       1.0  0.19600  0.50350  0.73420  1.0000 0.3294142395
H   H93       1.0  0.91560  0.19100  0.88490  1.0000 0.1306923254
H   H94       1.0  0.92900  0.20930  0.83810  1.0000 0.1596834476
H   H95       1.0  0.73890  0.05080  0.86790  1.0000 0.1306923254
H   H96       1.0  0.73570  0.07820  0.82050  1.0000 0.1667919553
H   H97       1.0  0.41320  0.52780  0.86030  1.0000 0.1462023541
H   H98       1.0  0.36990  0.55700  0.81290  1.0000 0.1596834476
H   H99       1.0  0.28810  0.70030  0.87800  1.0000 0.1437091663
H   H100      1.0  0.25500  0.74520  0.83160  1.0000 0.1667919553
H   H101      1.0  0.87490  0.40210  0.93470  1.0000 0.1196454803
H   H102      1.0  0.80400  0.42760  0.99710  1.0000 0.1081495795
H   H103      1.0  0.58580  0.39540  0.00250  1.0000 0.1081495795
H   H104      1.0  0.43820  0.33780  0.94510  1.0000 0.1035264372
H   H105      1.0  0.50980  0.30490  0.88280  1.0000 0.1306923254
H   H106      1.0  0.17190  0.91650  0.88120  1.0000 0.1196454803
H   H107      1.0  0.27950  0.87470  0.94700  1.0000 0.1081495795
H   H108      1.0  0.16040  0.85130  0.00030  1.0000 0.1081495795
H   H109      1.0  0.93410  0.85870  0.98750  1.0000 0.1035264372
H   H110      1.0  0.82530  0.89560  0.92160  1.0000 0.1196454803
H   H111      1.0  0.61790  0.62270  0.92230  1.0000 0.1196454803
H   H112      1.0  0.64780  0.72380  0.98590  1.0000 0.1035264372
H   H113      1.0  0.60280  0.94230  0.99100  1.0000 0.1081495795
H   H114      1.0  0.52490  0.06210  0.93280  1.0000 0.1081495795
H   H115      1.0  0.49090  0.96180  0.86890  1.0000 0.1306923254
H   H116      1.0  0.22260  0.31450  0.83830  1.0000 0.1306923254
H   H117      1.0  0.25710  0.13950  0.88300  1.0000 0.1196454803
H   H118      1.0  0.20560  0.15620  0.94850  1.0000 0.1081495795
H   H119      1.0  0.13070  0.35100  0.97100  1.0000 0.1081495795
H   H120      1.0  0.10080  0.52920  0.92710  1.0000 0.1196454803
C   C1        1.0  0.86570  0.80310  0.35707  1.0000 -0.4115937554
C   C2        1.0  0.79400  0.93090  0.34685  1.0000 -0.4018037037
C   C3        1.0  0.39092  0.40240  0.34006  1.0000 -0.4115937554
C   C4        1.0  0.27027  0.33130  0.34958  1.0000 -0.4195051269
C   C5        1.0  0.69910  0.64970  0.40222  1.0000 -0.1506639151
C   C6        1.0  0.78600  0.61240  0.43680  1.0000 -0.0898644559
C   C7        1.0  0.74380  0.59650  0.47380  1.0000 -0.1003098118
C   C8        1.0  0.61480  0.61560  0.47701  1.0000 -0.1003098118
C   C9        1.0  0.52760  0.65060  0.44303  1.0000 -0.1003098118
C   C10       1.0  0.57000  0.66910  0.40584  1.0000 -0.0807860621
C   C11       1.0  0.98810  0.08940  0.39472  1.0000 -0.1506639151
C   C12       1.0  0.12290  0.09560  0.40270  1.0000 -0.0694432293
C   C13       1.0  0.18720  0.11950  0.44193  1.0000 -0.1003098118
C   C14       1.0  0.11660  0.13470  0.47338  1.0000 -0.0898644559
C   C15       1.0  0.98250  0.12960  0.46583  1.0000 -0.0898644559
C   C16       1.0  0.91770  0.10740  0.42666  1.0000 -0.0898644559
C   C17       1.0  0.55226  0.21730  0.38910  1.0000 -0.1506639151
C   C18       1.0  0.59870  0.28800  0.42427  1.0000 -0.0807860621
C   C19       1.0  0.61670  0.22790  0.46204  1.0000 -0.1003098118
C   C20       1.0  0.58960  0.09850  0.46506  1.0000 -0.1003098118
C   C21       1.0  0.54330  0.02720  0.43053  1.0000 -0.1003098118
C   C22       1.0  0.52370  0.08670  0.39252  1.0000 -0.0807860621
C   C23       1.0  0.15581  0.56150  0.37799  1.0000 -0.1344354616
C   C24       1.0  0.20360  0.67760  0.36523  1.0000 -0.0694432293
C   C25       1.0  0.22340  0.78180  0.39167  1.0000 -0.0898644559
C   C26       1.0  0.19440  0.77140  0.43077  1.0000 -0.1003098118
C   C27       1.0  0.14920  0.65620  0.44398  1.0000 -0.11174749
C   C28       1.0  0.13060  0.55050  0.41785  1.0000 -0.0807860621
C   C29       1.0  0.13430  0.80310  0.14293  1.0000 -0.4195051269
C   C30       1.0  0.20600  0.93090  0.15315  1.0000 -0.4115937554
C   C31       1.0  0.60908  0.40240  0.15994  1.0000 -0.4115937554
C   C32       1.0  0.72973  0.33130  0.15042  1.0000 -0.4195051269
C   C33       1.0  0.30090  0.64970  0.09778  1.0000 -0.1506639151
C   C34       1.0  0.21400  0.61240  0.06320  1.0000 -0.0898644559
C   C35       1.0  0.25620  0.59650  0.02620  1.0000 -0.1003098118
C   C36       1.0  0.38520  0.61560  0.02299  1.0000 -0.1003098118
C   C37       1.0  0.47240  0.65060  0.05697  1.0000 -0.1003098118
C   C38       1.0  0.43000  0.66910  0.09416  1.0000 -0.0807860621
C   C39       1.0  0.01190  0.08940  0.10528  1.0000 -0.1506639151
C   C40       1.0  0.87710  0.09560  0.09730  1.0000 -0.0694432293
C   C41       1.0  0.81280  0.11950  0.05807  1.0000 -0.1003098118
C   C42       1.0  0.88340  0.13470  0.02662  1.0000 -0.0898644559
C   C43       1.0  0.01750  0.12960  0.03417  1.0000 -0.1003098118
C   C44       1.0  0.08230  0.10740  0.07334  1.0000 -0.0898644559
C   C45       1.0  0.44774  0.21730  0.11090  1.0000 -0.1506639151
C   C46       1.0  0.40130  0.28800  0.07573  1.0000 -0.0807860621
C   C47       1.0  0.38330  0.22790  0.03796  1.0000 -0.1003098118
C   C48       1.0  0.41040  0.09850  0.03494  1.0000 -0.1003098118
C   C49       1.0  0.45670  0.02720  0.06947  1.0000 -0.1003098118
C   C50       1.0  0.47630  0.08670  0.10748  1.0000 -0.0807860621
C   C51       1.0  0.84419  0.56150  0.12201  1.0000 -0.1344354616
C   C52       1.0  0.79640  0.67760  0.13477  1.0000 -0.0694432293
C   C53       1.0  0.77660  0.78180  0.10833  1.0000 -0.0898644559
C   C54       1.0  0.80560  0.77140  0.06923  1.0000 -0.1003098118
C   C55       1.0  0.85080  0.65620  0.05602  1.0000 -0.11174749
C   C56       1.0  0.86940  0.55050  0.08215  1.0000 -0.0807860621
C   C57       1.0  0.13430  0.19690  0.64293  1.0000 -0.4115937554
C   C58       1.0  0.20600  0.06910  0.65315  1.0000 -0.4018037037
C   C59       1.0  0.60908  0.59760  0.65994  1.0000 -0.4115937554
C   C60       1.0  0.72973  0.66870  0.65042  1.0000 -0.4195051269
C   C61       1.0  0.30090  0.35030  0.59778  1.0000 -0.1506639151
C   C62       1.0  0.21400  0.38760  0.56320  1.0000 -0.0898644559
C   C63       1.0  0.25620  0.40350  0.52620  1.0000 -0.1003098118
C   C64       1.0  0.38520  0.38440  0.52299  1.0000 -0.1003098118
C   C65       1.0  0.47240  0.34940  0.55697  1.0000 -0.1003098118
C   C66       1.0  0.43000  0.33090  0.59416  1.0000 -0.0807860621
C   C67       1.0  0.01190  0.91060  0.60528  1.0000 -0.1506639151
C   C68       1.0  0.87710  0.90440  0.59730  1.0000 -0.0694432293
C   C69       1.0  0.81280  0.88050  0.55807  1.0000 -0.1003098118
C   C70       1.0  0.88340  0.86530  0.52662  1.0000 -0.0898644559
C   C71       1.0  0.01750  0.87040  0.53417  1.0000 -0.1003098118
C   C72       1.0  0.08230  0.89260  0.57334  1.0000 -0.0898644559
C   C73       1.0  0.44774  0.78270  0.61090  1.0000 -0.1506639151
C   C74       1.0  0.40130  0.71200  0.57573  1.0000 -0.0807860621
C   C75       1.0  0.38330  0.77210  0.53796  1.0000 -0.1003098118
C   C76       1.0  0.41040  0.90150  0.53494  1.0000 -0.1003098118
C   C77       1.0  0.45670  0.97280  0.56947  1.0000 -0.1003098118
C   C78       1.0  0.47630  0.91330  0.60748  1.0000 -0.0807860621
C   C79       1.0  0.84419  0.43850  0.62201  1.0000 -0.1344354616
C   C80       1.0  0.79640  0.32240  0.63477  1.0000 -0.0694432293
C   C81       1.0  0.77660  0.21820  0.60833  1.0000 -0.0898644559
C   C82       1.0  0.80560  0.22860  0.56923  1.0000 -0.1003098118
C   C83       1.0  0.85080  0.34380  0.55602  1.0000 -0.11174749
C   C84       1.0  0.86940  0.44950  0.58215  1.0000 -0.0807860621
C   C85       1.0  0.86570  0.19690  0.85707  1.0000 -0.4115937554
C   C86       1.0  0.79400  0.06910  0.84685  1.0000 -0.4018037037
C   C87       1.0  0.39092  0.59760  0.84006  1.0000 -0.4115937554
C   C88       1.0  0.27027  0.66870  0.84958  1.0000 -0.4195051269
C   C89       1.0  0.69910  0.35030  0.90222  1.0000 -0.1506639151
C   C90       1.0  0.78600  0.38760  0.93680  1.0000 -0.0898644559
C   C91       1.0  0.74380  0.40350  0.97380  1.0000 -0.1003098118
C   C92       1.0  0.61480  0.38440  0.97701  1.0000 -0.1003098118
C   C93       1.0  0.52760  0.34940  0.94303  1.0000 -0.1003098118
C   C94       1.0  0.57000  0.33090  0.90584  1.0000 -0.0807860621
C   C95       1.0  0.98810  0.91060  0.89472  1.0000 -0.1506639151
C   C96       1.0  0.12290  0.90440  0.90270  1.0000 -0.0694432293
C   C97       1.0  0.18720  0.88050  0.94193  1.0000 -0.1003098118
C   C98       1.0  0.11660  0.86530  0.97338  1.0000 -0.0898644559
C   C99       1.0  0.98250  0.87040  0.96583  1.0000 -0.0898644559
C   C100      1.0  0.91770  0.89260  0.92666  1.0000 -0.0898644559
C   C101      1.0  0.55226  0.78270  0.88910  1.0000 -0.1506639151
C   C102      1.0  0.59870  0.71200  0.92427  1.0000 -0.0807860621
C   C103      1.0  0.61670  0.77210  0.96204  1.0000 -0.1003098118
C   C104      1.0  0.58960  0.90150  0.96506  1.0000 -0.1003098118
C   C105      1.0  0.54330  0.97280  0.93053  1.0000 -0.1003098118
C   C106      1.0  0.52370  0.91330  0.89252  1.0000 -0.0807860621
C   C107      1.0  0.15581  0.43850  0.87799  1.0000 -0.1344354616
C   C108      1.0  0.20360  0.32240  0.86523  1.0000 -0.0694432293
C   C109      1.0  0.22340  0.21820  0.89167  1.0000 -0.0898644559
C   C110      1.0  0.19440  0.22860  0.93077  1.0000 -0.1003098118
C   C111      1.0  0.14920  0.34380  0.94398  1.0000 -0.11174749
C   C112      1.0  0.13060  0.44950  0.91785  1.0000 -0.0807860621
O   O1        1.0  0.85346  0.55040  0.35288  1.0000 -0.7273570166
O   O2        1.0  0.65037  0.68065  0.31954  1.0000 -0.6871537105
O   O3        1.0  0.81186  0.18192  0.33244  1.0000 -0.721751458
O   O4        1.0  0.99428  0.03567  0.31440  1.0000 -0.6797591911
O   O5        1.0  0.64599  0.38800  0.33916  1.0000 -0.721751458
O   O6        1.0  0.50502  0.19615  0.30820  1.0000 -0.6958985345
O   O7        1.0  0.01782  0.34300  0.35570  1.0000 -0.721751458
O   O8        1.0  0.09840  0.48267  0.30091  1.0000 -0.7429737613
O   O9        1.0  0.16830  0.42573  0.22840  1.0000 -0.6396704183
O   O10       1.0  0.14654  0.55040  0.14712  1.0000 -0.7273570166
O   O11       1.0  0.34963  0.68065  0.18046  1.0000 -0.6871537105
O   O12       1.0  0.18814  0.18192  0.16756  1.0000 -0.721751458
O   O13       1.0  0.00572  0.03567  0.18560  1.0000 -0.6797591911
O   O14       1.0  0.35401  0.38800  0.16084  1.0000 -0.721751458
O   O15       1.0  0.49498  0.19615  0.19180  1.0000 -0.6871537105
O   O16       1.0  0.98218  0.34300  0.14430  1.0000 -0.721751458
O   O17       1.0  0.90160  0.48267  0.19909  1.0000 -0.7429737613
O   O18       1.0  0.83170  0.42573  0.27160  1.0000 -0.6396704183
O   O19       1.0  0.14654  0.44960  0.64712  1.0000 -0.7273570166
O   O20       1.0  0.34963  0.31935  0.68046  1.0000 -0.6871537105
O   O21       1.0  0.18814  0.81808  0.66756  1.0000 -0.721751458
O   O22       1.0  0.00572  0.96433  0.68560  1.0000 -0.6797591911
O   O23       1.0  0.35401  0.61200  0.66084  1.0000 -0.721751458
O   O24       1.0  0.49498  0.80385  0.69180  1.0000 -0.6958985345
O   O25       1.0  0.98218  0.65700  0.64430  1.0000 -0.721751458
O   O26       1.0  0.90160  0.51733  0.69909  1.0000 -0.7429737613
O   O27       1.0  0.83170  0.57427  0.77160  1.0000 -0.6396704183
O   O28       1.0  0.85346  0.44960  0.85288  1.0000 -0.7273570166
O   O29       1.0  0.65037  0.31935  0.81954  1.0000 -0.6871537105
O   O30       1.0  0.81186  0.81808  0.83244  1.0000 -0.721751458
O   O31       1.0  0.99428  0.96433  0.81440  1.0000 -0.6797591911
O   O32       1.0  0.64599  0.61200  0.83916  1.0000 -0.721751458
O   O33       1.0  0.50502  0.80385  0.80820  1.0000 -0.6958985345
O   O34       1.0  0.01782  0.65700  0.85570  1.0000 -0.721751458
O   O35       1.0  0.09840  0.51733  0.80091  1.0000 -0.7429737613
O   O36       1.0  0.16830  0.57427  0.72840  1.0000 -0.6396704183
