# DDEC6 charges by PACMAN v1.1 (https://github.com/mtap-research/PACMAN-charge/)
data_2019[Ag][sra]3[ASR]3
_chemical_formula_sum              "Ag4 H48 C68 N24"
_cell_length_a       8.8999
_cell_length_b       11.05
_cell_length_c       25.897
_cell_angle_alpha    90
_cell_angle_beta     90
_cell_angle_gamma    90

_symmetry_space_group_name_H-M    "P 1"
_symmetry_Int_Tables_number       1

loop_
  _symmetry_equiv_pos_as_xyz
  'x, y, z'

loop_
  _atom_site_type_symbol
  _atom_site_label
  _atom_site_symmetry_multiplicity
  _atom_site_fract_x
  _atom_site_fract_y
  _atom_site_fract_z
  _atom_site_occupancy
  _atom_site_charge
Ag  Ag1       1.0  0.92004  0.92027  0.60557  1.0000 0.2276591825
Ag  Ag2       1.0  0.42004  0.07973  0.39443  1.0000 0.2276591825
Ag  Ag3       1.0  0.92004  0.57973  0.10557  1.0000 0.2276591825
Ag  Ag4       1.0  0.42004  0.42027  0.89443  1.0000 0.2276591825
H   H1        1.0  0.22020  0.02670  0.57990  1.0000 0.1239387522
H   H2        1.0  0.27740  0.12170  0.50380  1.0000 0.1007642751
H   H3        1.0  0.43760  0.82290  0.44390  1.0000 0.0885681946
H   H4        1.0  0.37980  0.71570  0.51820  1.0000 0.1292589361
H   H5        1.0  0.15880  0.49500  0.71780  1.0000 0.1292589361
H   H6        1.0  0.23260  0.40160  0.79420  1.0000 0.0885681946
H   H7        1.0  0.51640  0.66520  0.82680  1.0000 0.0885681946
H   H8        1.0  0.45290  0.76040  0.74930  1.0000 0.1239387522
H   H9        1.0  0.57150  0.86290  0.62060  1.0000 0.1007642751
H   H10       1.0  0.88720  0.61710  0.60440  1.0000 0.1007642751
H   H11       1.0  0.71510  0.46230  0.61370  1.0000 0.1239387522
H   H12       1.0  0.46090  0.51130  0.62840  1.0000 0.1292589361
H   H13       1.0  0.72020  0.97330  0.42010  1.0000 0.1239387522
H   H14       1.0  0.77740  0.87830  0.49620  1.0000 0.1007642751
H   H15       1.0  0.93760  0.17710  0.55610  1.0000 0.0885681946
H   H16       1.0  0.87980  0.28430  0.48180  1.0000 0.1292589361
H   H17       1.0  0.65880  0.50500  0.28220  1.0000 0.1292589361
H   H18       1.0  0.73260  0.59840  0.20580  1.0000 0.0885681946
H   H19       1.0  0.01640  0.33480  0.17320  1.0000 0.0885681946
H   H20       1.0  0.95290  0.23960  0.25070  1.0000 0.1239387522
H   H21       1.0  0.07150  0.13710  0.37940  1.0000 0.1007642751
H   H22       1.0  0.38720  0.38290  0.39560  1.0000 0.1007642751
H   H23       1.0  0.21510  0.53770  0.38630  1.0000 0.1239387522
H   H24       1.0  0.96090  0.48870  0.37160  1.0000 0.1292589361
H   H25       1.0  0.22020  0.47330  0.07990  1.0000 0.1239387522
H   H26       1.0  0.27740  0.37830  0.00380  1.0000 0.1007642751
H   H27       1.0  0.43760  0.67710  0.94390  1.0000 0.0885681946
H   H28       1.0  0.37980  0.78430  0.01820  1.0000 0.1292589361
H   H29       1.0  0.15880  0.00500  0.21780  1.0000 0.1292589361
H   H30       1.0  0.23260  0.09840  0.29420  1.0000 0.0885681946
H   H31       1.0  0.51640  0.83480  0.32680  1.0000 0.0885681946
H   H32       1.0  0.45290  0.73960  0.24930  1.0000 0.1239387522
H   H33       1.0  0.57150  0.63710  0.12060  1.0000 0.1007642751
H   H34       1.0  0.88720  0.88290  0.10440  1.0000 0.1007642751
H   H35       1.0  0.71510  0.03770  0.11370  1.0000 0.1239387522
H   H36       1.0  0.46090  0.98870  0.12840  1.0000 0.1292589361
H   H37       1.0  0.72020  0.52670  0.92010  1.0000 0.1239387522
H   H38       1.0  0.77740  0.62170  0.99620  1.0000 0.1007642751
H   H39       1.0  0.93760  0.32290  0.05610  1.0000 0.0885681946
H   H40       1.0  0.87980  0.21570  0.98180  1.0000 0.1292589361
H   H41       1.0  0.65880  0.99500  0.78220  1.0000 0.1292589361
H   H42       1.0  0.73260  0.90160  0.70580  1.0000 0.0885681946
H   H43       1.0  0.01640  0.16520  0.67320  1.0000 0.0885681946
H   H44       1.0  0.95290  0.26040  0.75070  1.0000 0.1239387522
H   H45       1.0  0.07150  0.36290  0.87940  1.0000 0.1007642751
H   H46       1.0  0.38720  0.11710  0.89560  1.0000 0.1007642751
H   H47       1.0  0.21510  0.96230  0.88630  1.0000 0.1239387522
H   H48       1.0  0.96090  0.01130  0.87160  1.0000 0.1292589361
C   C1        1.0  0.29470  0.85970  0.55800  1.0000 0.0481719734
C   C2        1.0  0.26420  0.98220  0.55240  1.0000 -0.2097980623
C   C3        1.0  0.29820  0.03770  0.50680  1.0000 0.0481719734
C   C4        1.0  0.39070  0.86390  0.47190  1.0000 0.0196083578
C   C5        1.0  0.35850  0.79980  0.51620  1.0000 -0.2005313673
C   C6        1.0  0.25300  0.80130  0.60610  1.0000 0.1843281145
C   C7        1.0  0.25540  0.70050  0.67820  1.0000 0.1985719407
C   C8        1.0  0.30740  0.63440  0.72520  1.0000 0.064530542
C   C9        1.0  0.23460  0.52960  0.73900  1.0000 -0.1912059109
C   C10       1.0  0.27680  0.47690  0.78520  1.0000 0.0481719734
C   C11       1.0  0.44380  0.62990  0.80450  1.0000 0.0290175484
C   C12       1.0  0.40720  0.68550  0.75810  1.0000 -0.1912059109
C   C13       1.0  0.49460  0.69200  0.62590  1.0000 0.0885681946
C   C14       1.0  0.60140  0.78050  0.61930  1.0000 -0.069784349
C   C15       1.0  0.78460  0.63720  0.60970  1.0000 0.0290175484
C   C16       1.0  0.68330  0.54430  0.61550  1.0000 -0.1515710449
C   C17       1.0  0.53400  0.57300  0.62400  1.0000 -0.1515710449
C   C18       1.0  0.79470  0.14030  0.44200  1.0000 0.0481719734
C   C19       1.0  0.76420  0.01780  0.44760  1.0000 -0.2097980623
C   C20       1.0  0.79820  0.96230  0.49320  1.0000 0.0481719734
C   C21       1.0  0.89070  0.13610  0.52810  1.0000 0.0196083578
C   C22       1.0  0.85850  0.20020  0.48380  1.0000 -0.2005313673
C   C23       1.0  0.75300  0.19870  0.39390  1.0000 0.1843281145
C   C24       1.0  0.75540  0.29950  0.32180  1.0000 0.1985719407
C   C25       1.0  0.80740  0.36560  0.27480  1.0000 0.064530542
C   C26       1.0  0.73460  0.47040  0.26100  1.0000 -0.1912059109
C   C27       1.0  0.77680  0.52310  0.21480  1.0000 0.0481719734
C   C28       1.0  0.94380  0.37010  0.19550  1.0000 0.0290175484
C   C29       1.0  0.90720  0.31450  0.24190  1.0000 -0.1912059109
C   C30       1.0  0.99460  0.30800  0.37410  1.0000 0.0885681946
C   C31       1.0  0.10140  0.21950  0.38070  1.0000 -0.069784349
C   C32       1.0  0.28460  0.36280  0.39030  1.0000 0.0290175484
C   C33       1.0  0.18330  0.45570  0.38450  1.0000 -0.1515710449
C   C34       1.0  0.03400  0.42700  0.37600  1.0000 -0.1515710449
C   C35       1.0  0.29470  0.64030  0.05800  1.0000 0.0481719734
C   C36       1.0  0.26420  0.51780  0.05240  1.0000 -0.2097980623
C   C37       1.0  0.29820  0.46230  0.00680  1.0000 0.0481719734
C   C38       1.0  0.39070  0.63610  0.97190  1.0000 0.0196083578
C   C39       1.0  0.35850  0.70020  0.01620  1.0000 -0.2005313673
C   C40       1.0  0.25300  0.69870  0.10610  1.0000 0.1843281145
C   C41       1.0  0.25540  0.79950  0.17820  1.0000 0.1985719407
C   C42       1.0  0.30740  0.86560  0.22520  1.0000 0.064530542
C   C43       1.0  0.23460  0.97040  0.23900  1.0000 -0.1912059109
C   C44       1.0  0.27680  0.02310  0.28520  1.0000 0.0481719734
C   C45       1.0  0.44380  0.87010  0.30450  1.0000 0.0290175484
C   C46       1.0  0.40720  0.81450  0.25810  1.0000 -0.1912059109
C   C47       1.0  0.49460  0.80800  0.12590  1.0000 0.0885681946
C   C48       1.0  0.60140  0.71950  0.11930  1.0000 -0.069784349
C   C49       1.0  0.78460  0.86280  0.10970  1.0000 0.0290175484
C   C50       1.0  0.68330  0.95570  0.11550  1.0000 -0.1515710449
C   C51       1.0  0.53400  0.92700  0.12400  1.0000 -0.1515710449
C   C52       1.0  0.79470  0.35970  0.94200  1.0000 0.0481719734
C   C53       1.0  0.76420  0.48220  0.94760  1.0000 -0.2097980623
C   C54       1.0  0.79820  0.53770  0.99320  1.0000 0.0481719734
C   C55       1.0  0.89070  0.36390  0.02810  1.0000 0.0196083578
C   C56       1.0  0.85850  0.29980  0.98380  1.0000 -0.2005313673
C   C57       1.0  0.75300  0.30130  0.89390  1.0000 0.1843281145
C   C58       1.0  0.75540  0.20050  0.82180  1.0000 0.1985719407
C   C59       1.0  0.80740  0.13440  0.77480  1.0000 0.064530542
C   C60       1.0  0.73460  0.02960  0.76100  1.0000 -0.1912059109
C   C61       1.0  0.77680  0.97690  0.71480  1.0000 0.0481719734
C   C62       1.0  0.94380  0.12990  0.69550  1.0000 0.0290175484
C   C63       1.0  0.90720  0.18550  0.74190  1.0000 -0.1912059109
C   C64       1.0  0.99460  0.19200  0.87410  1.0000 0.0885681946
C   C65       1.0  0.10140  0.28050  0.88070  1.0000 -0.069784349
C   C66       1.0  0.28460  0.13720  0.89030  1.0000 0.0290175484
C   C67       1.0  0.18330  0.04430  0.88450  1.0000 -0.1515710449
C   C68       1.0  0.03400  0.07300  0.87600  1.0000 -0.1515710449
N   N1        1.0  0.35830  0.98220  0.46670  1.0000 -0.2005313673
N   N2        1.0  0.12470  0.81340  0.62850  1.0000 -0.2005313673
N   N3        1.0  0.12480  0.75030  0.67480  1.0000 -0.2561576312
N   N4        1.0  0.34240  0.72790  0.63590  1.0000 -0.0987824892
N   N5        1.0  0.37570  0.52530  0.81780  1.0000 -0.1912059109
N   N6        1.0  0.74680  0.75410  0.61100  1.0000 -0.2005313673
N   N7        1.0  0.85830  0.01780  0.53330  1.0000 -0.2005313673
N   N8        1.0  0.62470  0.18660  0.37150  1.0000 -0.2005313673
N   N9        1.0  0.62480  0.24970  0.32520  1.0000 -0.2561576312
N   N10       1.0  0.84240  0.27210  0.36410  1.0000 -0.0987824892
N   N11       1.0  0.87570  0.47470  0.18220  1.0000 -0.1912059109
N   N12       1.0  0.24680  0.24590  0.38900  1.0000 -0.2005313673
N   N13       1.0  0.35830  0.51780  0.96670  1.0000 -0.2005313673
N   N14       1.0  0.12470  0.68660  0.12850  1.0000 -0.2005313673
N   N15       1.0  0.12480  0.74970  0.17480  1.0000 -0.2561576312
N   N16       1.0  0.34240  0.77210  0.13590  1.0000 -0.0987824892
N   N17       1.0  0.37570  0.97470  0.31780  1.0000 -0.1912059109
N   N18       1.0  0.74680  0.74590  0.11100  1.0000 -0.2005313673
N   N19       1.0  0.85830  0.48220  0.03330  1.0000 -0.2005313673
N   N20       1.0  0.62470  0.31340  0.87150  1.0000 -0.2005313673
N   N21       1.0  0.62480  0.25030  0.82520  1.0000 -0.2561576312
N   N22       1.0  0.84240  0.22790  0.86410  1.0000 -0.0987824892
N   N23       1.0  0.87570  0.02530  0.68220  1.0000 -0.1912059109
N   N24       1.0  0.24680  0.25410  0.88900  1.0000 -0.2005313673
