# DDEC6 charges by PACMAN v1.1 (https://github.com/mtap-research/PACMAN-charge/)
data_2019[Co][nan]3[ASR]19
_chemical_formula_sum              "Co8 H112 C176 N24 O20"
_cell_length_a       29.855
_cell_length_b       29.855
_cell_length_c       29.855
_cell_angle_alpha    138.592
_cell_angle_beta     138.592
_cell_angle_gamma    59.9978

_symmetry_space_group_name_H-M    "P 1"
_symmetry_Int_Tables_number       1

loop_
  _symmetry_equiv_pos_as_xyz
  'x, y, z'

loop_
  _atom_site_type_symbol
  _atom_site_label
  _atom_site_symmetry_multiplicity
  _atom_site_fract_x
  _atom_site_fract_y
  _atom_site_fract_z
  _atom_site_occupancy
  _atom_site_charge
Co  Co1       1.0  0.16815  0.27941  0.96481  1.0000 0.8366242079
Co  Co2       1.0  0.31460  0.20334  0.03518  1.0000 0.8366242079
Co  Co3       1.0  0.02941  0.56459  0.61125  1.0000 0.8327351041
Co  Co4       1.0  0.95334  0.41815  0.38875  1.0000 0.8327351041
Co  Co5       1.0  0.58184  0.97059  0.53519  1.0000 0.8327351041
Co  Co6       1.0  0.43540  0.04666  0.46481  1.0000 0.8327351041
Co  Co7       1.0  0.72059  0.68541  0.88875  1.0000 0.8327351041
Co  Co8       1.0  0.79666  0.83184  0.11126  1.0000 0.8327351041
H   H1        1.0  0.84441  0.25960  0.81000  1.0000 0.119417146
H   H2        1.0  0.44961  0.03441  0.19001  1.0000 0.119417146
H   H3        1.0  0.00961  0.69961  0.91519  1.0000 0.119417146
H   H4        1.0  0.78441  0.09441  0.08480  1.0000 0.119417146
H   H5        1.0  0.90559  0.99039  0.69000  1.0000 0.119417146
H   H6        1.0  0.30039  0.21558  0.30999  1.0000 0.119417146
H   H7        1.0  0.74039  0.55039  0.58480  1.0000 0.119417146
H   H8        1.0  0.96559  0.15559  0.41519  1.0000 0.119417146
H   H9        1.0  0.06081  0.37570  0.93689  1.0000 0.0989453432
H   H10       1.0  0.43881  0.12391  0.06310  1.0000 0.0989453432
H   H11       1.0  0.12570  0.68881  0.81489  1.0000 0.0989453432
H   H12       1.0  0.87391  0.31081  0.18510  1.0000 0.0989453432
H   H13       1.0  0.68919  0.87429  0.56310  1.0000 0.0989453432
H   H14       1.0  0.31119  0.12609  0.43689  1.0000 0.0989453432
H   H15       1.0  0.62429  0.56119  0.68510  1.0000 0.0989453432
H   H16       1.0  0.87609  0.93919  0.31489  1.0000 0.0989453432
H   H17       1.0  0.78861  0.22820  0.80859  1.0000 0.1104970446
H   H18       1.0  0.41961  0.98001  0.19140  1.0000 0.1104970446
H   H19       1.0  0.97820  0.66961  0.93959  1.0000 0.1104970446
H   H20       1.0  0.73001  0.03861  0.06041  1.0000 0.1104970446
H   H21       1.0  0.96139  0.02179  0.69141  1.0000 0.1104970446
H   H22       1.0  0.33039  0.26998  0.30859  1.0000 0.1104970446
H   H23       1.0  0.77179  0.58039  0.56041  1.0000 0.1104970446
H   H24       1.0  0.01998  0.21139  0.43959  1.0000 0.1104970446
H   H25       1.0  0.95001  0.25010  0.87109  1.0000 0.1285267859
H   H26       1.0  0.37901  0.07891  0.12890  1.0000 0.1285267859
H   H27       1.0  0.00010  0.62901  0.80009  1.0000 0.1285267859
H   H28       1.0  0.82891  0.20001  0.19990  1.0000 0.1285267859
H   H29       1.0  0.79999  0.99989  0.62891  1.0000 0.1285267859
H   H30       1.0  0.37099  0.17108  0.37110  1.0000 0.1285267859
H   H31       1.0  0.74989  0.62099  0.69990  1.0000 0.1285267859
H   H32       1.0  0.92108  0.04999  0.30009  1.0000 0.1285267859
H   H33       1.0  0.70091  0.38290  0.78099  1.0000 0.119417146
H   H34       1.0  0.60191  0.91992  0.21901  1.0000 0.119417146
H   H35       1.0  0.13290  0.85191  0.18199  1.0000 0.119417146
H   H36       1.0  0.66991  0.95091  0.81800  1.0000 0.119417146
H   H37       1.0  0.04909  0.86709  0.71900  1.0000 0.119417146
H   H38       1.0  0.14809  0.33009  0.28099  1.0000 0.119417146
H   H39       1.0  0.61709  0.39809  0.31800  1.0000 0.119417146
H   H40       1.0  0.08009  0.29909  0.68200  1.0000 0.119417146
H   H41       1.0  0.71861  0.14991  0.73830  1.0000 0.119417146
H   H42       1.0  0.41161  0.98032  0.26170  1.0000 0.119417146
H   H43       1.0  0.89990  0.66161  0.93129  1.0000 0.119417146
H   H44       1.0  0.73031  0.96861  0.06870  1.0000 0.119417146
H   H45       1.0  0.03139  0.10009  0.76170  1.0000 0.119417146
H   H46       1.0  0.33839  0.26969  0.23830  1.0000 0.119417146
H   H47       1.0  0.85010  0.58839  0.56870  1.0000 0.119417146
H   H48       1.0  0.01968  0.28139  0.43129  1.0000 0.119417146
H   H49       1.0  0.05631  0.23320  0.91549  1.0000 0.1104970446
H   H50       1.0  0.31771  0.14081  0.08450  1.0000 0.1104970446
H   H51       1.0  0.98320  0.56771  0.67689  1.0000 0.1104970446
H   H52       1.0  0.89082  0.30631  0.32310  1.0000 0.1104970446
H   H53       1.0  0.69369  0.01680  0.58451  1.0000 0.1104970446
H   H54       1.0  0.43229  0.10918  0.41550  1.0000 0.1104970446
H   H55       1.0  0.76680  0.68229  0.82310  1.0000 0.1104970446
H   H56       1.0  0.85918  0.94369  0.17689  1.0000 0.1104970446
H   H57       1.0  0.95571  0.39750  0.89399  1.0000 0.1352570233
H   H58       1.0  0.50351  0.06171  0.10600  1.0000 0.1352570233
H   H59       1.0  0.14750  0.75351  0.94179  1.0000 0.1285267859
H   H60       1.0  0.81171  0.20571  0.05820  1.0000 0.1352570233
H   H61       1.0  0.79429  0.85250  0.60601  1.0000 0.1285267859
H   H62       1.0  0.24649  0.18828  0.39399  1.0000 0.1352570233
H   H63       1.0  0.60249  0.49649  0.55820  1.0000 0.1285267859
H   H64       1.0  0.93828  0.04429  0.44179  1.0000 0.1352570233
H   H65       1.0  0.62731  0.28810  0.67379  1.0000 0.119417146
H   H66       1.0  0.61431  0.95352  0.32620  1.0000 0.119417146
H   H67       1.0  0.03811  0.86431  0.16079  1.0000 0.119417146
H   H68       1.0  0.70352  0.87731  0.83920  1.0000 0.119417146
H   H69       1.0  0.12269  0.96189  0.82620  1.0000 0.119417146
H   H70       1.0  0.13569  0.29648  0.17379  1.0000 0.119417146
H   H71       1.0  0.71189  0.38569  0.33920  1.0000 0.119417146
H   H72       1.0  0.04648  0.37269  0.66080  1.0000 0.119417146
H   H73       1.0  0.55721  0.21200  0.60639  1.0000 0.119417146
H   H74       1.0  0.60561  0.95081  0.39360  1.0000 0.119417146
H   H75       1.0  0.96200  0.85561  0.15479  1.0000 0.119417146
H   H76       1.0  0.70081  0.80721  0.84520  1.0000 0.119417146
H   H77       1.0  0.19279  0.03800  0.89360  1.0000 0.119417146
H   H78       1.0  0.14439  0.29918  0.10639  1.0000 0.119417146
H   H79       1.0  0.78799  0.39439  0.34520  1.0000 0.119417146
H   H80       1.0  0.04918  0.44279  0.65480  1.0000 0.119417146
H   H81       1.0  0.67641  0.47391  0.79809  1.0000 0.1285267859
H   H82       1.0  0.67581  0.87831  0.20191  1.0000 0.1285267859
H   H83       1.0  0.22391  0.92581  0.29750  1.0000 0.1285267859
H   H84       1.0  0.62831  0.92641  0.70250  1.0000 0.1285267859
H   H85       1.0  0.07359  0.77609  0.70190  1.0000 0.1285267859
H   H86       1.0  0.07419  0.37168  0.29809  1.0000 0.1285267859
H   H87       1.0  0.52609  0.32419  0.20250  1.0000 0.1285267859
H   H88       1.0  0.12168  0.32359  0.79749  1.0000 0.1285267859
H   H89       1.0  0.65661  0.57290  0.82449  1.0000 0.0989453432
H   H90       1.0  0.74841  0.83211  0.17550  1.0000 0.0989453432
H   H91       1.0  0.32290  0.99841  0.41630  1.0000 0.0989453432
H   H92       1.0  0.58212  0.90661  0.58370  1.0000 0.0989453432
H   H93       1.0  0.09339  0.67710  0.67551  1.0000 0.0989453432
H   H94       1.0  0.00159  0.41789  0.32449  1.0000 0.0989453432
H   H95       1.0  0.42709  0.25159  0.08371  1.0000 0.0989453432
H   H96       1.0  0.16789  0.34339  0.91629  1.0000 0.0989453432
H   H97       1.0  0.85531  0.49660  0.89189  1.0000 0.1285267859
H   H98       1.0  0.60471  0.96341  0.10811  1.0000 0.1285267859
H   H99       1.0  0.24661  0.85471  0.14129  1.0000 0.1285267859
H   H100      1.0  0.71341  0.10531  0.85870  1.0000 0.1285267859
H   H101      1.0  0.89469  0.75340  0.60811  1.0000 0.1285267859
H   H102      1.0  0.14529  0.28658  0.39189  1.0000 0.1285267859
H   H103      1.0  0.50339  0.39529  0.35870  1.0000 0.1285267859
H   H104      1.0  0.03658  0.14469  0.64129  1.0000 0.1285267859
H   H105      1.0  0.82711  0.59180  0.90709  1.0000 0.1104970446
H   H106      1.0  0.68471  0.92002  0.09290  1.0000 0.1104970446
H   H107      1.0  0.34181  0.93471  0.26470  1.0000 0.1104970446
H   H108      1.0  0.67002  0.07711  0.73530  1.0000 0.1104970446
H   H109      1.0  0.92289  0.65819  0.59291  1.0000 0.1104970446
H   H110      1.0  0.06529  0.32998  0.40709  1.0000 0.1104970446
H   H111      1.0  0.40819  0.31529  0.23530  1.0000 0.1104970446
H   H112      1.0  0.07998  0.17289  0.76469  1.0000 0.1104970446
C   C1        1.0  0.62945  0.17124  0.66219  1.0000 -0.0237203779
C   C2        1.0  0.50905  0.96725  0.33780  1.0000 -0.0237203779
C   C3        1.0  0.92124  0.75905  0.04179  1.0000 -0.0237203779
C   C4        1.0  0.71725  0.87945  0.95820  1.0000 -0.0237203779
C   C5        1.0  0.12055  0.07875  0.83780  1.0000 -0.0237203779
C   C6        1.0  0.24095  0.28275  0.16220  1.0000 -0.0237203779
C   C7        1.0  0.82875  0.49095  0.45820  1.0000 -0.0237203779
C   C8        1.0  0.03274  0.37055  0.54180  1.0000 -0.0237203779
C   C9        1.0  0.58324  0.11674  0.61189  1.0000 0.5777343987
C   C10       1.0  0.50484  0.97135  0.38810  1.0000 0.5777343987
C   C11       1.0  0.86673  0.75484  0.03349  1.0000 0.5777343987
C   C12       1.0  0.72135  0.83324  0.96650  1.0000 0.5777343987
C   C13       1.0  0.16676  0.13326  0.88810  1.0000 0.5777343987
C   C14       1.0  0.24516  0.27865  0.11189  1.0000 0.5777343987
C   C15       1.0  0.88326  0.49516  0.46651  1.0000 0.5777343987
C   C16       1.0  0.02866  0.41676  0.53350  1.0000 0.5777343987
C   C17       1.0  0.87039  0.34138  0.85099  1.0000 0.1970221912
C   C18       1.0  0.49039  0.01939  0.14900  1.0000 0.1970221912
C   C19       1.0  0.09138  0.74039  0.97099  1.0000 0.1970221912
C   C20       1.0  0.76939  0.12039  0.02900  1.0000 0.1970221912
C   C21       1.0  0.87961  0.90861  0.64900  1.0000 0.1970221912
C   C22       1.0  0.25961  0.23061  0.35100  1.0000 0.1970221912
C   C23       1.0  0.65861  0.50961  0.52900  1.0000 0.1970221912
C   C24       1.0  0.98060  0.12961  0.47099  1.0000 0.1970221912
C   C25       1.0  0.82893  0.29812  0.81539  1.0000 -0.247599843
C   C26       1.0  0.48273  0.01353  0.18460  1.0000 -0.247599843
C   C27       1.0  0.04812  0.73273  0.96919  1.0000 -0.247599843
C   C28       1.0  0.76353  0.07893  0.03080  1.0000 -0.247599843
C   C29       1.0  0.92107  0.95187  0.68461  1.0000 -0.247599843
C   C30       1.0  0.26727  0.23646  0.31539  1.0000 -0.247599843
C   C31       1.0  0.70187  0.51727  0.53080  1.0000 -0.247599843
C   C32       1.0  0.98646  0.17107  0.46919  1.0000 -0.247599843
C   C33       1.0  0.93944  0.32733  0.87889  1.0000 0.0989453432
C   C34       1.0  0.44844  0.06054  0.12110  1.0000 0.0989453432
C   C35       1.0  0.07733  0.69844  0.88789  1.0000 0.0989453432
C   C36       1.0  0.81054  0.18944  0.11210  1.0000 0.0989453432
C   C37       1.0  0.81056  0.92266  0.62110  1.0000 0.0989453432
C   C38       1.0  0.30156  0.18945  0.37889  1.0000 0.0989453432
C   C39       1.0  0.67266  0.55156  0.61210  1.0000 0.0989453432
C   C40       1.0  0.93945  0.06056  0.38789  1.0000 0.0989453432
C   C41       1.0  0.78793  0.41273  0.83559  1.0000 0.1938798064
C   C42       1.0  0.57713  0.95234  0.16440  1.0000 0.1938798064
C   C43       1.0  0.16273  0.82713  0.12479  1.0000 0.1938798064
C   C44       1.0  0.70233  0.03793  0.87520  1.0000 0.1938798064
C   C45       1.0  0.96207  0.83727  0.66440  1.0000 0.1938798064
C   C46       1.0  0.17287  0.29766  0.33559  1.0000 0.1938798064
C   C47       1.0  0.58727  0.42287  0.37520  1.0000 0.1938798064
C   C48       1.0  0.04767  0.21207  0.62479  1.0000 0.1938798064
C   C49       1.0  0.76945  0.47504  0.84599  1.0000 0.0878210395
C   C50       1.0  0.62905  0.92346  0.15400  1.0000 0.0878210395
C   C51       1.0  0.22505  0.87905  0.20559  1.0000 0.0878210395
C   C52       1.0  0.67345  0.01945  0.79440  1.0000 0.0878210395
C   C53       1.0  0.98055  0.77495  0.65400  1.0000 0.0878210395
C   C54       1.0  0.12095  0.32654  0.34599  1.0000 0.0878210395
C   C55       1.0  0.52495  0.37095  0.29440  1.0000 0.0878210395
C   C56       1.0  0.07655  0.23055  0.70559  1.0000 0.0878210395
C   C57       1.0  0.03824  0.34973  0.92349  1.0000 0.0703326864
C   C58       1.0  0.42624  0.11474  0.07650  1.0000 0.0703326864
C   C59       1.0  0.09974  0.67624  0.81149  1.0000 0.0703326864
C   C60       1.0  0.86474  0.28824  0.18850  1.0000 0.0703326864
C   C61       1.0  0.71176  0.90026  0.57651  1.0000 0.0703326864
C   C62       1.0  0.32376  0.13525  0.42350  1.0000 0.0703326864
C   C63       1.0  0.65026  0.57376  0.68850  1.0000 0.0703326864
C   C64       1.0  0.88525  0.96176  0.31149  1.0000 0.0703326864
C   C65       1.0  0.74162  0.22421  0.76599  1.0000 -0.1558123263
C   C66       1.0  0.45822  0.97562  0.23400  1.0000 -0.1558123263
C   C67       1.0  0.97422  0.70822  0.98259  1.0000 -0.1558123263
C   C68       1.0  0.72562  0.99162  0.01740  1.0000 -0.1558123263
C   C69       1.0  0.00838  0.02578  0.73400  1.0000 -0.1558123263
C   C70       1.0  0.29178  0.27437  0.26599  1.0000 -0.1558123263
C   C71       1.0  0.77578  0.54178  0.51740  1.0000 -0.1558123263
C   C72       1.0  0.02438  0.25838  0.48259  1.0000 -0.1558123263
C   C73       1.0  0.76284  0.31233  0.78709  1.0000 0.1104970446
C   C74       1.0  0.52524  0.97574  0.21290  1.0000 0.1104970446
C   C75       1.0  0.06233  0.77524  0.04949  1.0000 0.1104970446
C   C76       1.0  0.72574  0.01284  0.95050  1.0000 0.1104970446
C   C77       1.0  0.98716  0.93766  0.71291  1.0000 0.1104970446
C   C78       1.0  0.22476  0.27426  0.28709  1.0000 0.1104970446
C   C79       1.0  0.68766  0.47476  0.45050  1.0000 0.1104970446
C   C80       1.0  0.02426  0.23716  0.54949  1.0000 0.1104970446
C   C81       1.0  0.97173  0.27722  0.88489  1.0000 -0.2105147047
C   C82       1.0  0.39233  0.08683  0.11510  1.0000 -0.2105147047
C   C83       1.0  0.02722  0.64233  0.80549  1.0000 -0.2105147047
C   C84       1.0  0.83683  0.22173  0.19450  1.0000 -0.2105147047
C   C85       1.0  0.77827  0.97277  0.61510  1.0000 -0.2105147047
C   C86       1.0  0.35767  0.16316  0.38489  1.0000 -0.2105147047
C   C87       1.0  0.72277  0.60767  0.69450  1.0000 -0.2105147047
C   C88       1.0  0.91317  0.02827  0.30550  1.0000 -0.2105147047
C   C89       1.0  0.74408  0.37137  0.79870  1.0000 -0.2373605613
C   C90       1.0  0.57268  0.94538  0.20130  1.0000 -0.2373605613
C   C91       1.0  0.12137  0.82268  0.12729  1.0000 -0.2373605613
C   C92       1.0  0.69539  0.99408  0.87270  1.0000 -0.2373605613
C   C93       1.0  0.00592  0.87862  0.70130  1.0000 -0.2373605613
C   C94       1.0  0.17732  0.30461  0.29869  1.0000 -0.2373605613
C   C95       1.0  0.62862  0.42732  0.37271  1.0000 -0.2373605613
C   C96       1.0  0.05461  0.25592  0.62729  1.0000 -0.2373605613
C   C97       1.0  0.69966  0.17746  0.72440  1.0000 -0.1207622914
C   C98       1.0  0.45306  0.97526  0.27560  1.0000 -0.1207622914
C   C99       1.0  0.92745  0.70306  0.97779  1.0000 -0.1207622914
C   C100      1.0  0.72526  0.94966  0.02220  1.0000 -0.1207622914
C   C101      1.0  0.05034  0.07254  0.77560  1.0000 -0.1207622914
C   C102      1.0  0.29694  0.27473  0.22439  1.0000 -0.1207622914
C   C103      1.0  0.82254  0.54694  0.52220  1.0000 -0.1207622914
C   C104      1.0  0.02473  0.30034  0.47780  1.0000 -0.1207622914
C   C105      1.0  0.71649  0.26578  0.74689  1.0000 0.0594540192
C   C106      1.0  0.51889  0.96959  0.25311  1.0000 0.0594540192
C   C107      1.0  0.01578  0.76889  0.04929  1.0000 0.0594540192
C   C108      1.0  0.71959  0.96649  0.95070  1.0000 0.0594540192
C   C109      1.0  0.03351  0.98421  0.75310  1.0000 0.0594540192
C   C110      1.0  0.23111  0.28040  0.24689  1.0000 0.0594540192
C   C111      1.0  0.73422  0.48111  0.45070  1.0000 0.0594540192
C   C112      1.0  0.03040  0.28351  0.54929  1.0000 0.0594540192
C   C113      1.0  0.03580  0.26689  0.91109  1.0000 0.0878210395
C   C114      1.0  0.35580  0.12470  0.08890  1.0000 0.0878210395
C   C115      1.0  0.01689  0.60580  0.73109  1.0000 0.0878210395
C   C116      1.0  0.87470  0.28580  0.26891  1.0000 0.0878210395
C   C117      1.0  0.71420  0.98310  0.58890  1.0000 0.0878210395
C   C118      1.0  0.39420  0.12529  0.41109  1.0000 0.0878210395
C   C119      1.0  0.73310  0.64420  0.76890  1.0000 0.0878210395
C   C120      1.0  0.87529  0.96420  0.23109  1.0000 0.0878210395
C   C121      1.0  0.97497  0.36377  0.89819  1.0000 -0.1829706533
C   C122      1.0  0.46557  0.07677  0.10180  1.0000 -0.1829706533
C   C123      1.0  0.11376  0.71557  0.88879  1.0000 -0.1829706533
C   C124      1.0  0.82677  0.22497  0.11120  1.0000 -0.1829706533
C   C125      1.0  0.77503  0.88623  0.60180  1.0000 -0.1829706533
C   C126      1.0  0.28443  0.17322  0.39819  1.0000 -0.1829706533
C   C127      1.0  0.63623  0.53443  0.61120  1.0000 -0.1829706533
C   C128      1.0  0.92322  0.02503  0.38879  1.0000 -0.1829706533
C   C129      1.0  0.64656  0.25995  0.68700  1.0000 -0.1543034014
C   C130      1.0  0.57296  0.95956  0.31300  1.0000 -0.1543034014
C   C131      1.0  0.00995  0.82296  0.11339  1.0000 -0.1558123263
C   C132      1.0  0.70957  0.89656  0.88660  1.0000 -0.1543034014
C   C133      1.0  0.10344  0.99004  0.81300  1.0000 -0.1543034014
C   C134      1.0  0.17704  0.29043  0.18699  1.0000 -0.1558123263
C   C135      1.0  0.74004  0.42704  0.38660  1.0000 -0.1543034014
C   C136      1.0  0.04043  0.35344  0.61339  1.0000 -0.1543034014
C   C137      1.0  0.60430  0.21399  0.64609  1.0000 -0.1080955835
C   C138      1.0  0.56790  0.95820  0.35391  1.0000 -0.1080955835
C   C139      1.0  0.96400  0.81790  0.10969  1.0000 -0.1080955835
C   C140      1.0  0.70821  0.85430  0.89030  1.0000 -0.1080955835
C   C141      1.0  0.14570  0.03600  0.85390  1.0000 -0.1080955835
C   C142      1.0  0.18210  0.29179  0.14609  1.0000 -0.1080955835
C   C143      1.0  0.78600  0.43210  0.39031  1.0000 -0.1080955835
C   C144      1.0  0.04179  0.39570  0.60969  1.0000 -0.1080955835
C   C145      1.0  0.71014  0.49783  0.82349  1.0000 -0.221761358
C   C146      1.0  0.67434  0.88665  0.17650  1.0000 -0.221761358
C   C147      1.0  0.24783  0.92434  0.28769  1.0000 -0.221761358
C   C148      1.0  0.63665  0.96014  0.71230  1.0000 -0.221761358
C   C149      1.0  0.03986  0.75216  0.67651  1.0000 -0.221761358
C   C150      1.0  0.07566  0.36335  0.32349  1.0000 -0.221761358
C   C151      1.0  0.50216  0.32566  0.21230  1.0000 -0.221761358
C   C152      1.0  0.11335  0.28986  0.78769  1.0000 -0.221761358
C   C153      1.0  0.69793  0.55732  0.83759  1.0000 0.0878210395
C   C154      1.0  0.71973  0.86033  0.16240  1.0000 0.0878210395
C   C155      1.0  0.30732  0.96973  0.35939  1.0000 0.0878210395
C   C156      1.0  0.61034  0.94793  0.64060  1.0000 0.0878210395
C   C157      1.0  0.05207  0.69268  0.66240  1.0000 0.0878210395
C   C158      1.0  0.03027  0.38966  0.33759  1.0000 0.0878210395
C   C159      1.0  0.44267  0.28027  0.14060  1.0000 0.0878210395
C   C160      1.0  0.13966  0.30207  0.85939  1.0000 0.0878210395
C   C161      1.0  0.81329  0.51068  0.87679  1.0000 -0.1967029097
C   C162      1.0  0.63389  0.93649  0.12320  1.0000 -0.1967029097
C   C163      1.0  0.26069  0.88389  0.19739  1.0000 -0.1967029097
C   C164      1.0  0.68649  0.06329  0.80261  1.0000 -0.1967029097
C   C165      1.0  0.93671  0.73931  0.62320  1.0000 -0.1967029097
C   C166      1.0  0.11611  0.31350  0.37679  1.0000 -0.1967029097
C   C167      1.0  0.48931  0.36611  0.30261  1.0000 -0.1967029097
C   C168      1.0  0.06350  0.18671  0.69739  1.0000 -0.1967029097
C   C169      1.0  0.79563  0.56852  0.88589  1.0000 0.0878210395
C   C170      1.0  0.68263  0.90973  0.11410  1.0000 0.0878210395
C   C171      1.0  0.31853  0.93263  0.27289  1.0000 0.0878210395
C   C172      1.0  0.65973  0.04563  0.72710  1.0000 0.0878210395
C   C173      1.0  0.95437  0.68148  0.61410  1.0000 0.0878210395
C   C174      1.0  0.06737  0.34026  0.38589  1.0000 0.0878210395
C   C175      1.0  0.43147  0.31737  0.22710  1.0000 0.0878210395
C   C176      1.0  0.09026  0.20437  0.77289  1.0000 0.0878210395
N   N1        1.0  0.85103  0.39770  0.86052  1.0000 -0.3231359916
N   N2        1.0  0.53717  0.99050  0.13947  1.0000 -0.3231359916
N   N3        1.0  0.14770  0.78717  0.04666  1.0000 -0.3231359916
N   N4        1.0  0.74050  0.10103  0.95333  1.0000 -0.3231359916
N   N5        1.0  0.89897  0.85230  0.63947  1.0000 -0.3231359916
N   N6        1.0  0.21283  0.25949  0.36052  1.0000 -0.3231359916
N   N7        1.0  0.60230  0.46283  0.45333  1.0000 -0.3231359916
N   N8        1.0  0.00950  0.14897  0.54666  1.0000 -0.3231359916
N   N9        1.0  0.73841  0.59243  0.86702  1.0000 -0.2373605613
N   N10       1.0  0.72541  0.87139  0.13298  1.0000 -0.2373605613
N   N11       1.0  0.34244  0.97541  0.35402  1.0000 -0.2373605613
N   N12       1.0  0.62139  0.98841  0.64597  1.0000 -0.2373605613
N   N13       1.0  0.01159  0.65756  0.63297  1.0000 -0.2373605613
N   N14       1.0  0.02459  0.37861  0.36702  1.0000 -0.2373605613
N   N15       1.0  0.40756  0.27459  0.14597  1.0000 -0.2373605613
N   N16       1.0  0.12862  0.26159  0.85403  1.0000 -0.2373605613
N   N17       1.0  0.07029  0.30222  0.93046  1.0000 -0.247599843
N   N18       1.0  0.37175  0.13983  0.06953  1.0000 -0.247599843
N   N19       1.0  0.05221  0.62175  0.73192  1.0000 -0.247599843
N   N20       1.0  0.88982  0.32029  0.26808  1.0000 -0.247599843
N   N21       1.0  0.67971  0.94778  0.56953  1.0000 -0.247599843
N   N22       1.0  0.37825  0.11017  0.43046  1.0000 -0.247599843
N   N23       1.0  0.69778  0.62825  0.76807  1.0000 -0.247599843
N   N24       1.0  0.86017  0.92971  0.23192  1.0000 -0.247599843
O   O1        1.0  0.26176  0.26176  0.00000  1.0000 -0.811943429
O   O2        1.0  0.01176  0.51176  0.50000  1.0000 -0.811943429
O   O3        1.0  0.48824  0.98824  0.50000  1.0000 -0.8154240819
O   O4        1.0  0.73824  0.73824  0.00000  1.0000 -0.811943429
O   O5        1.0  0.61258  0.07213  0.62021  1.0000 -0.547369835
O   O6        1.0  0.45192  0.99236  0.37978  1.0000 -0.547369835
O   O7        1.0  0.82213  0.70192  0.95955  1.0000 -0.547369835
O   O8        1.0  0.74236  0.86258  0.04045  1.0000 -0.547369835
O   O9        1.0  0.13742  0.17786  0.87979  1.0000 -0.547369835
O   O10       1.0  0.29808  0.25764  0.12022  1.0000 -0.547369835
O   O11       1.0  0.92786  0.54808  0.54044  1.0000 -0.547369835
O   O12       1.0  0.00764  0.38742  0.45955  1.0000 -0.547369835
O   O13       1.0  0.52092  0.11815  0.56515  1.0000 -0.5140912505
O   O14       1.0  0.55300  0.95576  0.43484  1.0000 -0.5160256512
O   O15       1.0  0.86815  0.80300  0.09723  1.0000 -0.5160256512
O   O16       1.0  0.70577  0.77092  0.90277  1.0000 -0.5160256512
O   O17       1.0  0.22908  0.13185  0.93485  1.0000 -0.5160256512
O   O18       1.0  0.19700  0.29424  0.06516  1.0000 -0.5160256512
O   O19       1.0  0.88185  0.44700  0.40276  1.0000 -0.5160256512
O   O20       1.0  0.04423  0.47908  0.59723  1.0000 -0.5160256512
