# DDEC6 charges by PACMAN v1.1 (https://github.com/mtap-research/PACMAN-charge/)
data_2019[Zn][nan]3[ASR]28
_chemical_formula_sum              "Zn8 H80 C128 N32 O32"
_cell_length_a       13.92
_cell_length_b       13.92
_cell_length_c       21.0164
_cell_angle_alpha    79.8388
_cell_angle_beta     100.161
_cell_angle_gamma    70.1614

_symmetry_space_group_name_H-M    "P 1"
_symmetry_Int_Tables_number       1

loop_
  _symmetry_equiv_pos_as_xyz
  'x, y, z'

loop_
  _atom_site_type_symbol
  _atom_site_label
  _atom_site_symmetry_multiplicity
  _atom_site_fract_x
  _atom_site_fract_y
  _atom_site_fract_z
  _atom_site_occupancy
  _atom_site_charge
Zn  Zn1       1.0  0.93226  0.10606  0.41874  1.0000 0.7711619805
Zn  Zn2       1.0  0.44000  0.59588  0.65838  1.0000 0.8758106302
Zn  Zn3       1.0  0.10606  0.93226  0.08126  1.0000 0.7711619805
Zn  Zn4       1.0  0.59588  0.44000  0.84162  1.0000 0.8758106302
Zn  Zn5       1.0  0.06774  0.89394  0.58126  1.0000 0.7711619805
Zn  Zn6       1.0  0.56000  0.40412  0.34162  1.0000 0.8758106302
Zn  Zn7       1.0  0.89394  0.06774  0.91874  1.0000 0.7711619805
Zn  Zn8       1.0  0.40412  0.56000  0.15838  1.0000 0.8758106302
H   H1        1.0  0.94632  0.41878  0.37582  1.0000 0.1293518387
H   H2        1.0  0.99612  0.56300  0.37048  1.0000 0.1293518387
H   H3        1.0  0.22622  0.40356  0.54136  1.0000 0.1204914125
H   H4        1.0  0.17140  0.26250  0.54772  1.0000 0.1293518387
H   H5        1.0  0.05668  0.89856  0.30803  1.0000 0.1204914125
H   H6        1.0  0.06595  0.79023  0.40966  1.0000 0.1293518387
H   H7        1.0  0.19870  0.53144  0.34394  1.0000 0.1407499473
H   H8        1.0  0.18036  0.64018  0.24056  1.0000 0.1293518387
H   H9        1.0  0.35687  0.48629  0.45328  1.0000 0.1407499473
H   H10       1.0  0.19731  0.64235  0.56718  1.0000 0.1407499473
H   H11       1.0  0.57169  0.39163  0.59949  1.0000 0.1108706813
H   H12       1.0  0.59286  0.27248  0.53259  1.0000 0.1293518387
H   H13       1.0  0.67841  0.03197  0.69699  1.0000 0.1293518387
H   H14       1.0  0.65084  0.15230  0.76357  1.0000 0.1293518387
H   H15       1.0  0.68348  0.74262  0.55898  1.0000 0.1204914125
H   H16       1.0  0.74025  0.88243  0.54330  1.0000 0.1204914125
H   H17       1.0  0.49171  0.05955  0.60231  1.0000 0.1293518387
H   H18       1.0  0.43821  0.91835  0.62019  1.0000 0.1293518387
H   H19       1.0  0.86354  0.96236  0.63570  1.0000 0.1483431678
H   H20       1.0  0.70815  0.13943  0.45089  1.0000 0.1407499473
H   H21       1.0  0.41878  0.94632  0.12418  1.0000 0.1293518387
H   H22       1.0  0.56300  0.99612  0.12952  1.0000 0.1293518387
H   H23       1.0  0.40356  0.22622  0.95864  1.0000 0.1204914125
H   H24       1.0  0.26250  0.17140  0.95228  1.0000 0.1293518387
H   H25       1.0  0.89856  0.05668  0.19197  1.0000 0.1204914125
H   H26       1.0  0.79023  0.06595  0.09034  1.0000 0.1293518387
H   H27       1.0  0.53144  0.19870  0.15606  1.0000 0.1407499473
H   H28       1.0  0.64018  0.18036  0.25944  1.0000 0.1293518387
H   H29       1.0  0.48629  0.35687  0.04672  1.0000 0.1407499473
H   H30       1.0  0.64235  0.19731  0.93282  1.0000 0.1407499473
H   H31       1.0  0.39163  0.57169  0.90051  1.0000 0.1108706813
H   H32       1.0  0.27248  0.59286  0.96741  1.0000 0.1293518387
H   H33       1.0  0.03197  0.67841  0.80301  1.0000 0.1293518387
H   H34       1.0  0.15230  0.65084  0.73643  1.0000 0.1293518387
H   H35       1.0  0.74262  0.68348  0.94102  1.0000 0.1204914125
H   H36       1.0  0.88243  0.74025  0.95670  1.0000 0.1204914125
H   H37       1.0  0.05955  0.49171  0.89769  1.0000 0.1293518387
H   H38       1.0  0.91835  0.43821  0.87981  1.0000 0.1293518387
H   H39       1.0  0.96236  0.86354  0.86430  1.0000 0.1483431678
H   H40       1.0  0.13943  0.70815  0.04911  1.0000 0.1407499473
H   H41       1.0  0.05368  0.58122  0.62418  1.0000 0.1293518387
H   H42       1.0  0.00388  0.43700  0.62952  1.0000 0.1293518387
H   H43       1.0  0.77378  0.59644  0.45864  1.0000 0.1204914125
H   H44       1.0  0.82860  0.73750  0.45228  1.0000 0.1293518387
H   H45       1.0  0.94332  0.10144  0.69197  1.0000 0.1204914125
H   H46       1.0  0.93405  0.20977  0.59034  1.0000 0.1293518387
H   H47       1.0  0.80130  0.46856  0.65606  1.0000 0.1407499473
H   H48       1.0  0.81964  0.35982  0.75944  1.0000 0.1293518387
H   H49       1.0  0.64313  0.51371  0.54672  1.0000 0.1407499473
H   H50       1.0  0.80269  0.35765  0.43282  1.0000 0.1407499473
H   H51       1.0  0.42831  0.60837  0.40051  1.0000 0.1108706813
H   H52       1.0  0.40714  0.72752  0.46741  1.0000 0.1293518387
H   H53       1.0  0.32159  0.96803  0.30301  1.0000 0.1293518387
H   H54       1.0  0.34916  0.84770  0.23643  1.0000 0.1293518387
H   H55       1.0  0.31652  0.25738  0.44102  1.0000 0.1204914125
H   H56       1.0  0.25975  0.11757  0.45670  1.0000 0.1204914125
H   H57       1.0  0.50829  0.94045  0.39769  1.0000 0.1293518387
H   H58       1.0  0.56179  0.08165  0.37981  1.0000 0.1293518387
H   H59       1.0  0.13646  0.03764  0.36430  1.0000 0.1483431678
H   H60       1.0  0.29185  0.86057  0.54911  1.0000 0.1407499473
H   H61       1.0  0.58122  0.05368  0.87582  1.0000 0.1293518387
H   H62       1.0  0.43700  0.00388  0.87048  1.0000 0.1293518387
H   H63       1.0  0.59644  0.77378  0.04136  1.0000 0.1204914125
H   H64       1.0  0.73750  0.82860  0.04772  1.0000 0.1293518387
H   H65       1.0  0.10144  0.94332  0.80803  1.0000 0.1204914125
H   H66       1.0  0.20977  0.93405  0.90966  1.0000 0.1293518387
H   H67       1.0  0.46856  0.80130  0.84394  1.0000 0.1407499473
H   H68       1.0  0.35982  0.81964  0.74056  1.0000 0.1293518387
H   H69       1.0  0.51371  0.64313  0.95328  1.0000 0.1407499473
H   H70       1.0  0.35765  0.80269  0.06718  1.0000 0.1407499473
H   H71       1.0  0.60837  0.42831  0.09949  1.0000 0.1108706813
H   H72       1.0  0.72752  0.40714  0.03259  1.0000 0.1293518387
H   H73       1.0  0.96803  0.32159  0.19699  1.0000 0.1293518387
H   H74       1.0  0.84770  0.34916  0.26357  1.0000 0.1293518387
H   H75       1.0  0.25738  0.31652  0.05898  1.0000 0.1204914125
H   H76       1.0  0.11757  0.25975  0.04330  1.0000 0.1204914125
H   H77       1.0  0.94045  0.50829  0.10231  1.0000 0.1293518387
H   H78       1.0  0.08165  0.56179  0.12019  1.0000 0.1293518387
H   H79       1.0  0.03764  0.13646  0.13570  1.0000 0.1483431678
H   H80       1.0  0.86057  0.29185  0.95089  1.0000 0.1407499473
C   C1        1.0  0.02285  0.23293  0.46569  1.0000 0.5332363914
C   C2        1.0  0.05469  0.32561  0.46219  1.0000 -0.0410190204
C   C3        1.0  0.00308  0.41576  0.40974  1.0000 -0.0871380227
C   C4        1.0  0.03305  0.50119  0.40613  1.0000 -0.1907147446
C   C5        1.0  0.11739  0.49629  0.45485  1.0000 0.167369451
C   C6        1.0  0.16892  0.40710  0.50763  1.0000 -0.2007400174
C   C7        1.0  0.13653  0.32309  0.51102  1.0000 -0.0789766991
C   C8        1.0  0.11195  0.84921  0.20057  1.0000 0.5494686436
C   C9        1.0  0.11854  0.77950  0.26539  1.0000 -0.0236104619
C   C10       1.0  0.08448  0.82396  0.31521  1.0000 -0.0789766991
C   C11       1.0  0.09074  0.76004  0.37561  1.0000 -0.1816427764
C   C12       1.0  0.13362  0.65170  0.38549  1.0000 0.1407499473
C   C13       1.0  0.16858  0.60610  0.33612  1.0000 -0.1816427764
C   C14       1.0  0.15913  0.67041  0.27543  1.0000 -0.0789766991
C   C15       1.0  0.34078  0.51980  0.48787  1.0000 0.0768848952
C   C16       1.0  0.25307  0.60477  0.54976  1.0000 0.0876642201
C   C17       1.0  0.58779  0.36381  0.72731  1.0000 0.5877063345
C   C18       1.0  0.60678  0.28384  0.68736  1.0000 -0.0410190204
C   C19       1.0  0.59161  0.31857  0.61927  1.0000 -0.0789766991
C   C20       1.0  0.60513  0.24807  0.57958  1.0000 -0.1816427764
C   C21       1.0  0.63663  0.14199  0.60906  1.0000 0.1483431678
C   C22       1.0  0.65506  0.10548  0.67716  1.0000 -0.1816427764
C   C23       1.0  0.63934  0.17676  0.71666  1.0000 -0.0706353676
C   C24       1.0  0.52700  0.72196  0.60823  1.0000 0.5442991327
C   C25       1.0  0.55740  0.81478  0.59321  1.0000 -0.0410190204
C   C26       1.0  0.64554  0.80644  0.56917  1.0000 -0.0706353676
C   C27       1.0  0.67948  0.88946  0.55970  1.0000 -0.2007400174
C   C28       1.0  0.62419  0.98275  0.57431  1.0000 0.167369451
C   C29       1.0  0.53232  0.99412  0.59504  1.0000 -0.1907147446
C   C30       1.0  0.50017  0.91055  0.60504  1.0000 -0.0871380227
C   C31       1.0  0.84836  0.00012  0.59046  1.0000 0.0876642201
C   C32       1.0  0.76347  0.09703  0.48952  1.0000 0.0997332172
C   C33       1.0  0.23293  0.02285  0.03431  1.0000 0.5332363914
C   C34       1.0  0.32561  0.05469  0.03781  1.0000 -0.0410190204
C   C35       1.0  0.41576  0.00308  0.09026  1.0000 -0.0871380227
C   C36       1.0  0.50119  0.03305  0.09387  1.0000 -0.1907147446
C   C37       1.0  0.49629  0.11739  0.04515  1.0000 0.167369451
C   C38       1.0  0.40710  0.16892  0.99237  1.0000 -0.2007400174
C   C39       1.0  0.32309  0.13653  0.98898  1.0000 -0.0789766991
C   C40       1.0  0.84921  0.11195  0.29943  1.0000 0.5494686436
C   C41       1.0  0.77950  0.11854  0.23461  1.0000 -0.0236104619
C   C42       1.0  0.82396  0.08448  0.18479  1.0000 -0.0789766991
C   C43       1.0  0.76004  0.09074  0.12439  1.0000 -0.1816427764
C   C44       1.0  0.65170  0.13362  0.11451  1.0000 0.1407499473
C   C45       1.0  0.60610  0.16858  0.16388  1.0000 -0.1816427764
C   C46       1.0  0.67041  0.15913  0.22457  1.0000 -0.0789766991
C   C47       1.0  0.51980  0.34078  0.01213  1.0000 0.0768848952
C   C48       1.0  0.60477  0.25307  0.95024  1.0000 0.0876642201
C   C49       1.0  0.36381  0.58779  0.77269  1.0000 0.5877063345
C   C50       1.0  0.28384  0.60678  0.81264  1.0000 -0.0410190204
C   C51       1.0  0.31857  0.59161  0.88073  1.0000 -0.0789766991
C   C52       1.0  0.24807  0.60513  0.92042  1.0000 -0.1816427764
C   C53       1.0  0.14199  0.63663  0.89094  1.0000 0.1483431678
C   C54       1.0  0.10548  0.65506  0.82284  1.0000 -0.1816427764
C   C55       1.0  0.17676  0.63934  0.78334  1.0000 -0.0706353676
C   C56       1.0  0.72196  0.52700  0.89177  1.0000 0.5442991327
C   C57       1.0  0.81478  0.55740  0.90679  1.0000 -0.0410190204
C   C58       1.0  0.80644  0.64554  0.93083  1.0000 -0.0706353676
C   C59       1.0  0.88946  0.67948  0.94030  1.0000 -0.2007400174
C   C60       1.0  0.98275  0.62419  0.92569  1.0000 0.167369451
C   C61       1.0  0.99412  0.53232  0.90496  1.0000 -0.1907147446
C   C62       1.0  0.91055  0.50017  0.89496  1.0000 -0.0871380227
C   C63       1.0  0.00012  0.84836  0.90954  1.0000 0.0876642201
C   C64       1.0  0.09703  0.76347  0.01048  1.0000 0.0997332172
C   C65       1.0  0.97715  0.76707  0.53431  1.0000 0.5332363914
C   C66       1.0  0.94531  0.67439  0.53781  1.0000 -0.0410190204
C   C67       1.0  0.99692  0.58424  0.59026  1.0000 -0.0871380227
C   C68       1.0  0.96695  0.49881  0.59387  1.0000 -0.1907147446
C   C69       1.0  0.88261  0.50371  0.54515  1.0000 0.167369451
C   C70       1.0  0.83108  0.59290  0.49237  1.0000 -0.2007400174
C   C71       1.0  0.86347  0.67691  0.48898  1.0000 -0.0789766991
C   C72       1.0  0.88805  0.15079  0.79943  1.0000 0.5494686436
C   C73       1.0  0.88146  0.22050  0.73461  1.0000 -0.0236104619
C   C74       1.0  0.91552  0.17604  0.68479  1.0000 -0.0789766991
C   C75       1.0  0.90926  0.23996  0.62439  1.0000 -0.1816427764
C   C76       1.0  0.86638  0.34830  0.61451  1.0000 0.1407499473
C   C77       1.0  0.83142  0.39390  0.66388  1.0000 -0.1816427764
C   C78       1.0  0.84087  0.32959  0.72457  1.0000 -0.0789766991
C   C79       1.0  0.65922  0.48020  0.51213  1.0000 0.0768848952
C   C80       1.0  0.74693  0.39523  0.45024  1.0000 0.0876642201
C   C81       1.0  0.41221  0.63619  0.27269  1.0000 0.5877063345
C   C82       1.0  0.39322  0.71616  0.31264  1.0000 -0.0410190204
C   C83       1.0  0.40839  0.68143  0.38073  1.0000 -0.0789766991
C   C84       1.0  0.39487  0.75193  0.42042  1.0000 -0.1816427764
C   C85       1.0  0.36337  0.85801  0.39094  1.0000 0.1483431678
C   C86       1.0  0.34494  0.89452  0.32284  1.0000 -0.1816427764
C   C87       1.0  0.36066  0.82324  0.28334  1.0000 -0.0706353676
C   C88       1.0  0.47300  0.27804  0.39177  1.0000 0.5442991327
C   C89       1.0  0.44260  0.18522  0.40679  1.0000 -0.0410190204
C   C90       1.0  0.35446  0.19356  0.43083  1.0000 -0.0706353676
C   C91       1.0  0.32052  0.11054  0.44030  1.0000 -0.2007400174
C   C92       1.0  0.37581  0.01725  0.42569  1.0000 0.167369451
C   C93       1.0  0.46768  0.00588  0.40496  1.0000 -0.1907147446
C   C94       1.0  0.49983  0.08945  0.39496  1.0000 -0.0871380227
C   C95       1.0  0.15164  0.99988  0.40954  1.0000 0.0876642201
C   C96       1.0  0.23653  0.90297  0.51048  1.0000 0.0997332172
C   C97       1.0  0.76707  0.97715  0.96569  1.0000 0.5332363914
C   C98       1.0  0.67439  0.94531  0.96219  1.0000 -0.0410190204
C   C99       1.0  0.58424  0.99692  0.90974  1.0000 -0.0871380227
C   C100      1.0  0.49881  0.96695  0.90613  1.0000 -0.1907147446
C   C101      1.0  0.50371  0.88261  0.95485  1.0000 0.167369451
C   C102      1.0  0.59290  0.83108  0.00763  1.0000 -0.2007400174
C   C103      1.0  0.67691  0.86347  0.01102  1.0000 -0.0789766991
C   C104      1.0  0.15079  0.88805  0.70057  1.0000 0.5494686436
C   C105      1.0  0.22050  0.88146  0.76539  1.0000 -0.0236104619
C   C106      1.0  0.17604  0.91552  0.81521  1.0000 -0.0789766991
C   C107      1.0  0.23996  0.90926  0.87561  1.0000 -0.1816427764
C   C108      1.0  0.34830  0.86638  0.88549  1.0000 0.1407499473
C   C109      1.0  0.39390  0.83142  0.83612  1.0000 -0.1816427764
C   C110      1.0  0.32959  0.84087  0.77543  1.0000 -0.0789766991
C   C111      1.0  0.48020  0.65922  0.98787  1.0000 0.0768848952
C   C112      1.0  0.39523  0.74693  0.04976  1.0000 0.0876642201
C   C113      1.0  0.63619  0.41221  0.22731  1.0000 0.5877063345
C   C114      1.0  0.71616  0.39322  0.18736  1.0000 -0.0410190204
C   C115      1.0  0.68143  0.40839  0.11927  1.0000 -0.0789766991
C   C116      1.0  0.75193  0.39487  0.07958  1.0000 -0.1816427764
C   C117      1.0  0.85801  0.36337  0.10906  1.0000 0.1483431678
C   C118      1.0  0.89452  0.34494  0.17716  1.0000 -0.1816427764
C   C119      1.0  0.82324  0.36066  0.21666  1.0000 -0.0706353676
C   C120      1.0  0.27804  0.47300  0.10823  1.0000 0.5442991327
C   C121      1.0  0.18522  0.44260  0.09321  1.0000 -0.0410190204
C   C122      1.0  0.19356  0.35446  0.06917  1.0000 -0.0706353676
C   C123      1.0  0.11054  0.32052  0.05970  1.0000 -0.2007400174
C   C124      1.0  0.01725  0.37581  0.07431  1.0000 0.167369451
C   C125      1.0  0.00588  0.46768  0.09504  1.0000 -0.1907147446
C   C126      1.0  0.08945  0.49983  0.10504  1.0000 -0.0871380227
C   C127      1.0  0.99988  0.15164  0.09046  1.0000 0.0876642201
C   C128      1.0  0.90297  0.23653  0.98952  1.0000 0.0997332172
N   N1        1.0  0.35328  0.57958  0.57517  1.0000 -0.1907147446
N   N2        1.0  0.41001  0.52563  0.53543  1.0000 -0.1816427764
N   N3        1.0  0.24157  0.56863  0.49460  1.0000 0.0704994347
N   N4        1.0  0.14523  0.58635  0.45083  1.0000 -0.1237758458
N   N5        1.0  0.86414  0.07000  0.49395  1.0000 -0.1583482329
N   N6        1.0  0.91845  0.00795  0.55789  1.0000 -0.1520613343
N   N7        1.0  0.75066  0.05474  0.54902  1.0000 0.0997332172
N   N8        1.0  0.65368  0.07168  0.56521  1.0000 -0.1520613343
N   N9        1.0  0.57958  0.35328  0.92483  1.0000 -0.1907147446
N   N10       1.0  0.52563  0.41001  0.96457  1.0000 -0.1816427764
N   N11       1.0  0.56863  0.24157  0.00540  1.0000 0.0704994347
N   N12       1.0  0.58635  0.14523  0.04917  1.0000 -0.1237758458
N   N13       1.0  0.07000  0.86414  0.00605  1.0000 -0.1583482329
N   N14       1.0  0.00795  0.91845  0.94211  1.0000 -0.1520613343
N   N15       1.0  0.05474  0.75066  0.95098  1.0000 0.0997332172
N   N16       1.0  0.07168  0.65368  0.93479  1.0000 -0.1520613343
N   N17       1.0  0.64672  0.42042  0.42483  1.0000 -0.1907147446
N   N18       1.0  0.58999  0.47437  0.46457  1.0000 -0.1816427764
N   N19       1.0  0.75843  0.43137  0.50540  1.0000 0.0704994347
N   N20       1.0  0.85477  0.41365  0.54917  1.0000 -0.1237758458
N   N21       1.0  0.13586  0.93000  0.50605  1.0000 -0.1583482329
N   N22       1.0  0.08155  0.99205  0.44211  1.0000 -0.1520613343
N   N23       1.0  0.24934  0.94526  0.45098  1.0000 0.0997332172
N   N24       1.0  0.34632  0.92832  0.43479  1.0000 -0.1520613343
N   N25       1.0  0.42042  0.64672  0.07517  1.0000 -0.1907147446
N   N26       1.0  0.47437  0.58999  0.03543  1.0000 -0.1816427764
N   N27       1.0  0.43137  0.75843  0.99460  1.0000 0.0704994347
N   N28       1.0  0.41365  0.85477  0.95083  1.0000 -0.1237758458
N   N29       1.0  0.93000  0.13586  0.99395  1.0000 -0.1583482329
N   N30       1.0  0.99205  0.08155  0.05789  1.0000 -0.1520613343
N   N31       1.0  0.94526  0.24934  0.04902  1.0000 0.0997332172
N   N32       1.0  0.92832  0.34632  0.06521  1.0000 -0.1520613343
O   O1        1.0  0.94928  0.23972  0.41607  1.0000 -0.5601768523
O   O2        1.0  0.06540  0.15482  0.51399  1.0000 -0.5429942091
O   O3        1.0  0.11965  0.80859  0.15095  1.0000 -0.5308890123
O   O4        1.0  0.09933  0.94305  0.19506  1.0000 -0.5429942091
O   O5        1.0  0.44800  0.73384  0.63462  1.0000 -0.5601768523
O   O6        1.0  0.57753  0.63715  0.59840  1.0000 -0.5308890123
O   O7        1.0  0.60801  0.33243  0.78963  1.0000 -0.5308890123
O   O8        1.0  0.55969  0.45939  0.69773  1.0000 -0.5601768523
O   O9        1.0  0.23972  0.94928  0.08393  1.0000 -0.5601768523
O   O10       1.0  0.15482  0.06540  0.98601  1.0000 -0.5429942091
O   O11       1.0  0.80859  0.11965  0.34905  1.0000 -0.5308890123
O   O12       1.0  0.94305  0.09933  0.30494  1.0000 -0.5429942091
O   O13       1.0  0.73384  0.44800  0.86538  1.0000 -0.5601768523
O   O14       1.0  0.63715  0.57753  0.90160  1.0000 -0.5308890123
O   O15       1.0  0.33243  0.60801  0.71037  1.0000 -0.5308890123
O   O16       1.0  0.45939  0.55969  0.80227  1.0000 -0.5601768523
O   O17       1.0  0.05072  0.76028  0.58393  1.0000 -0.5601768523
O   O18       1.0  0.93460  0.84518  0.48601  1.0000 -0.5429942091
O   O19       1.0  0.88035  0.19141  0.84905  1.0000 -0.5308890123
O   O20       1.0  0.90067  0.05695  0.80494  1.0000 -0.5429942091
O   O21       1.0  0.55200  0.26616  0.36538  1.0000 -0.5601768523
O   O22       1.0  0.42247  0.36285  0.40160  1.0000 -0.5308890123
O   O23       1.0  0.39199  0.66757  0.21037  1.0000 -0.5308890123
O   O24       1.0  0.44031  0.54061  0.30227  1.0000 -0.5601768523
O   O25       1.0  0.76028  0.05072  0.91607  1.0000 -0.5601768523
O   O26       1.0  0.84518  0.93460  0.01399  1.0000 -0.5429942091
O   O27       1.0  0.19141  0.88035  0.65095  1.0000 -0.5308890123
O   O28       1.0  0.05695  0.90067  0.69506  1.0000 -0.5429942091
O   O29       1.0  0.26616  0.55200  0.13462  1.0000 -0.5601768523
O   O30       1.0  0.36285  0.42247  0.09840  1.0000 -0.5308890123
O   O31       1.0  0.66757  0.39199  0.28963  1.0000 -0.5308890123
O   O32       1.0  0.54061  0.44031  0.19773  1.0000 -0.5601768523
