# DDEC6 charges by PACMAN v1.1 (https://github.com/mtap-research/PACMAN-charge/)
data_2019[Zn][etf]3[ASR]1
_chemical_formula_sum              "Zn6 H30 C54 N30"
_cell_length_a       13.849
_cell_length_b       13.849
_cell_length_c       13.849
_cell_angle_alpha    113.572
_cell_angle_beta     113.572
_cell_angle_gamma    113.572

_symmetry_space_group_name_H-M    "P 1"
_symmetry_Int_Tables_number       1

loop_
  _symmetry_equiv_pos_as_xyz
  'x, y, z'

loop_
  _atom_site_type_symbol
  _atom_site_label
  _atom_site_symmetry_multiplicity
  _atom_site_fract_x
  _atom_site_fract_y
  _atom_site_fract_z
  _atom_site_occupancy
  _atom_site_charge
Zn  Zn1       1.0  0.79955  0.55133  0.46965  1.0000 0.635657192
Zn  Zn2       1.0  0.55133  0.46965  0.79955  1.0000 0.635657192
Zn  Zn3       1.0  0.46965  0.79955  0.55133  1.0000 0.635657192
Zn  Zn4       1.0  0.05133  0.29955  0.96965  1.0000 0.635657192
Zn  Zn5       1.0  0.96965  0.05133  0.29955  1.0000 0.635657192
Zn  Zn6       1.0  0.29955  0.96965  0.05133  1.0000 0.635657192
H   H1        1.0  0.55412  0.02238  0.99152  1.0000 0.1386838165
H   H2        1.0  0.95370  0.80288  0.95476  1.0000 0.1086066323
H   H3        1.0  0.60533  0.97620  0.84867  1.0000 0.1002567418
H   H4        1.0  0.74903  0.61867  0.69879  1.0000 0.1086066323
H   H5        1.0  0.20603  0.69690  0.49943  1.0000 0.1219346829
H   H6        1.0  0.02238  0.99152  0.55412  1.0000 0.1386838165
H   H7        1.0  0.80288  0.95476  0.95370  1.0000 0.1086066323
H   H8        1.0  0.97620  0.84867  0.60533  1.0000 0.1002567418
H   H9        1.0  0.61867  0.69879  0.74903  1.0000 0.1086066323
H   H10       1.0  0.69690  0.49943  0.20603  1.0000 0.1219346829
H   H11       1.0  0.99152  0.55412  0.02238  1.0000 0.1386838165
H   H12       1.0  0.95476  0.95370  0.80288  1.0000 0.1086066323
H   H13       1.0  0.84867  0.60533  0.97620  1.0000 0.1002567418
H   H14       1.0  0.69879  0.74903  0.61867  1.0000 0.1086066323
H   H15       1.0  0.49943  0.20603  0.69690  1.0000 0.1219346829
H   H16       1.0  0.52238  0.05412  0.49152  1.0000 0.1386838165
H   H17       1.0  0.30288  0.45370  0.45476  1.0000 0.1086066323
H   H18       1.0  0.47620  0.10533  0.34867  1.0000 0.1002567418
H   H19       1.0  0.11867  0.24903  0.19879  1.0000 0.1086066323
H   H20       1.0  0.19690  0.70603  0.99943  1.0000 0.1219346829
H   H21       1.0  0.49152  0.52238  0.05412  1.0000 0.1386838165
H   H22       1.0  0.45476  0.30288  0.45370  1.0000 0.1086066323
H   H23       1.0  0.34867  0.47620  0.10533  1.0000 0.1002567418
H   H24       1.0  0.19879  0.11867  0.24903  1.0000 0.1086066323
H   H25       1.0  0.99943  0.19690  0.70603  1.0000 0.1219346829
H   H26       1.0  0.05412  0.49152  0.52238  1.0000 0.1386838165
H   H27       1.0  0.45370  0.45476  0.30288  1.0000 0.1086066323
H   H28       1.0  0.10533  0.34867  0.47620  1.0000 0.1002567418
H   H29       1.0  0.24903  0.19879  0.11867  1.0000 0.1086066323
H   H30       1.0  0.70603  0.99943  0.19690  1.0000 0.1219346829
C   C1        1.0  0.03370  0.76260  0.77570  1.0000 0.2162749477
C   C2        1.0  0.48280  0.95700  0.89360  1.0000 -0.2189181589
C   C3        1.0  0.34030  0.88260  0.82670  1.0000 0.1913223572
C   C4        1.0  0.95780  0.77640  0.88430  1.0000 -0.0396778427
C   C5        1.0  0.13420  0.78690  0.75680  1.0000 0.250862629
C   C6        1.0  0.23520  0.78450  0.67650  1.0000 0.1086066323
C   C7        1.0  0.51140  0.92790  0.80650  1.0000 0.0256287885
C   C8        1.0  0.84330  0.67320  0.74110  1.0000 -0.0546036206
C   C9        1.0  0.27440  0.76160  0.59750  1.0000 -0.0209661044
C   C10       1.0  0.76260  0.77570  0.03370  1.0000 0.2162749477
C   C11       1.0  0.95700  0.89360  0.48280  1.0000 -0.2189181589
C   C12       1.0  0.88260  0.82670  0.34030  1.0000 0.1913223572
C   C13       1.0  0.77640  0.88430  0.95780  1.0000 -0.0396778427
C   C14       1.0  0.78690  0.75680  0.13420  1.0000 0.250862629
C   C15       1.0  0.78450  0.67650  0.23520  1.0000 0.1086066323
C   C16       1.0  0.92790  0.80650  0.51140  1.0000 0.0256287885
C   C17       1.0  0.67320  0.74110  0.84330  1.0000 -0.0546036206
C   C18       1.0  0.76160  0.59750  0.27440  1.0000 -0.0209661044
C   C19       1.0  0.77570  0.03370  0.76260  1.0000 0.2162749477
C   C20       1.0  0.89360  0.48280  0.95700  1.0000 -0.2189181589
C   C21       1.0  0.82670  0.34030  0.88260  1.0000 0.1913223572
C   C22       1.0  0.88430  0.95780  0.77640  1.0000 -0.0396778427
C   C23       1.0  0.75680  0.13420  0.78690  1.0000 0.250862629
C   C24       1.0  0.67650  0.23520  0.78450  1.0000 0.1086066323
C   C25       1.0  0.80650  0.51140  0.92790  1.0000 0.0256287885
C   C26       1.0  0.74110  0.84330  0.67320  1.0000 -0.0546036206
C   C27       1.0  0.59750  0.27440  0.76160  1.0000 -0.0209661044
C   C28       1.0  0.26260  0.53370  0.27570  1.0000 0.2162749477
C   C29       1.0  0.45700  0.98280  0.39360  1.0000 -0.2189181589
C   C30       1.0  0.38260  0.84030  0.32670  1.0000 0.1913223572
C   C31       1.0  0.27640  0.45780  0.38430  1.0000 -0.0396778427
C   C32       1.0  0.28690  0.63420  0.25680  1.0000 0.250862629
C   C33       1.0  0.28450  0.73520  0.17650  1.0000 0.1086066323
C   C34       1.0  0.42790  0.01140  0.30650  1.0000 0.0256287885
C   C35       1.0  0.17320  0.34330  0.24110  1.0000 -0.0546036206
C   C36       1.0  0.26160  0.77440  0.09750  1.0000 -0.0209661044
C   C37       1.0  0.27570  0.26260  0.53370  1.0000 0.2162749477
C   C38       1.0  0.39360  0.45700  0.98280  1.0000 -0.2189181589
C   C39       1.0  0.32670  0.38260  0.84030  1.0000 0.1913223572
C   C40       1.0  0.38430  0.27640  0.45780  1.0000 -0.0396778427
C   C41       1.0  0.25680  0.28690  0.63420  1.0000 0.250862629
C   C42       1.0  0.17650  0.28450  0.73520  1.0000 0.1086066323
C   C43       1.0  0.30650  0.42790  0.01140  1.0000 0.0256287885
C   C44       1.0  0.24110  0.17320  0.34330  1.0000 -0.0546036206
C   C45       1.0  0.09750  0.26160  0.77440  1.0000 -0.0209661044
C   C46       1.0  0.53370  0.27570  0.26260  1.0000 0.2162749477
C   C47       1.0  0.98280  0.39360  0.45700  1.0000 -0.2189181589
C   C48       1.0  0.84030  0.32670  0.38260  1.0000 0.1913223572
C   C49       1.0  0.45780  0.38430  0.27640  1.0000 -0.0396778427
C   C50       1.0  0.63420  0.25680  0.28690  1.0000 0.250862629
C   C51       1.0  0.73520  0.17650  0.28450  1.0000 0.1086066323
C   C52       1.0  0.01140  0.30650  0.42790  1.0000 0.0256287885
C   C53       1.0  0.34330  0.24110  0.17320  1.0000 -0.0546036206
C   C54       1.0  0.77440  0.09750  0.26160  1.0000 -0.0209661044
N   N1        1.0  0.07890  0.83350  0.90590  1.0000 -0.3270127915
N   N2        1.0  0.89170  0.66420  0.67080  1.0000 -0.3168028288
N   N3        1.0  0.41170  0.83340  0.66350  1.0000 -0.2286231958
N   N4        1.0  0.27480  0.88410  0.87840  1.0000 -0.3947227143
N   N5        1.0  0.10350  0.72420  0.63480  1.0000 -0.4049396209
N   N6        1.0  0.83350  0.90590  0.07890  1.0000 -0.3270127915
N   N7        1.0  0.66420  0.67080  0.89170  1.0000 -0.3168028288
N   N8        1.0  0.83340  0.66350  0.41170  1.0000 -0.2286231958
N   N9        1.0  0.88410  0.87840  0.27480  1.0000 -0.3947227143
N   N10       1.0  0.72420  0.63480  0.10350  1.0000 -0.4054621451
N   N11       1.0  0.90590  0.07890  0.83350  1.0000 -0.3270127915
N   N12       1.0  0.67080  0.89170  0.66420  1.0000 -0.3168028288
N   N13       1.0  0.66350  0.41170  0.83340  1.0000 -0.2286231958
N   N14       1.0  0.87840  0.27480  0.88410  1.0000 -0.3947227143
N   N15       1.0  0.63480  0.10350  0.72420  1.0000 -0.4049396209
N   N16       1.0  0.33350  0.57890  0.40590  1.0000 -0.3270127915
N   N17       1.0  0.16420  0.39170  0.17080  1.0000 -0.3168028288
N   N18       1.0  0.33340  0.91170  0.16350  1.0000 -0.2286231958
N   N19       1.0  0.38410  0.77480  0.37840  1.0000 -0.3947227143
N   N20       1.0  0.22420  0.60350  0.13480  1.0000 -0.4054621451
N   N21       1.0  0.40590  0.33350  0.57890  1.0000 -0.3270127915
N   N22       1.0  0.17080  0.16420  0.39170  1.0000 -0.3168028288
N   N23       1.0  0.16350  0.33340  0.91170  1.0000 -0.2286231958
N   N24       1.0  0.37840  0.38410  0.77480  1.0000 -0.3947227143
N   N25       1.0  0.13480  0.22420  0.60350  1.0000 -0.4049396209
N   N26       1.0  0.57890  0.40590  0.33350  1.0000 -0.3270127915
N   N27       1.0  0.39170  0.17080  0.16420  1.0000 -0.3168028288
N   N28       1.0  0.91170  0.16350  0.33340  1.0000 -0.2286231958
N   N29       1.0  0.77480  0.37840  0.38410  1.0000 -0.3947227143
N   N30       1.0  0.60350  0.13480  0.22420  1.0000 -0.4049396209
