# DDEC6 charges by PACMAN v1.1 (https://github.com/mtap-research/PACMAN-charge/)
data_2019[Co][pcu]3[ASR]7
_chemical_formula_sum              "Co4 H60 C72 N8 O16"
_cell_length_a       11.0172
_cell_length_b       15.2551
_cell_length_c       15.7715
_cell_angle_alpha    90
_cell_angle_beta     121.725
_cell_angle_gamma    90

_symmetry_space_group_name_H-M    "P 1"
_symmetry_Int_Tables_number       1

loop_
  _symmetry_equiv_pos_as_xyz
  'x, y, z'

loop_
  _atom_site_type_symbol
  _atom_site_label
  _atom_site_symmetry_multiplicity
  _atom_site_fract_x
  _atom_site_fract_y
  _atom_site_fract_z
  _atom_site_occupancy
  _atom_site_charge
Co  Co1       1.0  0.35556  0.50243  0.94564  1.0000 0.8365586224
Co  Co2       1.0  0.64444  0.00243  0.55436  1.0000 0.8365586224
Co  Co3       1.0  0.64444  0.49757  0.05436  1.0000 0.8365586224
Co  Co4       1.0  0.35556  0.99757  0.44564  1.0000 0.8365586224
H   H1        1.0  0.59030  0.36240  0.68680  1.0000 0.2438469651
H   H2        1.0  0.72010  0.68920  0.87910  1.0000 0.1203614179
H   H3        1.0  0.72620  0.79460  0.77500  1.0000 0.1203614179
H   H4        1.0  0.29980  0.77430  0.59420  1.0000 0.1203614179
H   H5        1.0  0.29470  0.67270  0.70090  1.0000 0.1275665584
H   H6        1.0  0.09550  0.41810  0.77190  1.0000 0.1203614179
H   H7        1.0  0.85730  0.39800  0.71170  1.0000 0.1379965516
H   H8        1.0  0.89050  0.57450  0.91050  1.0000 0.1379965516
H   H9        1.0  0.12550  0.58930  0.96480  1.0000 0.1130661117
H   H10       1.0  0.64600  0.51870  0.77220  1.0000 0.1130661117
H   H11       1.0  0.69260  0.42950  0.82970  1.0000 0.1203614179
H   H12       1.0  0.41130  0.30460  0.54970  1.0000 0.1379965516
H   H13       1.0  0.38560  0.29250  0.44270  1.0000 0.1475531841
H   H14       1.0  0.53970  0.28260  0.53680  1.0000 0.1475531841
H   H15       1.0  0.37000  0.41910  0.35520  1.0000 0.1203614179
H   H16       1.0  0.40970  0.86240  0.81320  1.0000 0.2438469651
H   H17       1.0  0.27990  0.18920  0.62090  1.0000 0.1203614179
H   H18       1.0  0.27380  0.29460  0.72500  1.0000 0.1203614179
H   H19       1.0  0.70020  0.27430  0.90580  1.0000 0.1203614179
H   H20       1.0  0.70530  0.17270  0.79910  1.0000 0.1275665584
H   H21       1.0  0.90450  0.91810  0.72810  1.0000 0.1203614179
H   H22       1.0  0.14270  0.89800  0.78830  1.0000 0.1379965516
H   H23       1.0  0.10950  0.07450  0.58950  1.0000 0.1379965516
H   H24       1.0  0.87450  0.08930  0.53520  1.0000 0.1130661117
H   H25       1.0  0.35400  0.01870  0.72780  1.0000 0.1130661117
H   H26       1.0  0.30740  0.92950  0.67030  1.0000 0.1203614179
H   H27       1.0  0.58870  0.80460  0.95030  1.0000 0.1379965516
H   H28       1.0  0.61440  0.79250  0.05730  1.0000 0.1475531841
H   H29       1.0  0.46030  0.78260  0.96320  1.0000 0.1475531841
H   H30       1.0  0.63000  0.91910  0.14480  1.0000 0.1203614179
H   H31       1.0  0.40970  0.63760  0.31320  1.0000 0.2438469651
H   H32       1.0  0.27990  0.31080  0.12090  1.0000 0.1203614179
H   H33       1.0  0.27380  0.20540  0.22500  1.0000 0.1203614179
H   H34       1.0  0.70020  0.22570  0.40580  1.0000 0.1203614179
H   H35       1.0  0.70530  0.32730  0.29910  1.0000 0.1275665584
H   H36       1.0  0.90450  0.58190  0.22810  1.0000 0.1203614179
H   H37       1.0  0.14270  0.60200  0.28830  1.0000 0.1379965516
H   H38       1.0  0.10950  0.42550  0.08950  1.0000 0.1379965516
H   H39       1.0  0.87450  0.41070  0.03520  1.0000 0.1130661117
H   H40       1.0  0.35400  0.48130  0.22780  1.0000 0.1130661117
H   H41       1.0  0.30740  0.57050  0.17030  1.0000 0.1203614179
H   H42       1.0  0.58870  0.69540  0.45030  1.0000 0.1379965516
H   H43       1.0  0.61440  0.70750  0.55730  1.0000 0.1475531841
H   H44       1.0  0.46030  0.71740  0.46320  1.0000 0.1475531841
H   H45       1.0  0.63000  0.58090  0.64480  1.0000 0.1203614179
H   H46       1.0  0.59030  0.13760  0.18680  1.0000 0.2438469651
H   H47       1.0  0.72010  0.81080  0.37910  1.0000 0.1203614179
H   H48       1.0  0.72620  0.70540  0.27500  1.0000 0.1203614179
H   H49       1.0  0.29980  0.72570  0.09420  1.0000 0.1203614179
H   H50       1.0  0.29470  0.82730  0.20090  1.0000 0.1275665584
H   H51       1.0  0.09550  0.08190  0.27190  1.0000 0.1203614179
H   H52       1.0  0.85730  0.10200  0.21170  1.0000 0.1379965516
H   H53       1.0  0.89050  0.92550  0.41050  1.0000 0.1379965516
H   H54       1.0  0.12550  0.91070  0.46480  1.0000 0.1130661117
H   H55       1.0  0.64600  0.98130  0.27220  1.0000 0.1130661117
H   H56       1.0  0.69260  0.07050  0.32970  1.0000 0.1203614179
H   H57       1.0  0.41130  0.19540  0.04970  1.0000 0.1379965516
H   H58       1.0  0.38560  0.20750  0.94270  1.0000 0.1475531841
H   H59       1.0  0.53970  0.21740  0.03680  1.0000 0.1475531841
H   H60       1.0  0.37000  0.08090  0.85520  1.0000 0.1203614179
C   C1        1.0  0.50252  0.60686  0.87272  1.0000 0.5653552237
C   C2        1.0  0.50673  0.67146  0.80143  1.0000 -0.0228112964
C   C3        1.0  0.63570  0.70737  0.82270  1.0000 -0.1257133415
C   C4        1.0  0.63967  0.77049  0.76007  1.0000 -0.121863675
C   C5        1.0  0.51310  0.79712  0.67510  1.0000 -0.0228112964
C   C6        1.0  0.38400  0.75850  0.65230  1.0000 -0.1257133415
C   C7        1.0  0.38110  0.69698  0.71570  1.0000 -0.121863675
C   C8        1.0  0.51251  0.86899  0.60971  1.0000 0.56374262
C   C9        1.0  0.05390  0.44870  0.80120  1.0000 0.0885356888
C   C10       1.0  0.91050  0.43610  0.76470  1.0000 -0.1918936213
C   C11       1.0  0.84610  0.48087  0.80780  1.0000 0.1475531841
C   C12       1.0  0.93020  0.54040  0.88230  1.0000 -0.2106084404
C   C13       1.0  0.07140  0.54910  0.91430  1.0000 0.0822990509
C   C14       1.0  0.69210  0.46310  0.77730  1.0000 -0.1392695484
C   C15       1.0  0.55620  0.45777  0.59400  1.0000 0.1379965516
C   C16       1.0  0.47658  0.40963  0.50468  1.0000 0.0885356888
C   C17       1.0  0.45090  0.31374  0.50880  1.0000 -0.4453856227
C   C18       1.0  0.42230  0.45161  0.41340  1.0000 -0.264431606
C   C19       1.0  0.49748  0.10686  0.62728  1.0000 0.5653552237
C   C20       1.0  0.49327  0.17146  0.69857  1.0000 -0.0228112964
C   C21       1.0  0.36430  0.20737  0.67730  1.0000 -0.1257133415
C   C22       1.0  0.36033  0.27049  0.73993  1.0000 -0.121863675
C   C23       1.0  0.48690  0.29712  0.82490  1.0000 -0.0228112964
C   C24       1.0  0.61600  0.25850  0.84770  1.0000 -0.1257133415
C   C25       1.0  0.61890  0.19698  0.78430  1.0000 -0.121863675
C   C26       1.0  0.48749  0.36899  0.89029  1.0000 0.56374262
C   C27       1.0  0.94610  0.94870  0.69880  1.0000 0.0885356888
C   C28       1.0  0.08950  0.93610  0.73530  1.0000 -0.1918936213
C   C29       1.0  0.15390  0.98087  0.69220  1.0000 0.1475531841
C   C30       1.0  0.06980  0.04040  0.61770  1.0000 -0.2106084404
C   C31       1.0  0.92860  0.04910  0.58570  1.0000 0.0822990509
C   C32       1.0  0.30790  0.96310  0.72270  1.0000 -0.1392695484
C   C33       1.0  0.44380  0.95777  0.90600  1.0000 0.1379965516
C   C34       1.0  0.52342  0.90963  0.99532  1.0000 0.0885356888
C   C35       1.0  0.54910  0.81374  0.99120  1.0000 -0.4453856227
C   C36       1.0  0.57770  0.95161  0.08660  1.0000 -0.264431606
C   C37       1.0  0.49748  0.39314  0.12728  1.0000 0.5653552237
C   C38       1.0  0.49327  0.32854  0.19857  1.0000 -0.0228112964
C   C39       1.0  0.36430  0.29263  0.17730  1.0000 -0.1257133415
C   C40       1.0  0.36033  0.22951  0.23993  1.0000 -0.121863675
C   C41       1.0  0.48690  0.20288  0.32490  1.0000 -0.0228112964
C   C42       1.0  0.61600  0.24150  0.34770  1.0000 -0.121863675
C   C43       1.0  0.61890  0.30302  0.28430  1.0000 -0.121863675
C   C44       1.0  0.48749  0.13101  0.39029  1.0000 0.56374262
C   C45       1.0  0.94610  0.55130  0.19880  1.0000 0.0885356888
C   C46       1.0  0.08950  0.56390  0.23530  1.0000 -0.1918936213
C   C47       1.0  0.15390  0.51913  0.19220  1.0000 0.1475531841
C   C48       1.0  0.06980  0.45960  0.11770  1.0000 -0.2106084404
C   C49       1.0  0.92860  0.45090  0.08570  1.0000 0.0822990509
C   C50       1.0  0.30790  0.53690  0.22270  1.0000 -0.1392695484
C   C51       1.0  0.44380  0.54223  0.40600  1.0000 0.1379965516
C   C52       1.0  0.52342  0.59037  0.49532  1.0000 0.0885356888
C   C53       1.0  0.54910  0.68626  0.49120  1.0000 -0.4453856227
C   C54       1.0  0.57770  0.54839  0.58660  1.0000 -0.264431606
C   C55       1.0  0.50252  0.89314  0.37272  1.0000 0.5653552237
C   C56       1.0  0.50673  0.82854  0.30143  1.0000 -0.0228112964
C   C57       1.0  0.63570  0.79263  0.32270  1.0000 -0.1257133415
C   C58       1.0  0.63967  0.72951  0.26007  1.0000 -0.121863675
C   C59       1.0  0.51310  0.70288  0.17510  1.0000 -0.0228112964
C   C60       1.0  0.38400  0.74150  0.15230  1.0000 -0.1257133415
C   C61       1.0  0.38110  0.80302  0.21570  1.0000 -0.121863675
C   C62       1.0  0.51251  0.63101  0.10971  1.0000 0.56374262
C   C63       1.0  0.05390  0.05130  0.30120  1.0000 0.0885356888
C   C64       1.0  0.91050  0.06390  0.26470  1.0000 -0.1918936213
C   C65       1.0  0.84610  0.01913  0.30780  1.0000 0.1475531841
C   C66       1.0  0.93020  0.95960  0.38230  1.0000 -0.2106084404
C   C67       1.0  0.07140  0.95090  0.41430  1.0000 0.0822990509
C   C68       1.0  0.69210  0.03690  0.27730  1.0000 -0.1392695484
C   C69       1.0  0.55620  0.04223  0.09400  1.0000 0.1379965516
C   C70       1.0  0.47658  0.09037  0.00468  1.0000 0.0885356888
C   C71       1.0  0.45090  0.18626  0.00880  1.0000 -0.4444993017
C   C72       1.0  0.42230  0.04839  0.91340  1.0000 -0.264431606
N   N1        1.0  0.13610  0.50311  0.87710  1.0000 -0.2319555459
N   N2        1.0  0.60858  0.41697  0.68538  1.0000 -0.3299480555
N   N3        1.0  0.86390  0.00311  0.62290  1.0000 -0.2319555459
N   N4        1.0  0.39142  0.91697  0.81462  1.0000 -0.3299480555
N   N5        1.0  0.86390  0.49689  0.12290  1.0000 -0.2319555459
N   N6        1.0  0.39142  0.58303  0.31462  1.0000 -0.3299480555
N   N7        1.0  0.13610  0.99689  0.37710  1.0000 -0.2319555459
N   N8        1.0  0.60858  0.08303  0.18538  1.0000 -0.3299480555
O   O1        1.0  0.38091  0.58369  0.85411  1.0000 -0.5392527757
O   O2        1.0  0.62008  0.58117  0.94525  1.0000 -0.5502970396
O   O3        1.0  0.63202  0.89877  0.63064  1.0000 -0.5392527757
O   O4        1.0  0.39364  0.89570  0.54005  1.0000 -0.5574992476
O   O5        1.0  0.61909  0.08369  0.64589  1.0000 -0.5392527757
O   O6        1.0  0.37992  0.08117  0.55475  1.0000 -0.5502970396
O   O7        1.0  0.36798  0.39877  0.86936  1.0000 -0.5392527757
O   O8        1.0  0.60636  0.39570  0.95995  1.0000 -0.5574992476
O   O9        1.0  0.61909  0.41631  0.14589  1.0000 -0.5392527757
O   O10       1.0  0.37992  0.41883  0.05475  1.0000 -0.5502970396
O   O11       1.0  0.36798  0.10123  0.36936  1.0000 -0.5392527757
O   O12       1.0  0.60636  0.10430  0.45995  1.0000 -0.5574992476
O   O13       1.0  0.38091  0.91631  0.35411  1.0000 -0.5392527757
O   O14       1.0  0.62008  0.91883  0.44525  1.0000 -0.5502970396
O   O15       1.0  0.63202  0.60123  0.13064  1.0000 -0.5392527757
O   O16       1.0  0.39364  0.60430  0.04005  1.0000 -0.5574992476
