# DDEC6 charges by PACMAN v1.1 (https://github.com/mtap-research/PACMAN-charge/)
data_2019[Mn][nan]3[ASR]2
_chemical_formula_sum              "Mn12 H56 C88 S12 O56"
_cell_length_a       12.8279
_cell_length_b       17.1897
_cell_length_c       20.8119
_cell_angle_alpha    90
_cell_angle_beta     121.748
_cell_angle_gamma    90

_symmetry_space_group_name_H-M    "P 1"
_symmetry_Int_Tables_number       1

loop_
  _symmetry_equiv_pos_as_xyz
  'x, y, z'

loop_
  _atom_site_type_symbol
  _atom_site_label
  _atom_site_symmetry_multiplicity
  _atom_site_fract_x
  _atom_site_fract_y
  _atom_site_fract_z
  _atom_site_occupancy
  _atom_site_charge
Mn  Mn1       1.0  0.72671  0.32117  0.23218  1.0000 1.1038376389
Mn  Mn2       1.0  0.05675  0.31743  0.43261  1.0000 1.0262935656
Mn  Mn3       1.0  0.42503  0.34796  0.07815  1.0000 0.9526144761
Mn  Mn4       1.0  0.27329  0.82117  0.26782  1.0000 1.1055734056
Mn  Mn5       1.0  0.94325  0.81743  0.06739  1.0000 1.0262935656
Mn  Mn6       1.0  0.57497  0.84796  0.42185  1.0000 0.9526144761
Mn  Mn7       1.0  0.27329  0.67883  0.76782  1.0000 1.1038376389
Mn  Mn8       1.0  0.94325  0.68257  0.56739  1.0000 1.0262935656
Mn  Mn9       1.0  0.57497  0.65204  0.92185  1.0000 0.9526144761
Mn  Mn10      1.0  0.72671  0.17883  0.73218  1.0000 1.1038376389
Mn  Mn11      1.0  0.05675  0.18257  0.93261  1.0000 1.0262935656
Mn  Mn12      1.0  0.42503  0.15204  0.57815  1.0000 0.9526144761
H   H1        1.0  0.18200  0.50090  0.36110  1.0000 0.1310546495
H   H2        1.0  0.22240  0.62040  0.31500  1.0000 0.1407058485
H   H3        1.0  0.54540  0.33160  0.33820  1.0000 0.1407058485
H   H4        1.0  0.45140  0.29540  0.40970  1.0000 0.1310546495
H   H5        1.0  0.71950  0.50310  0.30290  1.0000 0.1407058485
H   H6        1.0  0.73400  0.62650  0.36430  1.0000 0.118007009
H   H7        1.0  0.98610  0.38740  0.55330  1.0000 0.1101782839
H   H8        1.0  0.06980  0.45920  0.59640  1.0000 0.1044840562
H   H9        1.0  0.16090  0.53080  0.53950  1.0000 0.1101782839
H   H10       1.0  0.13520  0.50490  0.46010  1.0000 0.1101782839
H   H11       1.0  0.47470  0.44250  0.91860  1.0000 0.1101782839
H   H12       1.0  0.35970  0.41140  0.91880  1.0000 0.1101782839
H   H13       1.0  0.66490  0.45730  0.11110  1.0000 0.118007009
H   H14       1.0  0.65860  0.47000  0.03440  1.0000 0.118007009
H   H15       1.0  0.81800  0.00090  0.13890  1.0000 0.1310546495
H   H16       1.0  0.77760  0.12040  0.18500  1.0000 0.1407058485
H   H17       1.0  0.45460  0.83160  0.16180  1.0000 0.1407058485
H   H18       1.0  0.54860  0.79540  0.09030  1.0000 0.1310546495
H   H19       1.0  0.28050  0.00310  0.19710  1.0000 0.1407058485
H   H20       1.0  0.26600  0.12650  0.13570  1.0000 0.118007009
H   H21       1.0  0.01390  0.88740  0.94670  1.0000 0.1101782839
H   H22       1.0  0.93020  0.95920  0.90360  1.0000 0.1044840562
H   H23       1.0  0.83910  0.03080  0.96050  1.0000 0.1101782839
H   H24       1.0  0.86480  0.00490  0.03990  1.0000 0.1101782839
H   H25       1.0  0.52530  0.94250  0.58140  1.0000 0.1101782839
H   H26       1.0  0.64030  0.91140  0.58120  1.0000 0.1101782839
H   H27       1.0  0.33510  0.95730  0.38890  1.0000 0.118007009
H   H28       1.0  0.34140  0.97000  0.46560  1.0000 0.118007009
H   H29       1.0  0.81800  0.49910  0.63890  1.0000 0.1310546495
H   H30       1.0  0.77760  0.37960  0.68500  1.0000 0.1407058485
H   H31       1.0  0.45460  0.66840  0.66180  1.0000 0.1407058485
H   H32       1.0  0.54860  0.70460  0.59030  1.0000 0.1310546495
H   H33       1.0  0.28050  0.49690  0.69710  1.0000 0.1407058485
H   H34       1.0  0.26600  0.37350  0.63570  1.0000 0.118007009
H   H35       1.0  0.01390  0.61260  0.44670  1.0000 0.1101782839
H   H36       1.0  0.93020  0.54080  0.40360  1.0000 0.1044840562
H   H37       1.0  0.83910  0.46920  0.46050  1.0000 0.1101782839
H   H38       1.0  0.86480  0.49510  0.53990  1.0000 0.1101782839
H   H39       1.0  0.52530  0.55750  0.08140  1.0000 0.1101782839
H   H40       1.0  0.64030  0.58860  0.08120  1.0000 0.1101782839
H   H41       1.0  0.33510  0.54270  0.88890  1.0000 0.118007009
H   H42       1.0  0.34140  0.53000  0.96560  1.0000 0.118007009
H   H43       1.0  0.18200  0.99910  0.86110  1.0000 0.1310546495
H   H44       1.0  0.22240  0.87960  0.81500  1.0000 0.1407058485
H   H45       1.0  0.54540  0.16840  0.83820  1.0000 0.1407058485
H   H46       1.0  0.45140  0.20460  0.90970  1.0000 0.1310546495
H   H47       1.0  0.71950  0.99690  0.80290  1.0000 0.1407058485
H   H48       1.0  0.73400  0.87350  0.86430  1.0000 0.118007009
H   H49       1.0  0.98610  0.11260  0.05330  1.0000 0.1101782839
H   H50       1.0  0.06980  0.04080  0.09640  1.0000 0.1044840562
H   H51       1.0  0.16090  0.96920  0.03950  1.0000 0.1101782839
H   H52       1.0  0.13520  0.99510  0.96010  1.0000 0.1101782839
H   H53       1.0  0.47470  0.05750  0.41860  1.0000 0.1101782839
H   H54       1.0  0.35970  0.08860  0.41880  1.0000 0.1101782839
H   H55       1.0  0.66490  0.04270  0.61110  1.0000 0.118007009
H   H56       1.0  0.65860  0.03000  0.53440  1.0000 0.118007009
C   C1        1.0  0.95113  0.43100  0.28622  1.0000 0.6050410765
C   C2        1.0  0.00626  0.50104  0.27324  1.0000 -0.1283801439
C   C3        1.0  0.12310  0.52653  0.31750  1.0000 -0.1283801439
C   C4        1.0  0.14670  0.59560  0.29095  1.0000 -0.1104117436
C   C5        1.0  0.04626  0.62203  0.22623  1.0000 -0.1104117436
C   C6        1.0  0.04217  0.69475  0.18642  1.0000 0.6011437374
C   C7        1.0  0.79762  0.31451  0.39986  1.0000 0.5927654254
C   C8        1.0  0.71237  0.29862  0.42567  1.0000 -0.1372028281
C   C9        1.0  0.58910  0.31150  0.38692  1.0000 -0.1152308312
C   C10       1.0  0.53490  0.29119  0.42836  1.0000 -0.1104117436
C   C11       1.0  0.61838  0.26476  0.49875  1.0000 -0.1283801439
C   C12       1.0  0.59360  0.23817  0.55677  1.0000 0.5826286497
C   C13       1.0  0.49494  0.45478  0.17816  1.0000 0.5826286497
C   C14       1.0  0.53746  0.51974  0.23112  1.0000 -0.1372028281
C   C15       1.0  0.65300  0.53568  0.28856  1.0000 -0.1104117436
C   C16       1.0  0.66120  0.60674  0.32413  1.0000 -0.1283801439
C   C17       1.0  0.55101  0.64359  0.29335  1.0000 -0.1104117436
C   C18       1.0  0.51970  0.71917  0.31304  1.0000 0.6011437374
C   C19       1.0  0.01060  0.43870  0.54676  1.0000 -0.0505032506
C   C20       1.0  0.09970  0.50879  0.49115  1.0000 -0.0505032506
C   C21       1.0  0.43010  0.44575  0.94438  1.0000 -0.0589673816
C   C22       1.0  0.61190  0.47305  0.05881  1.0000 -0.0589673816
C   C23       1.0  0.04887  0.93100  0.21378  1.0000 0.6050410765
C   C24       1.0  0.99374  0.00104  0.22676  1.0000 -0.1283801439
C   C25       1.0  0.87690  0.02653  0.18250  1.0000 -0.1283801439
C   C26       1.0  0.85330  0.09560  0.20905  1.0000 -0.1104117436
C   C27       1.0  0.95374  0.12203  0.27377  1.0000 -0.1104117436
C   C28       1.0  0.95783  0.19475  0.31358  1.0000 0.6011437374
C   C29       1.0  0.20238  0.81451  0.10014  1.0000 0.5927654254
C   C30       1.0  0.28763  0.79862  0.07433  1.0000 -0.1372028281
C   C31       1.0  0.41090  0.81150  0.11308  1.0000 -0.1152308312
C   C32       1.0  0.46510  0.79119  0.07164  1.0000 -0.1104117436
C   C33       1.0  0.38162  0.76476  0.00125  1.0000 -0.1283801439
C   C34       1.0  0.40640  0.73817  0.94323  1.0000 0.5826286497
C   C35       1.0  0.50506  0.95478  0.32184  1.0000 0.5826286497
C   C36       1.0  0.46254  0.01974  0.26888  1.0000 -0.1372028281
C   C37       1.0  0.34700  0.03568  0.21144  1.0000 -0.1104117436
C   C38       1.0  0.33880  0.10674  0.17587  1.0000 -0.1283801439
C   C39       1.0  0.44899  0.14359  0.20665  1.0000 -0.1104117436
C   C40       1.0  0.48030  0.21917  0.18696  1.0000 0.6011437374
C   C41       1.0  0.98940  0.93870  0.95324  1.0000 -0.0505032506
C   C42       1.0  0.90030  0.00879  0.00885  1.0000 -0.0505032506
C   C43       1.0  0.56990  0.94575  0.55562  1.0000 -0.0589673816
C   C44       1.0  0.38810  0.97305  0.44119  1.0000 -0.0589673816
C   C45       1.0  0.04887  0.56900  0.71378  1.0000 0.6050410765
C   C46       1.0  0.99374  0.49896  0.72676  1.0000 -0.1283801439
C   C47       1.0  0.87690  0.47347  0.68250  1.0000 -0.1283801439
C   C48       1.0  0.85330  0.40440  0.70905  1.0000 -0.1104117436
C   C49       1.0  0.95374  0.37797  0.77377  1.0000 -0.1104117436
C   C50       1.0  0.95783  0.30525  0.81358  1.0000 0.6011437374
C   C51       1.0  0.20238  0.68549  0.60014  1.0000 0.5927654254
C   C52       1.0  0.28763  0.70138  0.57433  1.0000 -0.1372028281
C   C53       1.0  0.41090  0.68850  0.61308  1.0000 -0.1152308312
C   C54       1.0  0.46510  0.70881  0.57164  1.0000 -0.1104117436
C   C55       1.0  0.38162  0.73524  0.50125  1.0000 -0.1283801439
C   C56       1.0  0.40640  0.76183  0.44323  1.0000 0.5826286497
C   C57       1.0  0.50506  0.54522  0.82184  1.0000 0.5826286497
C   C58       1.0  0.46254  0.48026  0.76888  1.0000 -0.1372028281
C   C59       1.0  0.34700  0.46432  0.71144  1.0000 -0.1104117436
C   C60       1.0  0.33880  0.39326  0.67587  1.0000 -0.1283801439
C   C61       1.0  0.44899  0.35641  0.70665  1.0000 -0.1104117436
C   C62       1.0  0.48030  0.28083  0.68696  1.0000 0.6011437374
C   C63       1.0  0.98940  0.56130  0.45324  1.0000 -0.0505032506
C   C64       1.0  0.90030  0.49121  0.50885  1.0000 -0.0505032506
C   C65       1.0  0.56990  0.55425  0.05562  1.0000 -0.0589673816
C   C66       1.0  0.38810  0.52695  0.94119  1.0000 -0.0589673816
C   C67       1.0  0.95113  0.06900  0.78622  1.0000 0.6050410765
C   C68       1.0  0.00626  0.99896  0.77324  1.0000 -0.1283801439
C   C69       1.0  0.12310  0.97347  0.81750  1.0000 -0.1283801439
C   C70       1.0  0.14670  0.90440  0.79095  1.0000 -0.1104117436
C   C71       1.0  0.04626  0.87797  0.72623  1.0000 -0.1104117436
C   C72       1.0  0.04217  0.80525  0.68642  1.0000 0.6011437374
C   C73       1.0  0.79762  0.18549  0.89986  1.0000 0.5927654254
C   C74       1.0  0.71237  0.20138  0.92567  1.0000 -0.1372028281
C   C75       1.0  0.58910  0.18850  0.88692  1.0000 -0.1152308312
C   C76       1.0  0.53490  0.20881  0.92836  1.0000 -0.1104117436
C   C77       1.0  0.61838  0.23524  0.99875  1.0000 -0.1283801439
C   C78       1.0  0.59360  0.26183  0.05677  1.0000 0.5826286497
C   C79       1.0  0.49494  0.04522  0.67816  1.0000 0.5826286497
C   C80       1.0  0.53746  0.98026  0.73112  1.0000 -0.1372028281
C   C81       1.0  0.65300  0.96432  0.78856  1.0000 -0.1104117436
C   C82       1.0  0.66120  0.89326  0.82413  1.0000 -0.1283801439
C   C83       1.0  0.55101  0.85641  0.79335  1.0000 -0.1104117436
C   C84       1.0  0.51970  0.78083  0.81304  1.0000 0.6011437374
C   C85       1.0  0.01060  0.06130  0.04676  1.0000 -0.0505032506
C   C86       1.0  0.09970  0.99121  0.99115  1.0000 -0.0505032506
C   C87       1.0  0.43010  0.05425  0.44438  1.0000 -0.0589673816
C   C88       1.0  0.61190  0.02695  0.55881  1.0000 -0.0589673816
S   S1        1.0  0.92249  0.56122  0.19684  1.0000 0.1310546495
S   S2        1.0  0.76370  0.26193  0.51411  1.0000 0.1512087482
S   S3        1.0  0.43608  0.59104  0.22050  1.0000 0.1799606132
S   S4        1.0  0.07751  0.06122  0.30316  1.0000 0.1310546495
S   S5        1.0  0.23630  0.76193  0.98589  1.0000 0.1512087482
S   S6        1.0  0.56392  0.09104  0.27950  1.0000 0.1799606132
S   S7        1.0  0.07751  0.43878  0.80316  1.0000 0.1310546495
S   S8        1.0  0.23630  0.73807  0.48589  1.0000 0.1512087482
S   S9        1.0  0.56392  0.40896  0.77950  1.0000 0.1799606132
S   S10       1.0  0.92249  0.93878  0.69684  1.0000 0.1310546495
S   S11       1.0  0.76370  0.23807  0.01411  1.0000 0.1512087482
S   S12       1.0  0.43608  0.90896  0.72050  1.0000 0.1799606132
O   O1        1.0  0.84424  0.41251  0.23604  1.0000 -0.5505639677
O   O2        1.0  0.01962  0.39672  0.34798  1.0000 -0.57582214
O   O3        1.0  0.94410  0.71177  0.12458  1.0000 -0.588563661
O   O4        1.0  0.13652  0.73496  0.21660  1.0000 -0.5505639677
O   O5        1.0  0.75730  0.35194  0.33985  1.0000 -0.5585496043
O   O6        1.0  0.90565  0.29025  0.44187  1.0000 -0.5710020912
O   O7        1.0  0.48218  0.24310  0.53882  1.0000 -0.5505639677
O   O8        1.0  0.67991  0.21137  0.61743  1.0000 -0.5585496043
O   O9        1.0  0.57181  0.40566  0.18156  1.0000 -0.5585496043
O   O10       1.0  0.38347  0.44981  0.12774  1.0000 -0.5376904112
O   O11       1.0  0.60920  0.76073  0.36208  1.0000 -0.5585496043
O   O12       1.0  0.40981  0.73638  0.28114  1.0000 -0.5505639677
O   O13       1.0  0.06622  0.43276  0.50256  1.0000 -0.2103443098
O   O14       1.0  0.50776  0.42151  0.02142  1.0000 -0.2103443098
O   O15       1.0  0.15576  0.91251  0.26396  1.0000 -0.5505639677
O   O16       1.0  0.98038  0.89672  0.15202  1.0000 -0.57582214
O   O17       1.0  0.05590  0.21177  0.37542  1.0000 -0.588563661
O   O18       1.0  0.86348  0.23496  0.28340  1.0000 -0.5505639677
O   O19       1.0  0.24270  0.85194  0.16015  1.0000 -0.5585496043
O   O20       1.0  0.09435  0.79025  0.05813  1.0000 -0.5710020912
O   O21       1.0  0.51782  0.74310  0.96118  1.0000 -0.5505639677
O   O22       1.0  0.32009  0.71137  0.88257  1.0000 -0.5585496043
O   O23       1.0  0.42819  0.90566  0.31844  1.0000 -0.5585496043
O   O24       1.0  0.61653  0.94981  0.37226  1.0000 -0.5376904112
O   O25       1.0  0.39080  0.26073  0.13792  1.0000 -0.5585496043
O   O26       1.0  0.59019  0.23638  0.21886  1.0000 -0.5505639677
O   O27       1.0  0.93378  0.93276  0.99744  1.0000 -0.2103443098
O   O28       1.0  0.49224  0.92151  0.47858  1.0000 -0.2103443098
O   O29       1.0  0.15576  0.58749  0.76396  1.0000 -0.5505639677
O   O30       1.0  0.98038  0.60328  0.65202  1.0000 -0.57582214
O   O31       1.0  0.05590  0.28823  0.87542  1.0000 -0.588563661
O   O32       1.0  0.86348  0.26504  0.78340  1.0000 -0.5505639677
O   O33       1.0  0.24270  0.64806  0.66015  1.0000 -0.5585496043
O   O34       1.0  0.09435  0.70975  0.55813  1.0000 -0.5710020912
O   O35       1.0  0.51782  0.75690  0.46118  1.0000 -0.5505639677
O   O36       1.0  0.32009  0.78863  0.38257  1.0000 -0.5585496043
O   O37       1.0  0.42819  0.59434  0.81844  1.0000 -0.5585496043
O   O38       1.0  0.61653  0.55019  0.87226  1.0000 -0.5376904112
O   O39       1.0  0.39080  0.23927  0.63792  1.0000 -0.5585496043
O   O40       1.0  0.59019  0.26362  0.71886  1.0000 -0.5505639677
O   O41       1.0  0.93378  0.56724  0.49744  1.0000 -0.2103443098
O   O42       1.0  0.49224  0.57849  0.97858  1.0000 -0.2103443098
O   O43       1.0  0.84424  0.08749  0.73604  1.0000 -0.5505639677
O   O44       1.0  0.01962  0.10328  0.84798  1.0000 -0.57582214
O   O45       1.0  0.94410  0.78823  0.62458  1.0000 -0.588563661
O   O46       1.0  0.13652  0.76504  0.71660  1.0000 -0.5505639677
O   O47       1.0  0.75730  0.14806  0.83985  1.0000 -0.5585496043
O   O48       1.0  0.90565  0.20975  0.94187  1.0000 -0.5710020912
O   O49       1.0  0.48218  0.25690  0.03882  1.0000 -0.5505639677
O   O50       1.0  0.67991  0.28863  0.11743  1.0000 -0.5585496043
O   O51       1.0  0.57181  0.09434  0.68156  1.0000 -0.5585496043
O   O52       1.0  0.38347  0.05019  0.62774  1.0000 -0.5376904112
O   O53       1.0  0.60920  0.73927  0.86208  1.0000 -0.5585496043
O   O54       1.0  0.40981  0.76362  0.78114  1.0000 -0.5505639677
O   O55       1.0  0.06622  0.06724  0.00256  1.0000 -0.2103443098
O   O56       1.0  0.50776  0.07849  0.52142  1.0000 -0.2103443098
