# DDEC6 charges by PACMAN v1.1 (https://github.com/mtap-research/PACMAN-charge/)
data_2019[Co][sql]2[ASR]4
_chemical_formula_sum              "Co2 H32 C44 S4 N12"
_cell_length_a       11.3935
_cell_length_b       16.1032
_cell_length_c       16.2993
_cell_angle_alpha    90
_cell_angle_beta     125.913
_cell_angle_gamma    90

_symmetry_space_group_name_H-M    "P 1"
_symmetry_Int_Tables_number       1

loop_
  _symmetry_equiv_pos_as_xyz
  'x, y, z'

loop_
  _atom_site_type_symbol
  _atom_site_label
  _atom_site_symmetry_multiplicity
  _atom_site_fract_x
  _atom_site_fract_y
  _atom_site_fract_z
  _atom_site_occupancy
  _atom_site_charge
Co  Co1       1.0  0.00000  0.50000  0.50000  1.0000 0.634496954
Co  Co2       1.0  0.00000  0.00000  0.00000  1.0000 0.6388060718
H   H1        1.0  0.22360  0.38420  0.68770  1.0000 0.1017096272
H   H2        1.0  0.23200  0.28570  0.79210  1.0000 0.1259046772
H   H3        1.0  0.80320  0.32370  0.65470  1.0000 0.1259046772
H   H4        1.0  0.80700  0.42010  0.55250  1.0000 0.1066564476
H   H5        1.0  0.22170  0.23990  0.92580  1.0000 0.1259046772
H   H6        1.0  0.20740  0.13640  0.01690  1.0000 0.1017096272
H   H7        1.0  0.80610  0.08450  0.78810  1.0000 0.1017096272
H   H8        1.0  0.80830  0.18670  0.69200  1.0000 0.1259046772
H   H9        1.0  0.77640  0.88420  0.81230  1.0000 0.1017096272
H   H10       1.0  0.76800  0.78570  0.70790  1.0000 0.1259046772
H   H11       1.0  0.19680  0.82370  0.84530  1.0000 0.1245826005
H   H12       1.0  0.19300  0.92010  0.94750  1.0000 0.1066564476
H   H13       1.0  0.77830  0.73990  0.57420  1.0000 0.1259046772
H   H14       1.0  0.79260  0.63640  0.48310  1.0000 0.1017096272
H   H15       1.0  0.19390  0.58450  0.71190  1.0000 0.1017096272
H   H16       1.0  0.19170  0.68670  0.80800  1.0000 0.1259046772
H   H17       1.0  0.77640  0.61580  0.31230  1.0000 0.1017096272
H   H18       1.0  0.76800  0.71430  0.20790  1.0000 0.1259046772
H   H19       1.0  0.19680  0.67630  0.34530  1.0000 0.1259046772
H   H20       1.0  0.19300  0.57990  0.44750  1.0000 0.1066564476
H   H21       1.0  0.77830  0.76010  0.07420  1.0000 0.1259046772
H   H22       1.0  0.79260  0.86360  0.98310  1.0000 0.1017096272
H   H23       1.0  0.19390  0.91550  0.21190  1.0000 0.1017096272
H   H24       1.0  0.19170  0.81330  0.30800  1.0000 0.1259046772
H   H25       1.0  0.22360  0.11580  0.18770  1.0000 0.1017096272
H   H26       1.0  0.23200  0.21430  0.29210  1.0000 0.1259046772
H   H27       1.0  0.80320  0.17630  0.15470  1.0000 0.1259046772
H   H28       1.0  0.80700  0.07990  0.05250  1.0000 0.1066564476
H   H29       1.0  0.22170  0.26010  0.42580  1.0000 0.1259046772
H   H30       1.0  0.20740  0.36360  0.51690  1.0000 0.1017096272
H   H31       1.0  0.80610  0.41550  0.28810  1.0000 0.1017096272
H   H32       1.0  0.80830  0.31330  0.19200  1.0000 0.1259046772
C   C1        1.0  0.13650  0.37090  0.68010  1.0000 0.0660714774
C   C2        1.0  0.14280  0.31230  0.74300  1.0000 -0.1954226525
C   C3        1.0  0.01670  0.29160  0.73470  1.0000 0.1017096272
C   C4        1.0  0.89110  0.33440  0.66220  1.0000 -0.1954226525
C   C5        1.0  0.89450  0.39200  0.60160  1.0000 0.085046482
C   C6        1.0  0.01540  0.22660  0.79830  1.0000 0.1017096272
C   C7        1.0  0.13470  0.20910  0.89620  1.0000 -0.1910060824
C   C8        1.0  0.12540  0.14680  0.94970  1.0000 0.0779614166
C   C9        1.0  0.89160  0.11660  0.81660  1.0000 0.0779614166
C   C10       1.0  0.89190  0.17750  0.75900  1.0000 -0.1910060824
C   C11       1.0  0.34530  0.52130  0.65620  1.0000 0.208445408
C   C12       1.0  0.86350  0.87090  0.81990  1.0000 0.0660714774
C   C13       1.0  0.85720  0.81230  0.75700  1.0000 -0.1954226525
C   C14       1.0  0.98330  0.79160  0.76530  1.0000 0.1017096272
C   C15       1.0  0.10890  0.83440  0.83780  1.0000 -0.1954226525
C   C16       1.0  0.10550  0.89200  0.89840  1.0000 0.085046482
C   C17       1.0  0.98460  0.72660  0.70170  1.0000 0.1017096272
C   C18       1.0  0.86530  0.70910  0.60380  1.0000 -0.1910060824
C   C19       1.0  0.87460  0.64680  0.55030  1.0000 0.0779614166
C   C20       1.0  0.10840  0.61660  0.68340  1.0000 0.0779614166
C   C21       1.0  0.10810  0.67750  0.74100  1.0000 -0.1910060824
C   C22       1.0  0.65470  0.02130  0.84380  1.0000 0.208445408
C   C23       1.0  0.86350  0.62910  0.31990  1.0000 0.0660714774
C   C24       1.0  0.85720  0.68770  0.25700  1.0000 -0.1954226525
C   C25       1.0  0.98330  0.70840  0.26530  1.0000 0.1017096272
C   C26       1.0  0.10890  0.66560  0.33780  1.0000 -0.1954226525
C   C27       1.0  0.10550  0.60800  0.39840  1.0000 0.085046482
C   C28       1.0  0.98460  0.77340  0.20170  1.0000 0.1017096272
C   C29       1.0  0.86530  0.79090  0.10380  1.0000 -0.1910060824
C   C30       1.0  0.87460  0.85320  0.05030  1.0000 0.0779614166
C   C31       1.0  0.10840  0.88340  0.18340  1.0000 0.0779614166
C   C32       1.0  0.10810  0.82250  0.24100  1.0000 -0.1910060824
C   C33       1.0  0.65470  0.47870  0.34380  1.0000 0.208445408
C   C34       1.0  0.13650  0.12910  0.18010  1.0000 0.0660714774
C   C35       1.0  0.14280  0.18770  0.24300  1.0000 -0.1954226525
C   C36       1.0  0.01670  0.20840  0.23470  1.0000 0.1017096272
C   C37       1.0  0.89110  0.16560  0.16220  1.0000 -0.1954226525
C   C38       1.0  0.89450  0.10800  0.10160  1.0000 0.085046482
C   C39       1.0  0.01540  0.27340  0.29830  1.0000 0.1017096272
C   C40       1.0  0.13470  0.29090  0.39620  1.0000 -0.1910060824
C   C41       1.0  0.12540  0.35320  0.44970  1.0000 0.0779614166
C   C42       1.0  0.89160  0.38340  0.31660  1.0000 0.0779614166
C   C43       1.0  0.89190  0.32250  0.25900  1.0000 -0.1910060824
C   C44       1.0  0.34530  0.97870  0.15620  1.0000 0.208445408
S   S1        1.0  0.51191  0.54143  0.75135  1.0000 -0.2784435929
S   S2        1.0  0.48809  0.04143  0.74865  1.0000 -0.2784435929
S   S3        1.0  0.48809  0.45857  0.24865  1.0000 -0.2784435929
S   S4        1.0  0.51191  0.95857  0.25135  1.0000 -0.2784435929
N   N1        1.0  0.01380  0.41120  0.60750  1.0000 -0.2173608945
N   N2        1.0  0.00610  0.09930  0.91220  1.0000 -0.2173608945
N   N3        1.0  0.22550  0.50680  0.59010  1.0000 -0.4662818791
N   N4        1.0  0.98620  0.91120  0.89250  1.0000 -0.2173608945
N   N5        1.0  0.99390  0.59930  0.58780  1.0000 -0.2173608945
N   N6        1.0  0.77450  0.00680  0.90990  1.0000 -0.4662818791
N   N7        1.0  0.98620  0.58880  0.39250  1.0000 -0.2173608945
N   N8        1.0  0.99390  0.90070  0.08780  1.0000 -0.2173608945
N   N9        1.0  0.77450  0.49320  0.40990  1.0000 -0.4662818791
N   N10       1.0  0.01380  0.08880  0.10750  1.0000 -0.2173608945
N   N11       1.0  0.00610  0.40070  0.41220  1.0000 -0.2173608945
N   N12       1.0  0.22550  0.99320  0.09010  1.0000 -0.4662818791
