# DDEC6 charges by PACMAN v1.1 (https://github.com/mtap-research/PACMAN-charge/)
data_2019[Zn][raa]3[ASR]3
_chemical_formula_sum              "Zn8 H56 C56 N48 O4"
_cell_length_a       10.5156
_cell_length_b       12.519
_cell_length_c       19.4137
_cell_angle_alpha    90
_cell_angle_beta     117.004
_cell_angle_gamma    90

_symmetry_space_group_name_H-M    "P 1"
_symmetry_Int_Tables_number       1

loop_
  _symmetry_equiv_pos_as_xyz
  'x, y, z'

loop_
  _atom_site_type_symbol
  _atom_site_label
  _atom_site_symmetry_multiplicity
  _atom_site_fract_x
  _atom_site_fract_y
  _atom_site_fract_z
  _atom_site_occupancy
  _atom_site_charge
Zn  Zn1       1.0  0.87401  0.73284  0.60700  1.0000 0.6721587169
Zn  Zn2       1.0  0.24470  0.74260  0.45458  1.0000 0.6721587169
Zn  Zn3       1.0  0.12599  0.23284  0.89300  1.0000 0.6721587169
Zn  Zn4       1.0  0.75530  0.24260  0.04542  1.0000 0.6721587169
Zn  Zn5       1.0  0.12599  0.26716  0.39300  1.0000 0.6721587169
Zn  Zn6       1.0  0.75530  0.25740  0.54542  1.0000 0.6721587169
Zn  Zn7       1.0  0.87401  0.76716  0.10700  1.0000 0.6721587169
Zn  Zn8       1.0  0.24470  0.75740  0.95458  1.0000 0.6721587169
H   H1        1.0  0.18320  0.59240  0.29420  1.0000 0.1612181555
H   H2        1.0  0.10990  0.62590  0.20690  1.0000 0.1416394189
H   H3        1.0  0.25650  0.67660  0.26400  1.0000 0.1612181555
H   H4        1.0  0.87710  0.94360  0.36300  1.0000 0.1612181555
H   H5        1.0  0.03800  0.97780  0.40090  1.0000 0.1514719713
H   H6        1.0  0.19400  0.69060  0.66430  1.0000 0.1416394189
H   H7        1.0  0.24510  0.64100  0.60700  1.0000 0.1612181555
H   H8        1.0  0.30830  0.75020  0.64770  1.0000 0.1686176646
H   H9        1.0  0.77250  0.98890  0.64040  1.0000 0.1416394189
H   H10       1.0  0.64610  0.00070  0.66170  1.0000 0.1612181555
H   H11       1.0  0.76310  0.91300  0.70220  1.0000 0.1514719713
H   H12       1.0  0.03840  0.50630  0.67670  1.0000 0.1612181555
H   H13       1.0  0.02320  0.39120  0.64200  1.0000 0.1514719713
H   H14       1.0  0.07400  0.48590  0.60770  1.0000 0.1612181555
H   H15       1.0  0.81680  0.09240  0.20580  1.0000 0.1612181555
H   H16       1.0  0.89010  0.12590  0.29310  1.0000 0.1416394189
H   H17       1.0  0.74350  0.17660  0.23600  1.0000 0.1612181555
H   H18       1.0  0.12290  0.44360  0.13700  1.0000 0.1612181555
H   H19       1.0  0.96200  0.47780  0.09910  1.0000 0.1514719713
H   H20       1.0  0.80600  0.19060  0.83570  1.0000 0.1416394189
H   H21       1.0  0.75490  0.14100  0.89300  1.0000 0.1612181555
H   H22       1.0  0.69170  0.25020  0.85230  1.0000 0.1686176646
H   H23       1.0  0.22750  0.48890  0.85960  1.0000 0.1416394189
H   H24       1.0  0.35390  0.50070  0.83830  1.0000 0.1612181555
H   H25       1.0  0.23690  0.41300  0.79780  1.0000 0.1514719713
H   H26       1.0  0.96160  0.00630  0.82330  1.0000 0.1612181555
H   H27       1.0  0.97680  0.89120  0.85800  1.0000 0.1514719713
H   H28       1.0  0.92600  0.98590  0.89230  1.0000 0.1612181555
H   H29       1.0  0.81680  0.40760  0.70580  1.0000 0.1612181555
H   H30       1.0  0.89010  0.37410  0.79310  1.0000 0.1416394189
H   H31       1.0  0.74350  0.32340  0.73600  1.0000 0.1612181555
H   H32       1.0  0.12290  0.05640  0.63700  1.0000 0.1612181555
H   H33       1.0  0.96200  0.02220  0.59910  1.0000 0.1514719713
H   H34       1.0  0.80600  0.30940  0.33570  1.0000 0.1416394189
H   H35       1.0  0.75490  0.35900  0.39300  1.0000 0.1612181555
H   H36       1.0  0.69170  0.24980  0.35230  1.0000 0.1686176646
H   H37       1.0  0.22750  0.01110  0.35960  1.0000 0.1416394189
H   H38       1.0  0.35390  0.99930  0.33830  1.0000 0.1612181555
H   H39       1.0  0.23690  0.08700  0.29780  1.0000 0.1514719713
H   H40       1.0  0.96160  0.49370  0.32330  1.0000 0.1612181555
H   H41       1.0  0.97680  0.60880  0.35800  1.0000 0.1514719713
H   H42       1.0  0.92600  0.51410  0.39230  1.0000 0.1612181555
H   H43       1.0  0.18320  0.90760  0.79420  1.0000 0.1612181555
H   H44       1.0  0.10990  0.87410  0.70690  1.0000 0.1416394189
H   H45       1.0  0.25650  0.82340  0.76400  1.0000 0.1612181555
H   H46       1.0  0.87710  0.55640  0.86300  1.0000 0.1612181555
H   H47       1.0  0.03800  0.52220  0.90090  1.0000 0.1514719713
H   H48       1.0  0.19400  0.80940  0.16430  1.0000 0.1416394189
H   H49       1.0  0.24510  0.85900  0.10700  1.0000 0.1612181555
H   H50       1.0  0.30830  0.74980  0.14770  1.0000 0.1686176646
H   H51       1.0  0.77250  0.51110  0.14040  1.0000 0.1416394189
H   H52       1.0  0.64610  0.49930  0.16170  1.0000 0.1612181555
H   H53       1.0  0.76310  0.58700  0.20220  1.0000 0.1514719713
H   H54       1.0  0.03840  0.99370  0.17670  1.0000 0.1612181555
H   H55       1.0  0.02320  0.10880  0.14200  1.0000 0.1514719713
H   H56       1.0  0.07400  0.01410  0.10770  1.0000 0.1612181555
C   C1        1.0  0.16670  0.65050  0.25880  1.0000 -0.5100975049
C   C2        1.0  0.08630  0.74250  0.27740  1.0000 0.3893082924
C   C3        1.0  0.99720  0.84880  0.32760  1.0000 0.3507958415
C   C4        1.0  0.97430  0.91680  0.38670  1.0000 -0.3679852498
C   C5        1.0  0.00050  0.85510  0.45870  1.0000 0.3562013793
C   C6        1.0  0.10810  0.76440  0.56020  1.0000 0.3893082924
C   C7        1.0  0.22420  0.70640  0.62560  1.0000 -0.529355557
C   C8        1.0  0.70880  0.95090  0.65480  1.0000 -0.5100975049
C   C9        1.0  0.62470  0.87530  0.59390  1.0000 0.3893082924
C   C10       1.0  0.55900  0.74630  0.51420  1.0000 0.2100428182
C   C11       1.0  0.66460  0.56900  0.50220  1.0000 0.1886651056
C   C12       1.0  0.85790  0.48990  0.57300  1.0000 0.407734214
C   C13       1.0  0.01280  0.46610  0.63020  1.0000 -0.5366312278
C   C14       1.0  0.55670  0.65200  0.46720  1.0000 0.2674095991
C   C15       1.0  0.83330  0.15050  0.24120  1.0000 -0.5100975049
C   C16       1.0  0.91370  0.24250  0.22260  1.0000 0.3893082924
C   C17       1.0  0.00280  0.34880  0.17240  1.0000 0.3507958415
C   C18       1.0  0.02570  0.41680  0.11330  1.0000 -0.3679852498
C   C19       1.0  0.99950  0.35510  0.04130  1.0000 0.3562013793
C   C20       1.0  0.89190  0.26440  0.93980  1.0000 0.3893082924
C   C21       1.0  0.77580  0.20640  0.87440  1.0000 -0.529355557
C   C22       1.0  0.29120  0.45090  0.84520  1.0000 -0.5100975049
C   C23       1.0  0.37530  0.37530  0.90610  1.0000 0.3893082924
C   C24       1.0  0.44100  0.24630  0.98580  1.0000 0.2100428182
C   C25       1.0  0.33540  0.06900  0.99780  1.0000 0.1886651056
C   C26       1.0  0.14210  0.98990  0.92700  1.0000 0.407734214
C   C27       1.0  0.98720  0.96610  0.86980  1.0000 -0.5366312278
C   C28       1.0  0.44330  0.15200  0.03280  1.0000 0.2674095991
C   C29       1.0  0.83330  0.34950  0.74120  1.0000 -0.5100975049
C   C30       1.0  0.91370  0.25750  0.72260  1.0000 0.3893082924
C   C31       1.0  0.00280  0.15120  0.67240  1.0000 0.3507958415
C   C32       1.0  0.02570  0.08320  0.61330  1.0000 -0.3679852498
C   C33       1.0  0.99950  0.14490  0.54130  1.0000 0.3562013793
C   C34       1.0  0.89190  0.23560  0.43980  1.0000 0.3893082924
C   C35       1.0  0.77580  0.29360  0.37440  1.0000 -0.529355557
C   C36       1.0  0.29120  0.04910  0.34520  1.0000 -0.5100975049
C   C37       1.0  0.37530  0.12470  0.40610  1.0000 0.3893082924
C   C38       1.0  0.44100  0.25370  0.48580  1.0000 0.2100428182
C   C39       1.0  0.33540  0.43100  0.49780  1.0000 0.1886651056
C   C40       1.0  0.14210  0.51010  0.42700  1.0000 0.407734214
C   C41       1.0  0.98720  0.53390  0.36980  1.0000 -0.5366312278
C   C42       1.0  0.44330  0.34800  0.53280  1.0000 0.2674095991
C   C43       1.0  0.16670  0.84950  0.75880  1.0000 -0.5100975049
C   C44       1.0  0.08630  0.75750  0.77740  1.0000 0.3893082924
C   C45       1.0  0.99720  0.65120  0.82760  1.0000 0.3507958415
C   C46       1.0  0.97430  0.58320  0.88670  1.0000 -0.3679852498
C   C47       1.0  0.00050  0.64490  0.95870  1.0000 0.3562013793
C   C48       1.0  0.10810  0.73560  0.06020  1.0000 0.3893082924
C   C49       1.0  0.22420  0.79360  0.12560  1.0000 -0.529355557
C   C50       1.0  0.70880  0.54910  0.15480  1.0000 -0.5100975049
C   C51       1.0  0.62470  0.62470  0.09390  1.0000 0.3893082924
C   C52       1.0  0.55900  0.75370  0.01420  1.0000 0.2100428182
C   C53       1.0  0.66460  0.93100  0.00220  1.0000 0.1886651056
C   C54       1.0  0.85790  0.01010  0.07300  1.0000 0.407734214
C   C55       1.0  0.01280  0.03390  0.13020  1.0000 -0.5366312278
C   C56       1.0  0.55670  0.84800  0.96720  1.0000 0.2674095991
N   N1        1.0  0.67680  0.79410  0.56920  1.0000 -0.4017315519
N   N2        1.0  0.48090  0.87770  0.55720  1.0000 -0.2696877233
N   N3        1.0  0.44240  0.79500  0.50620  1.0000 -0.2080993664
N   N4        1.0  0.80250  0.58770  0.55830  1.0000 -0.4093918738
N   N5        1.0  0.63830  0.46650  0.48440  1.0000 -0.2246209954
N   N6        1.0  0.76380  0.41490  0.53120  1.0000 -0.2493398723
N   N7        1.0  0.98230  0.79130  0.55590  1.0000 -0.2696877233
N   N8        1.0  0.91130  0.85000  0.48950  1.0000 -0.2846667182
N   N9        1.0  0.12220  0.80320  0.50000  1.0000 -0.4093918738
N   N10       1.0  0.10890  0.78220  0.34680  1.0000 -0.4413772908
N   N11       1.0  0.91250  0.85570  0.25360  1.0000 -0.2846667182
N   N12       1.0  0.97130  0.78540  0.22070  1.0000 -0.2696877233
N   N13       1.0  0.32320  0.29410  0.93080  1.0000 -0.4017315519
N   N14       1.0  0.51910  0.37770  0.94280  1.0000 -0.2696877233
N   N15       1.0  0.55760  0.29500  0.99380  1.0000 -0.2080993664
N   N16       1.0  0.19750  0.08770  0.94170  1.0000 -0.4093918738
N   N17       1.0  0.36170  0.96650  0.01560  1.0000 -0.2246209954
N   N18       1.0  0.23620  0.91490  0.96880  1.0000 -0.2493398723
N   N19       1.0  0.01770  0.29130  0.94410  1.0000 -0.2696877233
N   N20       1.0  0.08870  0.35000  0.01050  1.0000 -0.2846667182
N   N21       1.0  0.87780  0.30320  0.00000  1.0000 -0.4093918738
N   N22       1.0  0.89110  0.28220  0.15320  1.0000 -0.4413772908
N   N23       1.0  0.08750  0.35570  0.24640  1.0000 -0.2846667182
N   N24       1.0  0.02870  0.28540  0.27930  1.0000 -0.2696877233
N   N25       1.0  0.32320  0.20590  0.43080  1.0000 -0.4017315519
N   N26       1.0  0.51910  0.12230  0.44280  1.0000 -0.2696877233
N   N27       1.0  0.55760  0.20500  0.49380  1.0000 -0.2080993664
N   N28       1.0  0.19750  0.41230  0.44170  1.0000 -0.4093918738
N   N29       1.0  0.36170  0.53350  0.51560  1.0000 -0.2246209954
N   N30       1.0  0.23620  0.58510  0.46880  1.0000 -0.2493398723
N   N31       1.0  0.01770  0.20870  0.44410  1.0000 -0.2696877233
N   N32       1.0  0.08870  0.15000  0.51050  1.0000 -0.2846667182
N   N33       1.0  0.87780  0.19680  0.50000  1.0000 -0.4093918738
N   N34       1.0  0.89110  0.21780  0.65320  1.0000 -0.4413772908
N   N35       1.0  0.08750  0.14430  0.74640  1.0000 -0.2846667182
N   N36       1.0  0.02870  0.21460  0.77930  1.0000 -0.2696877233
N   N37       1.0  0.67680  0.70590  0.06920  1.0000 -0.4017315519
N   N38       1.0  0.48090  0.62230  0.05720  1.0000 -0.2696877233
N   N39       1.0  0.44240  0.70500  0.00620  1.0000 -0.2080993664
N   N40       1.0  0.80250  0.91230  0.05830  1.0000 -0.4093918738
N   N41       1.0  0.63830  0.03350  0.98440  1.0000 -0.2246209954
N   N42       1.0  0.76380  0.08510  0.03120  1.0000 -0.2493398723
N   N43       1.0  0.98230  0.70870  0.05590  1.0000 -0.2696877233
N   N44       1.0  0.91130  0.65000  0.98950  1.0000 -0.2846667182
N   N45       1.0  0.12220  0.69680  0.00000  1.0000 -0.4093918738
N   N46       1.0  0.10890  0.71780  0.84680  1.0000 -0.4413772908
N   N47       1.0  0.91250  0.64430  0.75360  1.0000 -0.2846667182
N   N48       1.0  0.97130  0.71460  0.72070  1.0000 -0.2696877233
O   O1        1.0  0.45100  0.63740  0.40690  1.0000 -0.2930537176
O   O2        1.0  0.54900  0.13740  0.09310  1.0000 -0.2930537176
O   O3        1.0  0.54900  0.36260  0.59310  1.0000 -0.2930537176
O   O4        1.0  0.45100  0.86260  0.90690  1.0000 -0.2930537176
