# DDEC6 charges by PACMAN v1.1 (https://github.com/mtap-research/PACMAN-charge/)
data_2019[Tb][sql]2[ASR]1
_chemical_formula_sum              "Tb8 H56 C64 O52"
_cell_length_a       8.7271
_cell_length_b       14.0331
_cell_length_c       24.7841
_cell_angle_alpha    90
_cell_angle_beta     90
_cell_angle_gamma    90

_symmetry_space_group_name_H-M    "P 1"
_symmetry_Int_Tables_number       1

loop_
  _symmetry_equiv_pos_as_xyz
  'x, y, z'

loop_
  _atom_site_type_symbol
  _atom_site_label
  _atom_site_symmetry_multiplicity
  _atom_site_fract_x
  _atom_site_fract_y
  _atom_site_fract_z
  _atom_site_occupancy
  _atom_site_charge
Tb  Tb1       1.0  0.47245  0.10538  0.44284  1.0000 1.9892982861
Tb  Tb2       1.0  0.52755  0.89462  0.94284  1.0000 1.9892982861
Tb  Tb3       1.0  0.52755  0.89462  0.55716  1.0000 1.9892982861
Tb  Tb4       1.0  0.47245  0.10538  0.05716  1.0000 1.9892982861
Tb  Tb5       1.0  0.02755  0.60538  0.55716  1.0000 1.9892982861
Tb  Tb6       1.0  0.97245  0.39462  0.05716  1.0000 1.9892982861
Tb  Tb7       1.0  0.97245  0.39462  0.44284  1.0000 1.9892982861
Tb  Tb8       1.0  0.02755  0.60538  0.94284  1.0000 1.9892982861
H   H1        1.0  0.83160  0.83483  0.39762  1.0000 0.1359209587
H   H2        1.0  0.75582  0.93094  0.37832  1.0000 0.1251987686
H   H3        1.0  0.00772  0.91626  0.45209  1.0000 0.0980294255
H   H4        1.0  0.91928  0.01264  0.44514  1.0000 0.0980294255
H   H5        1.0  0.07946  0.92409  0.36155  1.0000 0.1213556219
H   H6        1.0  0.99893  0.02391  0.35746  1.0000 0.1213556219
H   H7        1.0  0.89737  0.22482  0.30100  1.0000 0.1486015191
H   H8        1.0  0.16840  0.16517  0.89762  1.0000 0.1359209587
H   H9        1.0  0.24418  0.06906  0.87832  1.0000 0.1213556219
H   H10       1.0  0.99228  0.08374  0.95209  1.0000 0.0980294255
H   H11       1.0  0.08072  0.98736  0.94514  1.0000 0.0980294255
H   H12       1.0  0.92054  0.07591  0.86155  1.0000 0.1213556219
H   H13       1.0  0.00107  0.97609  0.85746  1.0000 0.1213556219
H   H14       1.0  0.10263  0.77518  0.80100  1.0000 0.1486015191
H   H15       1.0  0.16840  0.16517  0.60238  1.0000 0.1359209587
H   H16       1.0  0.24418  0.06906  0.62168  1.0000 0.1251987686
H   H17       1.0  0.99228  0.08374  0.54791  1.0000 0.0980294255
H   H18       1.0  0.08072  0.98736  0.55486  1.0000 0.0980294255
H   H19       1.0  0.92054  0.07591  0.63845  1.0000 0.1213556219
H   H20       1.0  0.00107  0.97609  0.64254  1.0000 0.1213556219
H   H21       1.0  0.10263  0.77518  0.69900  1.0000 0.1486015191
H   H22       1.0  0.83160  0.83483  0.10238  1.0000 0.1359209587
H   H23       1.0  0.75582  0.93094  0.12168  1.0000 0.1251987686
H   H24       1.0  0.00772  0.91626  0.04791  1.0000 0.0980294255
H   H25       1.0  0.91928  0.01264  0.05486  1.0000 0.0980294255
H   H26       1.0  0.07946  0.92409  0.13845  1.0000 0.1213556219
H   H27       1.0  0.99893  0.02391  0.14254  1.0000 0.1213556219
H   H28       1.0  0.89737  0.22482  0.19900  1.0000 0.1486015191
H   H29       1.0  0.66840  0.33483  0.60238  1.0000 0.1359209587
H   H30       1.0  0.74418  0.43094  0.62168  1.0000 0.1213556219
H   H31       1.0  0.49228  0.41626  0.54791  1.0000 0.0980294255
H   H32       1.0  0.58072  0.51264  0.55486  1.0000 0.0980294255
H   H33       1.0  0.42054  0.42409  0.63845  1.0000 0.1213556219
H   H34       1.0  0.50107  0.52391  0.64254  1.0000 0.1213556219
H   H35       1.0  0.60263  0.72482  0.69900  1.0000 0.1486015191
H   H36       1.0  0.33160  0.66517  0.10238  1.0000 0.1359209587
H   H37       1.0  0.25582  0.56906  0.12168  1.0000 0.1251987686
H   H38       1.0  0.50772  0.58374  0.04791  1.0000 0.0980294255
H   H39       1.0  0.41928  0.48736  0.05486  1.0000 0.0980294255
H   H40       1.0  0.57946  0.57591  0.13845  1.0000 0.1213556219
H   H41       1.0  0.49893  0.47609  0.14254  1.0000 0.1213556219
H   H42       1.0  0.39737  0.27518  0.19900  1.0000 0.1486015191
H   H43       1.0  0.33160  0.66517  0.39762  1.0000 0.1359209587
H   H44       1.0  0.25582  0.56906  0.37832  1.0000 0.1251987686
H   H45       1.0  0.50772  0.58374  0.45209  1.0000 0.0980294255
H   H46       1.0  0.41928  0.48736  0.44514  1.0000 0.0980294255
H   H47       1.0  0.57946  0.57591  0.36155  1.0000 0.1213556219
H   H48       1.0  0.49893  0.47609  0.35746  1.0000 0.1213556219
H   H49       1.0  0.39737  0.27518  0.30100  1.0000 0.1486015191
H   H50       1.0  0.66840  0.33483  0.89762  1.0000 0.1359209587
H   H51       1.0  0.74418  0.43094  0.87832  1.0000 0.1213556219
H   H52       1.0  0.49228  0.41626  0.95209  1.0000 0.0980294255
H   H53       1.0  0.58072  0.51264  0.94514  1.0000 0.0980294255
H   H54       1.0  0.42054  0.42409  0.86155  1.0000 0.1213556219
H   H55       1.0  0.50107  0.52391  0.85746  1.0000 0.1213556219
H   H56       1.0  0.60263  0.72482  0.80100  1.0000 0.1486015191
C   C1        1.0  0.70080  0.89740  0.45640  1.0000 0.6721605976
C   C2        1.0  0.64090  0.11970  0.34740  1.0000 0.5105351826
C   C3        1.0  0.80490  0.89910  0.40850  1.0000 -0.3214427213
C   C4        1.0  0.19500  0.02810  0.40250  1.0000 0.620199049
C   C5        1.0  0.71010  0.14480  0.29510  1.0000 0.065103708
C   C6        1.0  0.95080  0.95500  0.42660  1.0000 -0.1085038612
C   C7        1.0  0.05220  0.98090  0.38170  1.0000 -0.3057915772
C   C8        1.0  0.82630  0.19450  0.27900  1.0000 -0.1687533165
C   C9        1.0  0.29920  0.10260  0.95640  1.0000 0.6721605976
C   C10       1.0  0.35910  0.88030  0.84740  1.0000 0.5105351826
C   C11       1.0  0.19510  0.10090  0.90850  1.0000 -0.3214427213
C   C12       1.0  0.80500  0.97190  0.90250  1.0000 0.620199049
C   C13       1.0  0.28990  0.85520  0.79510  1.0000 0.065103708
C   C14       1.0  0.04920  0.04500  0.92660  1.0000 -0.1085038612
C   C15       1.0  0.94780  0.01910  0.88170  1.0000 -0.3057915772
C   C16       1.0  0.17370  0.80550  0.77900  1.0000 -0.1687533165
C   C17       1.0  0.29920  0.10260  0.54360  1.0000 0.6721605976
C   C18       1.0  0.35910  0.88030  0.65260  1.0000 0.5105351826
C   C19       1.0  0.19510  0.10090  0.59150  1.0000 -0.3214427213
C   C20       1.0  0.80500  0.97190  0.59750  1.0000 0.620199049
C   C21       1.0  0.28990  0.85520  0.70490  1.0000 0.065103708
C   C22       1.0  0.04920  0.04500  0.57340  1.0000 -0.1085038612
C   C23       1.0  0.94780  0.01910  0.61830  1.0000 -0.3057915772
C   C24       1.0  0.17370  0.80550  0.72100  1.0000 -0.1687533165
C   C25       1.0  0.70080  0.89740  0.04360  1.0000 0.6721605976
C   C26       1.0  0.64090  0.11970  0.15260  1.0000 0.5105351826
C   C27       1.0  0.80490  0.89910  0.09150  1.0000 -0.3214427213
C   C28       1.0  0.19500  0.02810  0.09750  1.0000 0.620199049
C   C29       1.0  0.71010  0.14480  0.20490  1.0000 0.065103708
C   C30       1.0  0.95080  0.95500  0.07340  1.0000 -0.1085038612
C   C31       1.0  0.05220  0.98090  0.11830  1.0000 -0.3057915772
C   C32       1.0  0.82630  0.19450  0.22100  1.0000 -0.1687533165
C   C33       1.0  0.79920  0.39740  0.54360  1.0000 0.6721605976
C   C34       1.0  0.85910  0.61970  0.65260  1.0000 0.5105351826
C   C35       1.0  0.69510  0.39910  0.59150  1.0000 -0.3214427213
C   C36       1.0  0.30500  0.52810  0.59750  1.0000 0.620199049
C   C37       1.0  0.78990  0.64480  0.70490  1.0000 0.065103708
C   C38       1.0  0.54920  0.45500  0.57340  1.0000 -0.1085038612
C   C39       1.0  0.44780  0.48090  0.61830  1.0000 -0.3057915772
C   C40       1.0  0.67370  0.69450  0.72100  1.0000 -0.1687533165
C   C41       1.0  0.20080  0.60260  0.04360  1.0000 0.6721605976
C   C42       1.0  0.14090  0.38030  0.15260  1.0000 0.5105351826
C   C43       1.0  0.30490  0.60090  0.09150  1.0000 -0.3214427213
C   C44       1.0  0.69500  0.47190  0.09750  1.0000 0.620199049
C   C45       1.0  0.21010  0.35520  0.20490  1.0000 0.065103708
C   C46       1.0  0.45080  0.54500  0.07340  1.0000 -0.1085038612
C   C47       1.0  0.55220  0.51910  0.11830  1.0000 -0.3057915772
C   C48       1.0  0.32630  0.30550  0.22100  1.0000 -0.1687533165
C   C49       1.0  0.20080  0.60260  0.45640  1.0000 0.6721605976
C   C50       1.0  0.14090  0.38030  0.34740  1.0000 0.5105351826
C   C51       1.0  0.30490  0.60090  0.40850  1.0000 -0.3214427213
C   C52       1.0  0.69500  0.47190  0.40250  1.0000 0.620199049
C   C53       1.0  0.21010  0.35520  0.29510  1.0000 0.065103708
C   C54       1.0  0.45080  0.54500  0.42660  1.0000 -0.1085038612
C   C55       1.0  0.55220  0.51910  0.38170  1.0000 -0.3057915772
C   C56       1.0  0.32630  0.30550  0.27900  1.0000 -0.1687533165
C   C57       1.0  0.79920  0.39740  0.95640  1.0000 0.6721605976
C   C58       1.0  0.85910  0.61970  0.84740  1.0000 0.5105351826
C   C59       1.0  0.69510  0.39910  0.90850  1.0000 -0.3214427213
C   C60       1.0  0.30500  0.52810  0.90250  1.0000 0.620199049
C   C61       1.0  0.78990  0.64480  0.79510  1.0000 0.065103708
C   C62       1.0  0.54920  0.45500  0.92660  1.0000 -0.1085038612
C   C63       1.0  0.44780  0.48090  0.88170  1.0000 -0.3057915772
C   C64       1.0  0.67370  0.69450  0.77900  1.0000 -0.1687533165
O   O1        1.0  0.70850  0.14120  0.39053  1.0000 -0.6080552775
O   O2        1.0  0.60950  0.96660  0.46475  1.0000 -0.7385206202
O   O3        1.0  0.70630  0.83170  0.48996  1.0000 -0.6047129611
O   O4        1.0  0.29910  0.97680  0.42184  1.0000 -0.627397118
O   O5        1.0  0.21120  0.11690  0.40014  1.0000 -0.6080552775
O   O6        1.0  0.51300  0.07970  0.34763  1.0000 -0.5775707791
O   O7        1.0  0.29150  0.85880  0.89053  1.0000 -0.6080552775
O   O8        1.0  0.39050  0.03340  0.96475  1.0000 -0.7385206202
O   O9        1.0  0.29370  0.16830  0.98996  1.0000 -0.6080552775
O   O10       1.0  0.70090  0.02320  0.92184  1.0000 -0.627397118
O   O11       1.0  0.78880  0.88310  0.90014  1.0000 -0.6080552775
O   O12       1.0  0.48700  0.92030  0.84763  1.0000 -0.5775707791
O   O13       1.0  0.29150  0.85880  0.60947  1.0000 -0.6080552775
O   O14       1.0  0.39050  0.03340  0.53525  1.0000 -0.7385206202
O   O15       1.0  0.29370  0.16830  0.51004  1.0000 -0.6047129611
O   O16       1.0  0.70090  0.02320  0.57816  1.0000 -0.627397118
O   O17       1.0  0.78880  0.88310  0.59986  1.0000 -0.6080552775
O   O18       1.0  0.48700  0.92030  0.65237  1.0000 -0.5775707791
O   O19       1.0  0.70850  0.14120  0.10947  1.0000 -0.6080552775
O   O20       1.0  0.60950  0.96660  0.03525  1.0000 -0.7385206202
O   O21       1.0  0.70630  0.83170  0.01004  1.0000 -0.6047129611
O   O22       1.0  0.29910  0.97680  0.07816  1.0000 -0.627397118
O   O23       1.0  0.21120  0.11690  0.09986  1.0000 -0.6080552775
O   O24       1.0  0.51300  0.07970  0.15237  1.0000 -0.5775707791
O   O25       1.0  0.63140  0.11330  0.25000  1.0000 -0.0702513706
O   O26       1.0  0.36860  0.88670  0.75000  1.0000 -0.0702513706
O   O27       1.0  0.79150  0.64120  0.60947  1.0000 -0.6080552775
O   O28       1.0  0.89050  0.46660  0.53525  1.0000 -0.7385206202
O   O29       1.0  0.79370  0.33170  0.51004  1.0000 -0.6047129611
O   O30       1.0  0.20090  0.47680  0.57816  1.0000 -0.627397118
O   O31       1.0  0.28880  0.61690  0.59986  1.0000 -0.6080552775
O   O32       1.0  0.98700  0.57970  0.65237  1.0000 -0.5775707791
O   O33       1.0  0.20850  0.35880  0.10947  1.0000 -0.6047129611
O   O34       1.0  0.10950  0.53340  0.03525  1.0000 -0.7385206202
O   O35       1.0  0.20630  0.66830  0.01004  1.0000 -0.6047129611
O   O36       1.0  0.79910  0.52320  0.07816  1.0000 -0.627397118
O   O37       1.0  0.71120  0.38310  0.09986  1.0000 -0.6080552775
O   O38       1.0  0.01300  0.42030  0.15237  1.0000 -0.5775707791
O   O39       1.0  0.20850  0.35880  0.39053  1.0000 -0.6047129611
O   O40       1.0  0.10950  0.53340  0.46475  1.0000 -0.7385206202
O   O41       1.0  0.20630  0.66830  0.48996  1.0000 -0.6080552775
O   O42       1.0  0.79910  0.52320  0.42184  1.0000 -0.627397118
O   O43       1.0  0.71120  0.38310  0.40014  1.0000 -0.6080552775
O   O44       1.0  0.01300  0.42030  0.34763  1.0000 -0.5775707791
O   O45       1.0  0.79150  0.64120  0.89053  1.0000 -0.6080552775
O   O46       1.0  0.89050  0.46660  0.96475  1.0000 -0.7385206202
O   O47       1.0  0.79370  0.33170  0.98996  1.0000 -0.6080552775
O   O48       1.0  0.20090  0.47680  0.92184  1.0000 -0.627397118
O   O49       1.0  0.28880  0.61690  0.90014  1.0000 -0.6080552775
O   O50       1.0  0.98700  0.57970  0.84763  1.0000 -0.5775707791
O   O51       1.0  0.86860  0.61330  0.75000  1.0000 -0.0702513706
O   O52       1.0  0.13140  0.38670  0.25000  1.0000 -0.0702513706
