# DDEC6 charges by PACMAN v1.1 (https://github.com/mtap-research/PACMAN-charge/)
data_2019[La][nan]3[ASR]6
_chemical_formula_sum              "La2 H24 C30 O12"
_cell_length_a       9.1197
_cell_length_b       11.1231
_cell_length_c       11.9434
_cell_angle_alpha    107.049
_cell_angle_beta     107.729
_cell_angle_gamma    106.622

_symmetry_space_group_name_H-M    "P 1"
_symmetry_Int_Tables_number       1

loop_
  _symmetry_equiv_pos_as_xyz
  'x, y, z'

loop_
  _atom_site_type_symbol
  _atom_site_label
  _atom_site_symmetry_multiplicity
  _atom_site_fract_x
  _atom_site_fract_y
  _atom_site_fract_z
  _atom_site_occupancy
  _atom_site_charge
La  La1       1.0  0.75090  0.52031  0.47969  1.0000 1.850041457
La  La2       1.0  0.24910  0.47969  0.52031  1.0000 1.850041457
H   H1        1.0  0.85734  0.28126  0.10290  1.0000 0.1404445176
H   H2        1.0  0.91056  0.20799  0.19228  1.0000 0.1509560972
H   H3        1.0  0.66956  0.03020  0.20115  1.0000 0.1287140106
H   H4        1.0  0.92841  0.10995  0.86980  1.0000 0.1179464464
H   H5        1.0  0.58905  0.15719  0.91920  1.0000 0.1179464464
H   H6        1.0  0.66072  0.92372  0.73448  1.0000 0.1509560972
H   H7        1.0  0.59215  0.81980  0.78997  1.0000 0.1509560972
H   H8        1.0  0.82048  0.77951  0.94816  1.0000 0.1287140106
H   H9        1.0  0.12540  0.40538  0.87826  1.0000 0.1179464464
H   H10       1.0  0.71142  0.42747  0.91313  1.0000 0.1179464464
H   H11       1.0  0.68473  0.23588  0.72725  1.0000 0.1404445176
H   H12       1.0  0.84836  0.23300  0.71157  1.0000 0.1404445176
H   H13       1.0  0.14266  0.71874  0.89710  1.0000 0.1404445176
H   H14       1.0  0.08944  0.79201  0.80772  1.0000 0.1509560972
H   H15       1.0  0.33044  0.96980  0.79885  1.0000 0.1287140106
H   H16       1.0  0.07159  0.89005  0.13020  1.0000 0.1179464464
H   H17       1.0  0.41095  0.84281  0.08080  1.0000 0.1179464464
H   H18       1.0  0.33928  0.07628  0.26552  1.0000 0.1509560972
H   H19       1.0  0.40785  0.18020  0.21003  1.0000 0.1509560972
H   H20       1.0  0.17952  0.22049  0.05184  1.0000 0.1287140106
H   H21       1.0  0.87460  0.59462  0.12174  1.0000 0.1179464464
H   H22       1.0  0.28858  0.57253  0.08687  1.0000 0.1179464464
H   H23       1.0  0.31527  0.76412  0.27275  1.0000 0.1404445176
H   H24       1.0  0.15164  0.76700  0.28843  1.0000 0.1404445176
C   C1        1.0  0.68340  0.74260  0.66210  1.0000 0.6752200206
C   C2        1.0  0.81650  0.34360  0.26590  1.0000 0.6623630603
C   C3        1.0  0.76400  0.35890  0.64050  1.0000 0.6339372475
C   C4        1.0  0.65790  0.11470  0.07390  1.0000 0.1404445176
C   C5        1.0  0.82470  0.23820  0.15650  1.0000 -0.4102843176
C   C6        1.0  0.60170  0.01900  0.11960  1.0000 -0.1520506512
C   C7        1.0  0.84720  0.93250  0.88810  1.0000 0.1404445176
C   C8        1.0  0.95640  0.06460  0.92170  1.0000 -0.1520506512
C   C9        1.0  0.55470  0.09460  0.95310  1.0000 -0.1568875979
C   C10       1.0  0.68320  0.85780  0.76750  1.0000 -0.4102843176
C   C11       1.0  0.89270  0.86870  0.96850  1.0000 -0.1426341902
C   C12       1.0  0.89970  0.39720  0.87320  1.0000 0.1404445176
C   C13       1.0  0.07380  0.44270  0.92670  1.0000 -0.1666077595
C   C14       1.0  0.82810  0.45610  0.94770  1.0000 -0.1520506512
C   C15       1.0  0.79310  0.29280  0.73470  1.0000 -0.3911876898
C   C16       1.0  0.31660  0.25740  0.33790  1.0000 0.6752200206
C   C17       1.0  0.18350  0.65640  0.73410  1.0000 0.6623630603
C   C18       1.0  0.23600  0.64110  0.35950  1.0000 0.6339372475
C   C19       1.0  0.34210  0.88530  0.92610  1.0000 0.1404445176
C   C20       1.0  0.17530  0.76180  0.84350  1.0000 -0.4102843176
C   C21       1.0  0.39830  0.98100  0.88040  1.0000 -0.1520506512
C   C22       1.0  0.15280  0.06750  0.11190  1.0000 0.1404445176
C   C23       1.0  0.04360  0.93540  0.07830  1.0000 -0.1520506512
C   C24       1.0  0.44530  0.90540  0.04690  1.0000 -0.1568875979
C   C25       1.0  0.31680  0.14220  0.23250  1.0000 -0.4102843176
C   C26       1.0  0.10730  0.13130  0.03150  1.0000 -0.1426341902
C   C27       1.0  0.10030  0.60280  0.12680  1.0000 0.1404445176
C   C28       1.0  0.92620  0.55730  0.07330  1.0000 -0.1666077595
C   C29       1.0  0.17190  0.54390  0.05230  1.0000 -0.1520506512
C   C30       1.0  0.20690  0.70720  0.26530  1.0000 -0.3911876898
O   O1        1.0  0.55280  0.63230  0.59310  1.0000 -0.6517466973
O   O2        1.0  0.94250  0.41190  0.37470  1.0000 -0.6517466973
O   O3        1.0  0.76270  0.30410  0.53110  1.0000 -0.6186382692
O   O4        1.0  0.81460  0.75790  0.64350  1.0000 -0.5986911575
O   O5        1.0  0.74220  0.46740  0.67360  1.0000 -0.5986911575
O   O6        1.0  0.68400  0.36160  0.24900  1.0000 -0.5927591841
O   O7        1.0  0.44720  0.36770  0.40690  1.0000 -0.6517466973
O   O8        1.0  0.05750  0.58810  0.62530  1.0000 -0.6517466973
O   O9        1.0  0.23730  0.69590  0.46890  1.0000 -0.6186382692
O   O10       1.0  0.18540  0.24210  0.35650  1.0000 -0.5986911575
O   O11       1.0  0.25780  0.53260  0.32640  1.0000 -0.5986911575
O   O12       1.0  0.31600  0.63840  0.75100  1.0000 -0.5927591841
