# DDEC6 charges by PACMAN v1.1 (https://github.com/mtap-research/PACMAN-charge/)
data_2019[Cu][sql]2[ASR]6
_chemical_formula_sum              "Cu2 H40 C48 O8"
_cell_length_a       12.8667
_cell_length_b       12.8667
_cell_length_c       10.231
_cell_angle_alpha    88.6205
_cell_angle_beta     91.3795
_cell_angle_gamma    82.1377

_symmetry_space_group_name_H-M    "P 1"
_symmetry_Int_Tables_number       1

loop_
  _symmetry_equiv_pos_as_xyz
  'x, y, z'

loop_
  _atom_site_type_symbol
  _atom_site_label
  _atom_site_symmetry_multiplicity
  _atom_site_fract_x
  _atom_site_fract_y
  _atom_site_fract_z
  _atom_site_occupancy
  _atom_site_charge
Cu  Cu1       1.0  0.03912  0.96088  0.39283  1.0000 0.8453256823
Cu  Cu2       1.0  0.96088  0.03912  0.60717  1.0000 0.8453256823
H   H1        1.0  0.25965  0.42523  0.01248  1.0000 0.1377566745
H   H2        1.0  0.25018  0.50382  0.88781  1.0000 0.1277926505
H   H3        1.0  0.30124  0.38412  0.87426  1.0000 0.1377566745
H   H4        1.0  0.86187  0.70077  0.35976  1.0000 0.1277926505
H   H5        1.0  0.74522  0.57774  0.36347  1.0000 0.1277926505
H   H6        1.0  0.72205  0.40279  0.66816  1.0000 0.1377566745
H   H7        1.0  0.72080  0.52722  0.67223  1.0000 0.1277926505
H   H8        1.0  0.65360  0.46942  0.77373  1.0000 0.1377566745
H   H9        1.0  0.42523  0.25965  0.98752  1.0000 0.1377566745
H   H10       1.0  0.50382  0.25018  0.11219  1.0000 0.1277926505
H   H11       1.0  0.38412  0.30124  0.12574  1.0000 0.1377566745
H   H12       1.0  0.70077  0.86187  0.64024  1.0000 0.1277926505
H   H13       1.0  0.57774  0.74522  0.63653  1.0000 0.1277926505
H   H14       1.0  0.40279  0.72205  0.33184  1.0000 0.1377566745
H   H15       1.0  0.52722  0.72080  0.32777  1.0000 0.1277926505
H   H16       1.0  0.46942  0.65360  0.22627  1.0000 0.1377566745
H   H17       1.0  0.74035  0.57477  0.98752  1.0000 0.1377566745
H   H18       1.0  0.74982  0.49618  0.11219  1.0000 0.1277926505
H   H19       1.0  0.69876  0.61588  0.12574  1.0000 0.1377566745
H   H20       1.0  0.13813  0.29923  0.64024  1.0000 0.1277926505
H   H21       1.0  0.25478  0.42226  0.63653  1.0000 0.1277926505
H   H22       1.0  0.27795  0.59721  0.33184  1.0000 0.1377566745
H   H23       1.0  0.27920  0.47278  0.32777  1.0000 0.1277926505
H   H24       1.0  0.34640  0.53058  0.22627  1.0000 0.1377566745
H   H25       1.0  0.57477  0.74035  0.01248  1.0000 0.1377566745
H   H26       1.0  0.49618  0.74982  0.88781  1.0000 0.1277926505
H   H27       1.0  0.61588  0.69876  0.87426  1.0000 0.1377566745
H   H28       1.0  0.29923  0.13813  0.35976  1.0000 0.1277926505
H   H29       1.0  0.42226  0.25478  0.36347  1.0000 0.1277926505
H   H30       1.0  0.59721  0.27795  0.66816  1.0000 0.1377566745
H   H31       1.0  0.47278  0.27920  0.67223  1.0000 0.1277926505
H   H32       1.0  0.53058  0.34640  0.77373  1.0000 0.1377566745
H   H33       1.0  0.27688  0.72312  0.55511  1.0000 0.1212163903
H   H34       1.0  0.39661  0.60339  0.67518  1.0000 0.1212163903
H   H35       1.0  0.27903  0.72097  0.00945  1.0000 0.1277926505
H   H36       1.0  0.15926  0.84074  0.89201  1.0000 0.1277926505
H   H37       1.0  0.72312  0.27688  0.44489  1.0000 0.1212163903
H   H38       1.0  0.60339  0.39661  0.32482  1.0000 0.1212163903
H   H39       1.0  0.72097  0.27903  0.99055  1.0000 0.1277926505
H   H40       1.0  0.84074  0.15926  0.10799  1.0000 0.1277926505
C   C1        1.0  0.39970  0.47350  0.96570  1.0000 0.0566942431
C   C2        1.0  0.29350  0.44410  0.93220  1.0000 -0.4473479502
C   C3        1.0  0.80490  0.70890  0.41760  1.0000 -0.0949156322
C   C4        1.0  0.73450  0.63630  0.41880  1.0000 -0.1502245106
C   C5        1.0  0.58628  0.48530  0.58900  1.0000 0.0530173182
C   C6        1.0  0.67880  0.46980  0.68410  1.0000 -0.4584093206
C   C7        1.0  0.47350  0.39970  0.03430  1.0000 0.0566942431
C   C8        1.0  0.44410  0.29350  0.06780  1.0000 -0.4473479502
C   C9        1.0  0.70890  0.80490  0.58240  1.0000 -0.0949156322
C   C10       1.0  0.63630  0.73450  0.58120  1.0000 -0.1502245106
C   C11       1.0  0.48530  0.58628  0.41100  1.0000 0.0530173182
C   C12       1.0  0.46980  0.67880  0.31590  1.0000 -0.4584093206
C   C13       1.0  0.60030  0.52650  0.03430  1.0000 0.0566942431
C   C14       1.0  0.70650  0.55590  0.06780  1.0000 -0.4473479502
C   C15       1.0  0.19510  0.29110  0.58240  1.0000 -0.0949156322
C   C16       1.0  0.26550  0.36370  0.58120  1.0000 -0.1502245106
C   C17       1.0  0.41372  0.51470  0.41100  1.0000 0.0530173182
C   C18       1.0  0.32120  0.53020  0.31590  1.0000 -0.4584093206
C   C19       1.0  0.52650  0.60030  0.96570  1.0000 0.0566942431
C   C20       1.0  0.55590  0.70650  0.93220  1.0000 -0.4473479502
C   C21       1.0  0.29110  0.19510  0.41760  1.0000 -0.0949156322
C   C22       1.0  0.36370  0.26550  0.41880  1.0000 -0.1502245106
C   C23       1.0  0.51470  0.41372  0.58900  1.0000 0.0530173182
C   C24       1.0  0.53020  0.32120  0.68410  1.0000 -0.4584093206
C   C25       1.0  0.12830  0.87170  0.63250  1.0000 0.5760882832
C   C26       1.0  0.20540  0.79460  0.71050  1.0000 -0.0229858626
C   C27       1.0  0.27680  0.72320  0.64800  1.0000 -0.0993629507
C   C28       1.0  0.34820  0.65180  0.71950  1.0000 -0.1502245106
C   C29       1.0  0.34960  0.65040  0.85680  1.0000 0.1014951263
C   C30       1.0  0.27910  0.72090  0.91660  1.0000 -0.1502245106
C   C31       1.0  0.20730  0.79270  0.84680  1.0000 -0.0993629507
C   C32       1.0  0.42720  0.57280  0.93280  1.0000 -0.0597834513
C   C33       1.0  0.87170  0.12830  0.36750  1.0000 0.5760882832
C   C34       1.0  0.79460  0.20540  0.28950  1.0000 -0.0229858626
C   C35       1.0  0.72320  0.27680  0.35200  1.0000 -0.0993629507
C   C36       1.0  0.65180  0.34820  0.28050  1.0000 -0.1502245106
C   C37       1.0  0.65040  0.34960  0.14320  1.0000 0.1014951263
C   C38       1.0  0.72090  0.27910  0.08340  1.0000 -0.1502245106
C   C39       1.0  0.79270  0.20730  0.15320  1.0000 -0.0993629507
C   C40       1.0  0.57280  0.42720  0.06720  1.0000 -0.0597834513
C   C41       1.0  0.86980  0.86980  0.50000  1.0000 0.5862351694
C   C42       1.0  0.79260  0.79260  0.50000  1.0000 -0.0229858626
C   C43       1.0  0.64800  0.64800  0.50000  1.0000 0.1014951263
C   C44       1.0  0.57190  0.57190  0.50000  1.0000 -0.0689252578
C   C45       1.0  0.13020  0.13020  0.50000  1.0000 0.5862351694
C   C46       1.0  0.20740  0.20740  0.50000  1.0000 -0.0229858626
C   C47       1.0  0.35200  0.35200  0.50000  1.0000 0.1014951263
C   C48       1.0  0.42810  0.42810  0.50000  1.0000 -0.0689252578
O   O1        1.0  0.93368  0.86542  0.40740  1.0000 -0.5207084678
O   O2        1.0  0.86542  0.93368  0.59260  1.0000 -0.5207084678
O   O3        1.0  0.06632  0.13458  0.59260  1.0000 -0.5207084678
O   O4        1.0  0.13458  0.06632  0.40740  1.0000 -0.5207084678
O   O5        1.0  0.13294  0.86706  0.51040  1.0000 -0.5270300172
O   O6        1.0  0.06610  0.93390  0.69480  1.0000 -0.5083780549
O   O7        1.0  0.86706  0.13294  0.48960  1.0000 -0.5270300172
O   O8        1.0  0.93390  0.06610  0.30520  1.0000 -0.5083780549
