# DDEC6 charges by PACMAN v1.1 (https://github.com/mtap-research/PACMAN-charge/)
data_2019[Co][sql]2[ASR]3
_chemical_formula_sum              "Co4 H108 C156 N20 O16"
_cell_length_a       8.142
_cell_length_b       14.526
_cell_length_c       35.38
_cell_angle_alpha    89.923
_cell_angle_beta     93.106
_cell_angle_gamma    105.229

_symmetry_space_group_name_H-M    "P 1"
_symmetry_Int_Tables_number       1

loop_
  _symmetry_equiv_pos_as_xyz
  'x, y, z'

loop_
  _atom_site_type_symbol
  _atom_site_label
  _atom_site_symmetry_multiplicity
  _atom_site_fract_x
  _atom_site_fract_y
  _atom_site_fract_z
  _atom_site_occupancy
  _atom_site_charge
Co  Co1       1.0  0.59790  0.80071  0.84722  1.0000 0.7899855906
Co  Co2       1.0  0.14080  0.81511  0.65376  1.0000 0.7841742172
Co  Co3       1.0  0.40210  0.19929  0.15278  1.0000 0.7899855906
Co  Co4       1.0  0.85920  0.18489  0.34624  1.0000 0.7899855906
H   H1        1.0  0.74430  0.02450  0.93310  1.0000 0.1299734289
H   H2        1.0  0.07970  0.11970  0.85500  1.0000 0.1106423646
H   H3        1.0  0.19950  0.25870  0.89050  1.0000 0.1196575087
H   H4        1.0  0.85360  0.16540  0.96770  1.0000 0.1196575087
H   H5        1.0  0.13660  0.31330  0.09550  1.0000 0.1196575087
H   H6        1.0  0.28180  0.22210  0.06100  1.0000 0.1196575087
H   H7        1.0  0.00620  0.41010  0.06610  1.0000 0.1106423646
H   H8        1.0  0.23490  0.21000  0.99650  1.0000 0.1299734289
H   H9        1.0  0.98010  0.41160  0.00120  1.0000 0.1196575087
H   H10       1.0  0.31730  0.47410  0.97310  1.0000 0.1299734289
H   H11       1.0  0.99810  0.36620  0.88590  1.0000 0.1196575087
H   H12       1.0  0.10500  0.50420  0.85310  1.0000 0.1106423646
H   H13       1.0  0.42420  0.60780  0.94060  1.0000 0.1196575087
H   H14       1.0  0.43920  0.78310  0.75930  1.0000 0.1196575087
H   H15       1.0  0.50570  0.99190  0.83240  1.0000 0.1106423646
H   H16       1.0  0.38640  0.92080  0.72490  1.0000 0.1299734289
H   H17       1.0  0.46180  0.09180  0.71580  1.0000 0.147820039
H   H18       1.0  0.32020  0.09040  0.82310  1.0000 0.1299734289
H   H19       1.0  0.30810  0.24780  0.81830  1.0000 0.1196575087
H   H20       1.0  0.54550  0.29360  0.69190  1.0000 0.1299734289
H   H21       1.0  0.35140  0.25230  0.67900  1.0000 0.1391840083
H   H22       1.0  0.29110  0.42360  0.79760  1.0000 0.1196575087
H   H23       1.0  0.32210  0.56610  0.76860  1.0000 0.1299734289
H   H24       1.0  0.43110  0.46520  0.67170  1.0000 0.1299734289
H   H25       1.0  0.63090  0.67220  0.68910  1.0000 0.1299734289
H   H26       1.0  0.53030  0.80810  0.66400  1.0000 0.1299734289
H   H27       1.0  0.12690  0.62420  0.69670  1.0000 0.1196575087
H   H28       1.0  0.94350  0.78570  0.73410  1.0000 0.1196575087
H   H29       1.0  0.07510  0.00910  0.66940  1.0000 0.1106423646
H   H30       1.0  0.85120  0.91470  0.76440  1.0000 0.1299734289
H   H31       1.0  0.88580  0.08060  0.78150  1.0000 0.147820039
H   H32       1.0  0.97700  0.12940  0.67180  1.0000 0.1196575087
H   H33       1.0  0.93950  0.28150  0.67740  1.0000 0.1196575087
H   H34       1.0  0.72810  0.23010  0.80820  1.0000 0.1391840083
H   H35       1.0  0.92630  0.26660  0.81790  1.0000 0.1299734289
H   H36       1.0  0.88310  0.44490  0.69920  1.0000 0.1196575087
H   H37       1.0  0.86840  0.58090  0.73190  1.0000 0.1299734289
H   H38       1.0  0.81440  0.43910  0.82880  1.0000 0.1391840083
H   H39       1.0  0.59180  0.59730  0.81110  1.0000 0.1196575087
H   H40       1.0  0.08230  0.68550  0.80300  1.0000 0.1391840083
H   H41       1.0  0.99260  0.81220  0.82920  1.0000 0.1299734289
H   H42       1.0  0.67660  0.50250  0.64900  1.0000 0.1106423646
H   H43       1.0  0.93490  0.61360  0.55900  1.0000 0.1196575087
H   H44       1.0  0.81550  0.47530  0.52570  1.0000 0.1299734289
H   H45       1.0  0.56530  0.36290  0.61560  1.0000 0.1196575087
H   H46       1.0  0.51070  0.39580  0.43090  1.0000 0.1106423646
H   H47       1.0  0.63160  0.29250  0.40560  1.0000 0.1196575087
H   H48       1.0  0.49330  0.41040  0.49660  1.0000 0.1196575087
H   H49       1.0  0.74640  0.19290  0.44320  1.0000 0.1299734289
H   H50       1.0  0.74140  0.20880  0.50830  1.0000 0.1299734289
H   H51       1.0  0.35700  0.17140  0.53220  1.0000 0.1299734289
H   H52       1.0  0.74950  0.25270  0.60890  1.0000 0.1196575087
H   H53       1.0  0.25510  0.03600  0.56730  1.0000 0.1299734289
H   H54       1.0  0.63890  0.12230  0.64360  1.0000 0.1196575087
H   H55       1.0  0.25570  0.97550  0.06690  1.0000 0.1299734289
H   H56       1.0  0.92030  0.88030  0.14500  1.0000 0.1106423646
H   H57       1.0  0.80050  0.74130  0.10950  1.0000 0.1196575087
H   H58       1.0  0.14640  0.83460  0.03230  1.0000 0.1196575087
H   H59       1.0  0.86340  0.68670  0.90450  1.0000 0.1196575087
H   H60       1.0  0.71820  0.77790  0.93900  1.0000 0.1196575087
H   H61       1.0  0.99380  0.58990  0.93390  1.0000 0.1106423646
H   H62       1.0  0.76510  0.79000  0.00350  1.0000 0.1299734289
H   H63       1.0  0.01990  0.58840  0.99880  1.0000 0.1196575087
H   H64       1.0  0.68270  0.52590  0.02690  1.0000 0.1299734289
H   H65       1.0  0.00190  0.63380  0.11410  1.0000 0.1196575087
H   H66       1.0  0.89500  0.49580  0.14690  1.0000 0.1106423646
H   H67       1.0  0.57580  0.39220  0.05940  1.0000 0.1196575087
H   H68       1.0  0.56080  0.21690  0.24070  1.0000 0.1196575087
H   H69       1.0  0.49430  0.00810  0.16760  1.0000 0.1106423646
H   H70       1.0  0.61360  0.07920  0.27510  1.0000 0.1299734289
H   H71       1.0  0.53820  0.90820  0.28420  1.0000 0.147820039
H   H72       1.0  0.67980  0.90960  0.17690  1.0000 0.1299734289
H   H73       1.0  0.69190  0.75220  0.18170  1.0000 0.1196575087
H   H74       1.0  0.45450  0.70640  0.30810  1.0000 0.1299734289
H   H75       1.0  0.64860  0.74770  0.32100  1.0000 0.1391840083
H   H76       1.0  0.70890  0.57640  0.20240  1.0000 0.1196575087
H   H77       1.0  0.67790  0.43390  0.23140  1.0000 0.1299734289
H   H78       1.0  0.56890  0.53480  0.32830  1.0000 0.1299734289
H   H79       1.0  0.36910  0.32780  0.31090  1.0000 0.1299734289
H   H80       1.0  0.46970  0.19190  0.33600  1.0000 0.1299734289
H   H81       1.0  0.87310  0.37580  0.30330  1.0000 0.1196575087
H   H82       1.0  0.05650  0.21430  0.26590  1.0000 0.1196575087
H   H83       1.0  0.92490  0.99090  0.33060  1.0000 0.1106423646
H   H84       1.0  0.14880  0.08530  0.23560  1.0000 0.1299734289
H   H85       1.0  0.11420  0.91940  0.21850  1.0000 0.147820039
H   H86       1.0  0.02300  0.87060  0.32820  1.0000 0.1196575087
H   H87       1.0  0.06050  0.71850  0.32260  1.0000 0.1196575087
H   H88       1.0  0.27190  0.76990  0.19180  1.0000 0.1391840083
H   H89       1.0  0.07370  0.73340  0.18210  1.0000 0.1299734289
H   H90       1.0  0.11690  0.55510  0.30080  1.0000 0.1196575087
H   H91       1.0  0.13160  0.41910  0.26810  1.0000 0.1299734289
H   H92       1.0  0.18560  0.56090  0.17120  1.0000 0.1391840083
H   H93       1.0  0.40820  0.40270  0.18890  1.0000 0.1196575087
H   H94       1.0  0.91770  0.31450  0.19700  1.0000 0.1391840083
H   H95       1.0  0.00740  0.18780  0.17080  1.0000 0.1299734289
H   H96       1.0  0.32340  0.49750  0.35100  1.0000 0.1106423646
H   H97       1.0  0.06510  0.38640  0.44100  1.0000 0.1196575087
H   H98       1.0  0.18450  0.52470  0.47430  1.0000 0.1299734289
H   H99       1.0  0.43470  0.63710  0.38440  1.0000 0.1196575087
H   H100      1.0  0.48930  0.60420  0.56910  1.0000 0.1106423646
H   H101      1.0  0.36840  0.70750  0.59440  1.0000 0.1196575087
H   H102      1.0  0.50670  0.58960  0.50340  1.0000 0.1196575087
H   H103      1.0  0.25360  0.80710  0.55680  1.0000 0.1299734289
H   H104      1.0  0.25860  0.79120  0.49170  1.0000 0.1299734289
H   H105      1.0  0.64300  0.82860  0.46780  1.0000 0.1299734289
H   H106      1.0  0.25050  0.74730  0.39110  1.0000 0.1196575087
H   H107      1.0  0.74490  0.96400  0.43270  1.0000 0.1299734289
H   H108      1.0  0.36110  0.87770  0.35640  1.0000 0.1196575087
C   C1        1.0  0.82700  0.96970  0.86800  1.0000 0.5386895075
C   C2        1.0  0.89700  0.05720  0.89090  1.0000 -0.0582685896
C   C3        1.0  0.83400  0.07160  0.92400  1.0000 -0.0828991995
C   C4        1.0  0.03500  0.12870  0.87790  1.0000 -0.0999952293
C   C5        1.0  0.10600  0.21330  0.89890  1.0000 -0.2017814756
C   C6        1.0  0.90000  0.15660  0.94500  1.0000 -0.178823036
C   C7        1.0  0.03400  0.22770  0.93170  1.0000 0.1802216604
C   C8        1.0  0.13300  0.31500  0.06920  1.0000 -0.1121519782
C   C9        1.0  0.21500  0.25670  0.04840  1.0000 -0.0699656114
C   C10       1.0  0.05400  0.37060  0.05210  1.0000 -0.0699656114
C   C11       1.0  0.19400  0.25280  0.01020  1.0000 -0.178823036
C   C12       1.0  0.03800  0.37170  0.01330  1.0000 -0.1899640858
C   C13       1.0  0.11100  0.31220  0.99190  1.0000 0.1698687546
C   C14       1.0  0.15000  0.40470  0.93300  1.0000 0.1802216604
C   C15       1.0  0.27500  0.47890  0.94840  1.0000 -0.178823036
C   C16       1.0  0.08600  0.41470  0.89690  1.0000 -0.1899640858
C   C17       1.0  0.15200  0.49740  0.87720  1.0000 -0.1121519782
C   C18       1.0  0.34000  0.55850  0.92900  1.0000 -0.0999952293
C   C19       1.0  0.28200  0.56840  0.89160  1.0000 -0.0389115695
C   C20       1.0  0.36800  0.64980  0.86810  1.0000 0.5330188706
C   C21       1.0  0.44800  0.84270  0.77000  1.0000 -0.0389115695
C   C22       1.0  0.48100  0.95580  0.81010  1.0000 0.0904450662
C   C23       1.0  0.41300  0.91800  0.75080  1.0000 -0.0999952293
C   C24       1.0  0.40000  0.07970  0.77030  1.0000 0.1582746491
C   C25       1.0  0.42900  0.12270  0.73590  1.0000 -0.2419966355
C   C26       1.0  0.34700  0.12340  0.80080  1.0000 -0.2017814756
C   C27       1.0  0.33300  0.21610  0.79740  1.0000 -0.1210382596
C   C28       1.0  0.40800  0.21390  0.73230  1.0000 0.0986931644
C   C29       1.0  0.35700  0.26050  0.76360  1.0000 -0.0009779225
C   C30       1.0  0.43000  0.27950  0.70010  1.0000 -0.3159632847
C   C31       1.0  0.35400  0.35730  0.75270  1.0000 0.0049255969
C   C32       1.0  0.32100  0.43090  0.77260  1.0000 -0.1277034875
C   C33       1.0  0.33300  0.51410  0.75460  1.0000 -0.1722117901
C   C34       1.0  0.40000  0.45580  0.69670  1.0000 -0.2419966355
C   C35       1.0  0.36100  0.52590  0.71790  1.0000 0.1391840083
C   C36       1.0  0.52000  0.67850  0.68850  1.0000 -0.0699656114
C   C37       1.0  0.46100  0.75360  0.67440  1.0000 -0.020630661
C   C38       1.0  0.24000  0.65460  0.69240  1.0000 0.0588868692
C   C39       1.0  0.95900  0.84740  0.72510  1.0000 -0.0389115695
C   C40       1.0  0.03300  0.96990  0.68940  1.0000 0.0904450662
C   C41       1.0  0.90900  0.91900  0.74220  1.0000 -0.0828991995
C   C42       1.0  0.93500  0.09120  0.72600  1.0000 0.1698687546
C   C43       1.0  0.89500  0.12090  0.76080  1.0000 -0.2322883919
C   C44       1.0  0.95100  0.15060  0.69490  1.0000 -0.2017814756
C   C45       1.0  0.92800  0.24160  0.69830  1.0000 -0.1277034875
C   C46       1.0  0.89000  0.27180  0.73200  1.0000 0.0183561811
C   C47       1.0  0.87000  0.20980  0.76450  1.0000 0.0986931644
C   C48       1.0  0.83700  0.26170  0.79820  1.0000 -0.3013078238
C   C49       1.0  0.86600  0.36400  0.74510  1.0000 0.0091459761
C   C50       1.0  0.83600  0.35890  0.78300  1.0000 0.0986931644
C   C51       1.0  0.87100  0.44380  0.72520  1.0000 -0.1210382596
C   C52       1.0  0.85900  0.52410  0.74480  1.0000 -0.1899640858
C   C53       1.0  0.83400  0.52150  0.78240  1.0000 0.1391840083
C   C54       1.0  0.82600  0.44010  0.80280  1.0000 -0.2419966355
C   C55       1.0  0.70300  0.63550  0.81250  1.0000 0.1106423646
C   C56       1.0  0.97100  0.68400  0.80810  1.0000 -0.0914858886
C   C57       1.0  0.92200  0.75260  0.82230  1.0000 -0.0389115695
C   C58       1.0  0.90200  0.65560  0.63190  1.0000 0.5386895075
C   C59       1.0  0.82100  0.57190  0.60890  1.0000 -0.0699656114
C   C60       1.0  0.70900  0.49690  0.62440  1.0000 -0.0914858886
C   C61       1.0  0.86100  0.56290  0.57060  1.0000 -0.0828991995
C   C62       1.0  0.79100  0.47950  0.55090  1.0000 -0.1899640858
C   C63       1.0  0.64200  0.41310  0.60440  1.0000 -0.2017814756
C   C64       1.0  0.68700  0.40240  0.56730  1.0000 0.190723589
C   C65       1.0  0.55700  0.35700  0.44700  1.0000 -0.0914858886
C   C66       1.0  0.62800  0.29600  0.43180  1.0000 -0.0999952293
C   C67       1.0  0.54700  0.36790  0.48620  1.0000 -0.178823036
C   C68       1.0  0.69800  0.23740  0.45380  1.0000 -0.0699656114
C   C69       1.0  0.62200  0.31040  0.50750  1.0000 0.1391840083
C   C70       1.0  0.69400  0.24700  0.49240  1.0000 -0.1722117901
C   C71       1.0  0.56500  0.23200  0.56810  1.0000 0.190723589
C   C72       1.0  0.41400  0.16220  0.55480  1.0000 -0.1899640858
C   C73       1.0  0.64700  0.21100  0.60050  1.0000 -0.2017814756
C   C74       1.0  0.35500  0.08070  0.57570  1.0000 -0.0914858886
C   C75       1.0  0.58300  0.13120  0.62090  1.0000 -0.0914858886
C   C76       1.0  0.44000  0.06470  0.60880  1.0000 -0.0316285534
C   C77       1.0  0.36500  0.97560  0.63110  1.0000 0.5330188706
C   C78       1.0  0.39100  0.36880  0.71540  1.0000 0.0986931644
C   C79       1.0  0.17300  0.03030  0.13200  1.0000 0.5386895075
C   C80       1.0  0.10300  0.94280  0.10910  1.0000 -0.0582685896
C   C81       1.0  0.16600  0.92840  0.07600  1.0000 -0.0828991995
C   C82       1.0  0.96500  0.87130  0.12210  1.0000 -0.0999952293
C   C83       1.0  0.89400  0.78670  0.10110  1.0000 -0.2017814756
C   C84       1.0  0.10000  0.84340  0.05500  1.0000 -0.178823036
C   C85       1.0  0.96600  0.77230  0.06830  1.0000 0.1802216604
C   C86       1.0  0.86700  0.68500  0.93080  1.0000 -0.1121519782
C   C87       1.0  0.78500  0.74330  0.95160  1.0000 -0.0699656114
C   C88       1.0  0.94600  0.62940  0.94790  1.0000 -0.0699656114
C   C89       1.0  0.80600  0.74720  0.98980  1.0000 -0.178823036
C   C90       1.0  0.96200  0.62830  0.98670  1.0000 -0.1899640858
C   C91       1.0  0.88900  0.68780  0.00810  1.0000 0.1698687546
C   C92       1.0  0.85000  0.59530  0.06700  1.0000 0.1802216604
C   C93       1.0  0.72500  0.52110  0.05160  1.0000 -0.178823036
C   C94       1.0  0.91400  0.58530  0.10310  1.0000 -0.1899640858
C   C95       1.0  0.84800  0.50260  0.12280  1.0000 -0.1121519782
C   C96       1.0  0.66000  0.44150  0.07100  1.0000 -0.0999952293
C   C97       1.0  0.71800  0.43160  0.10840  1.0000 -0.0389115695
C   C98       1.0  0.63200  0.35020  0.13190  1.0000 0.5330188706
C   C99       1.0  0.55200  0.15730  0.23000  1.0000 -0.0389115695
C   C100      1.0  0.51900  0.04420  0.18990  1.0000 0.0904450662
C   C101      1.0  0.58700  0.08200  0.24920  1.0000 -0.0914858886
C   C102      1.0  0.60000  0.92030  0.22970  1.0000 0.1582746491
C   C103      1.0  0.57100  0.87730  0.26410  1.0000 -0.2419966355
C   C104      1.0  0.65300  0.87660  0.19920  1.0000 -0.2017814756
C   C105      1.0  0.66700  0.78390  0.20260  1.0000 -0.1210382596
C   C106      1.0  0.59200  0.78610  0.26770  1.0000 0.0986931644
C   C107      1.0  0.64300  0.73950  0.23640  1.0000 -0.0009779225
C   C108      1.0  0.57000  0.72050  0.29990  1.0000 -0.3159632847
C   C109      1.0  0.64600  0.64270  0.24730  1.0000 0.0091459761
C   C110      1.0  0.67900  0.56910  0.22740  1.0000 -0.1277034875
C   C111      1.0  0.66700  0.48590  0.24540  1.0000 -0.1722117901
C   C112      1.0  0.60000  0.54420  0.30330  1.0000 -0.2419966355
C   C113      1.0  0.63900  0.47410  0.28210  1.0000 0.1391840083
C   C114      1.0  0.48000  0.32150  0.31150  1.0000 -0.0699656114
C   C115      1.0  0.53900  0.24640  0.32560  1.0000 -0.020630661
C   C116      1.0  0.76000  0.34540  0.30760  1.0000 0.0588868692
C   C117      1.0  0.04100  0.15260  0.27490  1.0000 -0.0389115695
C   C118      1.0  0.96700  0.03010  0.31060  1.0000 0.0904450662
C   C119      1.0  0.09100  0.08100  0.25780  1.0000 -0.0828991995
C   C120      1.0  0.06500  0.90880  0.27400  1.0000 0.1698687546
C   C121      1.0  0.10500  0.87910  0.23920  1.0000 -0.2322883919
C   C122      1.0  0.04900  0.84940  0.30510  1.0000 -0.2017814756
C   C123      1.0  0.07200  0.75840  0.30170  1.0000 -0.1277034875
C   C124      1.0  0.11000  0.72820  0.26800  1.0000 0.0183561811
C   C125      1.0  0.13000  0.79020  0.23550  1.0000 0.0986931644
C   C126      1.0  0.16300  0.73830  0.20180  1.0000 -0.3079268203
C   C127      1.0  0.13400  0.63600  0.25490  1.0000 0.0091459761
C   C128      1.0  0.16400  0.64110  0.21700  1.0000 0.0986931644
C   C129      1.0  0.12900  0.55620  0.27480  1.0000 -0.1210382596
C   C130      1.0  0.14100  0.47590  0.25520  1.0000 -0.1899640858
C   C131      1.0  0.16600  0.47850  0.21760  1.0000 0.1391840083
C   C132      1.0  0.17400  0.55990  0.19720  1.0000 -0.2450093046
C   C133      1.0  0.29700  0.36450  0.18750  1.0000 0.1106423646
C   C134      1.0  0.02900  0.31600  0.19190  1.0000 -0.0914858886
C   C135      1.0  0.07800  0.24740  0.17770  1.0000 -0.0389115695
C   C136      1.0  0.09800  0.34440  0.36810  1.0000 0.5386895075
C   C137      1.0  0.17900  0.42810  0.39110  1.0000 -0.0699656114
C   C138      1.0  0.29100  0.50310  0.37560  1.0000 -0.0914858886
C   C139      1.0  0.13900  0.43710  0.42940  1.0000 -0.0828991995
C   C140      1.0  0.20900  0.52050  0.44910  1.0000 -0.1899640858
C   C141      1.0  0.35800  0.58690  0.39560  1.0000 -0.2017814756
C   C142      1.0  0.31300  0.59760  0.43270  1.0000 0.190723589
C   C143      1.0  0.44300  0.64300  0.55300  1.0000 -0.0914858886
C   C144      1.0  0.37200  0.70400  0.56820  1.0000 -0.0999952293
C   C145      1.0  0.45300  0.63210  0.51380  1.0000 -0.178823036
C   C146      1.0  0.30200  0.76260  0.54620  1.0000 -0.0699656114
C   C147      1.0  0.37800  0.68960  0.49250  1.0000 0.1391840083
C   C148      1.0  0.30600  0.75300  0.50760  1.0000 -0.1722117901
C   C149      1.0  0.43500  0.76800  0.43190  1.0000 0.190723589
C   C150      1.0  0.58600  0.83780  0.44520  1.0000 -0.1899640858
C   C151      1.0  0.35300  0.78900  0.39950  1.0000 -0.2017814756
C   C152      1.0  0.64500  0.91930  0.42430  1.0000 -0.0914858886
C   C153      1.0  0.41700  0.86880  0.37910  1.0000 -0.0914858886
C   C154      1.0  0.56000  0.93530  0.39120  1.0000 -0.0316285534
C   C155      1.0  0.63500  0.02440  0.36890  1.0000 0.5330188706
C   C156      1.0  0.60900  0.63120  0.28460  1.0000 0.0986931644
N   N1        1.0  0.09200  0.31750  0.95170  1.0000 -0.178823036
N   N2        1.0  0.49730  0.86680  0.80740  1.0000 -0.3079268203
N   N3        1.0  0.42380  0.98840  0.77760  1.0000 0.0091459761
N   N4        1.0  0.38400  0.61760  0.70110  1.0000 0.0091459761
N   N5        1.0  0.29500  0.73870  0.67750  1.0000 -0.2839903772
N   N6        1.0  0.62300  0.31500  0.54880  1.0000 -0.1588855997
N   N7        1.0  0.03570  0.88180  0.69230  1.0000 -0.2839903772
N   N8        1.0  0.95880  0.99800  0.72050  1.0000 0.0091459761
N   N9        1.0  0.83400  0.60930  0.80200  1.0000 0.0091459761
N   N10       1.0  0.75100  0.72560  0.82590  1.0000 -0.3013078238
N   N11       1.0  0.90800  0.68250  0.04830  1.0000 -0.178823036
N   N12       1.0  0.50270  0.13320  0.19260  1.0000 -0.3079268203
N   N13       1.0  0.57620  0.01160  0.22240  1.0000 0.0091459761
N   N14       1.0  0.61600  0.38240  0.29890  1.0000 0.0091459761
N   N15       1.0  0.70500  0.26130  0.32250  1.0000 -0.2839903772
N   N16       1.0  0.37700  0.68500  0.45120  1.0000 -0.1588855997
N   N17       1.0  0.96430  0.11820  0.30770  1.0000 -0.2839903772
N   N18       1.0  0.04120  0.00200  0.27950  1.0000 0.0091459761
N   N19       1.0  0.16600  0.39070  0.19800  1.0000 0.0091459761
N   N20       1.0  0.24900  0.27440  0.17410  1.0000 -0.3013078238
O   O1        1.0  0.88320  0.96100  0.83570  1.0000 -0.5910086498
O   O2        1.0  0.71360  0.90470  0.88170  1.0000 -0.5268637702
O   O3        1.0  0.35120  0.64640  0.83310  1.0000 -0.5586237178
O   O4        1.0  0.46950  0.72000  0.88500  1.0000 -0.5067301855
O   O5        1.0  0.23600  0.91740  0.61760  1.0000 -0.5166427955
O   O6        1.0  0.43290  0.97040  0.66300  1.0000 -0.5709986553
O   O7        1.0  0.99870  0.72740  0.61550  1.0000 -0.5268637702
O   O8        1.0  0.88990  0.65670  0.66667  1.0000 -0.5709986553
O   O9        1.0  0.11680  0.03900  0.16430  1.0000 -0.5910086498
O   O10       1.0  0.28640  0.09530  0.11830  1.0000 -0.5268637702
O   O11       1.0  0.64880  0.35360  0.16690  1.0000 -0.5586237178
O   O12       1.0  0.53050  0.28000  0.11500  1.0000 -0.5067301855
O   O13       1.0  0.76400  0.08260  0.38240  1.0000 -0.5166427955
O   O14       1.0  0.56710  0.02960  0.33700  1.0000 -0.5709986553
O   O15       1.0  0.00130  0.27260  0.38450  1.0000 -0.5268637702
O   O16       1.0  0.11010  0.34330  0.33333  1.0000 -0.5709986553
