# DDEC6 charges by PACMAN v1.1 (https://github.com/mtap-research/PACMAN-charge/)
data_2019[Co][dia]3[ASR]2
_chemical_formula_sum              "Co4 H72 C112 N32 O16"
_cell_length_a       8.495
_cell_length_b       15.864
_cell_length_c       21.75
_cell_angle_alpha    90
_cell_angle_beta     90
_cell_angle_gamma    90

_symmetry_space_group_name_H-M    "P 1"
_symmetry_Int_Tables_number       1

loop_
  _symmetry_equiv_pos_as_xyz
  'x, y, z'

loop_
  _atom_site_type_symbol
  _atom_site_label
  _atom_site_symmetry_multiplicity
  _atom_site_fract_x
  _atom_site_fract_y
  _atom_site_fract_z
  _atom_site_occupancy
  _atom_site_charge
Co  Co1       1.0  0.77760  0.25000  0.00000  1.0000 0.7632160804
Co  Co2       1.0  0.77760  0.75000  0.50000  1.0000 0.7632160804
Co  Co3       1.0  0.22240  0.25000  0.50000  1.0000 0.7632160804
Co  Co4       1.0  0.22240  0.75000  0.00000  1.0000 0.7632160804
H   H1        1.0  0.38920  0.77730  0.15890  1.0000 0.2774315646
H   H2        1.0  0.62520  0.98180  0.04450  1.0000 0.121801717
H   H3        1.0  0.50790  0.87400  0.09940  1.0000 0.131040389
H   H4        1.0  0.32670  0.04380  0.21640  1.0000 0.121801717
H   H5        1.0  0.43450  0.15060  0.15960  1.0000 0.1126491693
H   H6        1.0  0.11260  0.67230  0.31890  1.0000 0.131040389
H   H7        1.0  0.95720  0.65110  0.40340  1.0000 0.1126491693
H   H8        1.0  0.94350  0.89140  0.43730  1.0000 0.1126491693
H   H9        1.0  0.10450  0.91890  0.35500  1.0000 0.1413377619
H   H10       1.0  0.38920  0.72270  0.84110  1.0000 0.2774315646
H   H11       1.0  0.62520  0.51820  0.95550  1.0000 0.121801717
H   H12       1.0  0.50790  0.62600  0.90060  1.0000 0.131040389
H   H13       1.0  0.32670  0.45620  0.78360  1.0000 0.121801717
H   H14       1.0  0.43450  0.34940  0.84040  1.0000 0.1126491693
H   H15       1.0  0.11260  0.82770  0.68110  1.0000 0.131040389
H   H16       1.0  0.95720  0.84890  0.59660  1.0000 0.1126491693
H   H17       1.0  0.94350  0.60860  0.56270  1.0000 0.1126491693
H   H18       1.0  0.10450  0.58110  0.64500  1.0000 0.1413377619
H   H19       1.0  0.38920  0.22270  0.65890  1.0000 0.2774315646
H   H20       1.0  0.62520  0.01820  0.54450  1.0000 0.121801717
H   H21       1.0  0.50790  0.12600  0.59940  1.0000 0.131040389
H   H22       1.0  0.32670  0.95620  0.71640  1.0000 0.121801717
H   H23       1.0  0.43450  0.84940  0.65960  1.0000 0.1126491693
H   H24       1.0  0.11260  0.32770  0.81890  1.0000 0.131040389
H   H25       1.0  0.95720  0.34890  0.90340  1.0000 0.1126491693
H   H26       1.0  0.94350  0.10860  0.93730  1.0000 0.1126491693
H   H27       1.0  0.10450  0.08110  0.85500  1.0000 0.1413377619
H   H28       1.0  0.38920  0.27730  0.34110  1.0000 0.2774315646
H   H29       1.0  0.62520  0.48180  0.45550  1.0000 0.121801717
H   H30       1.0  0.50790  0.37400  0.40060  1.0000 0.131040389
H   H31       1.0  0.32670  0.54380  0.28360  1.0000 0.121801717
H   H32       1.0  0.43450  0.65060  0.34040  1.0000 0.1126491693
H   H33       1.0  0.11260  0.17230  0.18110  1.0000 0.131040389
H   H34       1.0  0.95720  0.15110  0.09660  1.0000 0.1126491693
H   H35       1.0  0.94350  0.39140  0.06270  1.0000 0.1126491693
H   H36       1.0  0.10450  0.41890  0.14500  1.0000 0.1413377619
H   H37       1.0  0.61080  0.77730  0.34110  1.0000 0.2774315646
H   H38       1.0  0.37480  0.98180  0.45550  1.0000 0.121801717
H   H39       1.0  0.49210  0.87400  0.40060  1.0000 0.131040389
H   H40       1.0  0.67330  0.04380  0.28360  1.0000 0.121801717
H   H41       1.0  0.56550  0.15060  0.34040  1.0000 0.1126491693
H   H42       1.0  0.88740  0.67230  0.18110  1.0000 0.131040389
H   H43       1.0  0.04280  0.65110  0.09660  1.0000 0.1126491693
H   H44       1.0  0.05650  0.89140  0.06270  1.0000 0.1126491693
H   H45       1.0  0.89550  0.91890  0.14500  1.0000 0.1413377619
H   H46       1.0  0.61080  0.72270  0.65890  1.0000 0.2774315646
H   H47       1.0  0.37480  0.51820  0.54450  1.0000 0.121801717
H   H48       1.0  0.49210  0.62600  0.59940  1.0000 0.131040389
H   H49       1.0  0.67330  0.45620  0.71640  1.0000 0.121801717
H   H50       1.0  0.56550  0.34940  0.65960  1.0000 0.1126491693
H   H51       1.0  0.88740  0.82770  0.81890  1.0000 0.131040389
H   H52       1.0  0.04280  0.84890  0.90340  1.0000 0.1126491693
H   H53       1.0  0.05650  0.60860  0.93730  1.0000 0.1126491693
H   H54       1.0  0.89550  0.58110  0.85500  1.0000 0.1413377619
H   H55       1.0  0.61080  0.22270  0.84110  1.0000 0.2774315646
H   H56       1.0  0.37480  0.01820  0.95550  1.0000 0.121801717
H   H57       1.0  0.49210  0.12600  0.90060  1.0000 0.131040389
H   H58       1.0  0.67330  0.95620  0.78360  1.0000 0.121801717
H   H59       1.0  0.56550  0.84940  0.84040  1.0000 0.1126491693
H   H60       1.0  0.88740  0.32770  0.68110  1.0000 0.131040389
H   H61       1.0  0.04280  0.34890  0.59660  1.0000 0.1126491693
H   H62       1.0  0.05650  0.10860  0.56270  1.0000 0.1126491693
H   H63       1.0  0.89550  0.08110  0.64500  1.0000 0.1413377619
H   H64       1.0  0.61080  0.27730  0.15890  1.0000 0.2774315646
H   H65       1.0  0.37480  0.48180  0.04450  1.0000 0.121801717
H   H66       1.0  0.49210  0.37400  0.09940  1.0000 0.131040389
H   H67       1.0  0.67330  0.54380  0.21640  1.0000 0.121801717
H   H68       1.0  0.56550  0.65060  0.15960  1.0000 0.1126491693
H   H69       1.0  0.88740  0.17230  0.31890  1.0000 0.131040389
H   H70       1.0  0.04280  0.15110  0.40340  1.0000 0.1126491693
H   H71       1.0  0.05650  0.39140  0.43730  1.0000 0.1126491693
H   H72       1.0  0.89550  0.41890  0.35500  1.0000 0.1413377619
C   C1        1.0  0.61950  0.14660  0.06140  1.0000 0.5380705765
C   C2        1.0  0.54310  0.07710  0.09620  1.0000 -0.0294799621
C   C3        1.0  0.56400  0.99430  0.07880  1.0000 -0.098169809
C   C4        1.0  0.49490  0.92960  0.11190  1.0000 -0.119552545
C   C5        1.0  0.40540  0.94810  0.16420  1.0000 0.024273227
C   C6        1.0  0.38540  0.03110  0.18150  1.0000 -0.119552545
C   C7        1.0  0.45110  0.09490  0.14800  1.0000 -0.1095369196
C   C8        1.0  0.33440  0.88190  0.20140  1.0000 0.2565673908
C   C9        1.0  0.21940  0.81520  0.27110  1.0000 0.2523095926
C   C10       1.0  0.12420  0.79860  0.32660  1.0000 0.0812903812
C   C11       1.0  0.07990  0.71800  0.34240  1.0000 -0.175702242
C   C12       1.0  0.98670  0.70580  0.39330  1.0000 0.0852603318
C   C13       1.0  0.97930  0.84670  0.41350  1.0000 0.0812903812
C   C14       1.0  0.07440  0.86380  0.36360  1.0000 -0.1653230343
C   C15       1.0  0.61950  0.35340  0.93860  1.0000 0.5380705765
C   C16       1.0  0.54310  0.42290  0.90380  1.0000 -0.0294799621
C   C17       1.0  0.56400  0.50570  0.92120  1.0000 -0.098169809
C   C18       1.0  0.49490  0.57040  0.88810  1.0000 -0.119552545
C   C19       1.0  0.40540  0.55190  0.83580  1.0000 0.024273227
C   C20       1.0  0.38540  0.46890  0.81850  1.0000 -0.119552545
C   C21       1.0  0.45110  0.40510  0.85200  1.0000 -0.1095369196
C   C22       1.0  0.33440  0.61810  0.79860  1.0000 0.2565673908
C   C23       1.0  0.21940  0.68480  0.72890  1.0000 0.2523095926
C   C24       1.0  0.12420  0.70140  0.67340  1.0000 0.0812903812
C   C25       1.0  0.07990  0.78200  0.65760  1.0000 -0.175702242
C   C26       1.0  0.98670  0.79420  0.60670  1.0000 0.0852603318
C   C27       1.0  0.97930  0.65330  0.58650  1.0000 0.0812903812
C   C28       1.0  0.07440  0.63620  0.63640  1.0000 -0.1653230343
C   C29       1.0  0.61950  0.85340  0.56140  1.0000 0.5380705765
C   C30       1.0  0.54310  0.92290  0.59620  1.0000 -0.0294799621
C   C31       1.0  0.56400  0.00570  0.57880  1.0000 -0.098169809
C   C32       1.0  0.49490  0.07040  0.61190  1.0000 -0.119552545
C   C33       1.0  0.40540  0.05190  0.66420  1.0000 0.024273227
C   C34       1.0  0.38540  0.96890  0.68150  1.0000 -0.119552545
C   C35       1.0  0.45110  0.90510  0.64800  1.0000 -0.1095369196
C   C36       1.0  0.33440  0.11810  0.70140  1.0000 0.2565673908
C   C37       1.0  0.21940  0.18480  0.77110  1.0000 0.2523095926
C   C38       1.0  0.12420  0.20140  0.82660  1.0000 0.0812903812
C   C39       1.0  0.07990  0.28200  0.84240  1.0000 -0.175702242
C   C40       1.0  0.98670  0.29420  0.89330  1.0000 0.0852603318
C   C41       1.0  0.97930  0.15330  0.91350  1.0000 0.0812903812
C   C42       1.0  0.07440  0.13620  0.86360  1.0000 -0.1644919196
C   C43       1.0  0.61950  0.64660  0.43860  1.0000 0.5380705765
C   C44       1.0  0.54310  0.57710  0.40380  1.0000 -0.0294799621
C   C45       1.0  0.56400  0.49430  0.42120  1.0000 -0.098169809
C   C46       1.0  0.49490  0.42960  0.38810  1.0000 -0.119552545
C   C47       1.0  0.40540  0.44810  0.33580  1.0000 0.024273227
C   C48       1.0  0.38540  0.53110  0.31850  1.0000 -0.119552545
C   C49       1.0  0.45110  0.59490  0.35200  1.0000 -0.1095369196
C   C50       1.0  0.33440  0.38190  0.29860  1.0000 0.2565673908
C   C51       1.0  0.21940  0.31520  0.22890  1.0000 0.2523095926
C   C52       1.0  0.12420  0.29860  0.17340  1.0000 0.0812903812
C   C53       1.0  0.07990  0.21800  0.15760  1.0000 -0.175702242
C   C54       1.0  0.98670  0.20580  0.10670  1.0000 0.0852603318
C   C55       1.0  0.97930  0.34670  0.08650  1.0000 0.0812903812
C   C56       1.0  0.07440  0.36380  0.13640  1.0000 -0.1653230343
C   C57       1.0  0.38050  0.14660  0.43860  1.0000 0.5380705765
C   C58       1.0  0.45690  0.07710  0.40380  1.0000 -0.0294799621
C   C59       1.0  0.43600  0.99430  0.42120  1.0000 -0.098169809
C   C60       1.0  0.50510  0.92960  0.38810  1.0000 -0.119552545
C   C61       1.0  0.59460  0.94810  0.33580  1.0000 0.024273227
C   C62       1.0  0.61460  0.03110  0.31850  1.0000 -0.119552545
C   C63       1.0  0.54890  0.09490  0.35200  1.0000 -0.1095369196
C   C64       1.0  0.66560  0.88190  0.29860  1.0000 0.2565673908
C   C65       1.0  0.78060  0.81520  0.22890  1.0000 0.2523095926
C   C66       1.0  0.87580  0.79860  0.17340  1.0000 0.0812903812
C   C67       1.0  0.92010  0.71800  0.15760  1.0000 -0.175702242
C   C68       1.0  0.01330  0.70580  0.10670  1.0000 0.0852603318
C   C69       1.0  0.02070  0.84670  0.08650  1.0000 0.0812903812
C   C70       1.0  0.92560  0.86380  0.13640  1.0000 -0.1653230343
C   C71       1.0  0.38050  0.35340  0.56140  1.0000 0.5380705765
C   C72       1.0  0.45690  0.42290  0.59620  1.0000 -0.0294799621
C   C73       1.0  0.43600  0.50570  0.57880  1.0000 -0.098169809
C   C74       1.0  0.50510  0.57040  0.61190  1.0000 -0.119552545
C   C75       1.0  0.59460  0.55190  0.66420  1.0000 0.024273227
C   C76       1.0  0.61460  0.46890  0.68150  1.0000 -0.119552545
C   C77       1.0  0.54890  0.40510  0.64800  1.0000 -0.1095369196
C   C78       1.0  0.66560  0.61810  0.70140  1.0000 0.2565673908
C   C79       1.0  0.78060  0.68480  0.77110  1.0000 0.2523095926
C   C80       1.0  0.87580  0.70140  0.82660  1.0000 0.0812903812
C   C81       1.0  0.92010  0.78200  0.84240  1.0000 -0.175702242
C   C82       1.0  0.01330  0.79420  0.89330  1.0000 0.0852603318
C   C83       1.0  0.02070  0.65330  0.91350  1.0000 0.0812903812
C   C84       1.0  0.92560  0.63620  0.86360  1.0000 -0.1653230343
C   C85       1.0  0.38050  0.85340  0.93860  1.0000 0.5380705765
C   C86       1.0  0.45690  0.92290  0.90380  1.0000 -0.0294799621
C   C87       1.0  0.43600  0.00570  0.92120  1.0000 -0.098169809
C   C88       1.0  0.50510  0.07040  0.88810  1.0000 -0.119552545
C   C89       1.0  0.59460  0.05190  0.83580  1.0000 0.024273227
C   C90       1.0  0.61460  0.96890  0.81850  1.0000 -0.119552545
C   C91       1.0  0.54890  0.90510  0.85200  1.0000 -0.1095369196
C   C92       1.0  0.66560  0.11810  0.79860  1.0000 0.2565673908
C   C93       1.0  0.78060  0.18480  0.72890  1.0000 0.2523095926
C   C94       1.0  0.87580  0.20140  0.67340  1.0000 0.0812903812
C   C95       1.0  0.92010  0.28200  0.65760  1.0000 -0.175702242
C   C96       1.0  0.01330  0.29420  0.60670  1.0000 0.0852603318
C   C97       1.0  0.02070  0.15330  0.58650  1.0000 0.0812903812
C   C98       1.0  0.92560  0.13620  0.63640  1.0000 -0.1644919196
C   C99       1.0  0.38050  0.64660  0.06140  1.0000 0.5380705765
C   C100      1.0  0.45690  0.57710  0.09620  1.0000 -0.0294799621
C   C101      1.0  0.43600  0.49430  0.07880  1.0000 -0.098169809
C   C102      1.0  0.50510  0.42960  0.11190  1.0000 -0.119552545
C   C103      1.0  0.59460  0.44810  0.16420  1.0000 0.024273227
C   C104      1.0  0.61460  0.53110  0.18150  1.0000 -0.119552545
C   C105      1.0  0.54890  0.59490  0.14800  1.0000 -0.1095369196
C   C106      1.0  0.66560  0.38190  0.20140  1.0000 0.2565673908
C   C107      1.0  0.78060  0.31520  0.27110  1.0000 0.2523095926
C   C108      1.0  0.87580  0.29860  0.32660  1.0000 0.0812903812
C   C109      1.0  0.92010  0.21800  0.34240  1.0000 -0.175702242
C   C110      1.0  0.01330  0.20580  0.39330  1.0000 0.0852603318
C   C111      1.0  0.02070  0.34670  0.41350  1.0000 0.0812903812
C   C112      1.0  0.92560  0.36380  0.36360  1.0000 -0.1653230343
N   N1        1.0  0.25540  0.89450  0.25338  1.0000 -0.412937341
N   N2        1.0  0.34290  0.79920  0.19020  1.0000 -0.1289198676
N   N3        1.0  0.26910  0.75440  0.23459  1.0000 -0.2599502185
N   N4        1.0  0.93660  0.76870  0.42890  1.0000 -0.2532504478
N   N5        1.0  0.25540  0.60550  0.74662  1.0000 -0.412937341
N   N6        1.0  0.34290  0.70080  0.80980  1.0000 -0.1289198676
N   N7        1.0  0.26910  0.74560  0.76541  1.0000 -0.2599502185
N   N8        1.0  0.93660  0.73130  0.57110  1.0000 -0.2532504478
N   N9        1.0  0.25540  0.10550  0.75338  1.0000 -0.412937341
N   N10       1.0  0.34290  0.20080  0.69020  1.0000 -0.1289198676
N   N11       1.0  0.26910  0.24560  0.73459  1.0000 -0.2599502185
N   N12       1.0  0.93660  0.23130  0.92890  1.0000 -0.2532504478
N   N13       1.0  0.25540  0.39450  0.24662  1.0000 -0.412937341
N   N14       1.0  0.34290  0.29920  0.30980  1.0000 -0.1289198676
N   N15       1.0  0.26910  0.25440  0.26541  1.0000 -0.2599502185
N   N16       1.0  0.93660  0.26870  0.07110  1.0000 -0.2532504478
N   N17       1.0  0.74460  0.89450  0.24662  1.0000 -0.412937341
N   N18       1.0  0.65710  0.79920  0.30980  1.0000 -0.1289198676
N   N19       1.0  0.73090  0.75440  0.26541  1.0000 -0.2599502185
N   N20       1.0  0.06340  0.76870  0.07110  1.0000 -0.2532504478
N   N21       1.0  0.74460  0.60550  0.75338  1.0000 -0.412937341
N   N22       1.0  0.65710  0.70080  0.69020  1.0000 -0.1289198676
N   N23       1.0  0.73090  0.74560  0.73459  1.0000 -0.2599502185
N   N24       1.0  0.06340  0.73130  0.92890  1.0000 -0.2532504478
N   N25       1.0  0.74460  0.10550  0.74662  1.0000 -0.412937341
N   N26       1.0  0.65710  0.20080  0.80980  1.0000 -0.1289198676
N   N27       1.0  0.73090  0.24560  0.76541  1.0000 -0.2599502185
N   N28       1.0  0.06340  0.23130  0.57110  1.0000 -0.2532504478
N   N29       1.0  0.74460  0.39450  0.25338  1.0000 -0.412937341
N   N30       1.0  0.65710  0.29920  0.19020  1.0000 -0.1289198676
N   N31       1.0  0.73090  0.25440  0.23459  1.0000 -0.2599502185
N   N32       1.0  0.06340  0.26870  0.42890  1.0000 -0.2532504478
O   O1        1.0  0.71270  0.12890  0.01777  1.0000 -0.5354712882
O   O2        1.0  0.59470  0.22240  0.07582  1.0000 -0.5554325262
O   O3        1.0  0.71270  0.37110  0.98223  1.0000 -0.5354712882
O   O4        1.0  0.59470  0.27760  0.92418  1.0000 -0.5554325262
O   O5        1.0  0.71270  0.87110  0.51777  1.0000 -0.5354712882
O   O6        1.0  0.59470  0.77760  0.57582  1.0000 -0.5554325262
O   O7        1.0  0.71270  0.62890  0.48223  1.0000 -0.5354712882
O   O8        1.0  0.59470  0.72240  0.42418  1.0000 -0.5554325262
O   O9        1.0  0.28730  0.12890  0.48223  1.0000 -0.5354712882
O   O10       1.0  0.40530  0.22240  0.42418  1.0000 -0.5554325262
O   O11       1.0  0.28730  0.37110  0.51777  1.0000 -0.5354712882
O   O12       1.0  0.40530  0.27760  0.57582  1.0000 -0.5554325262
O   O13       1.0  0.28730  0.87110  0.98223  1.0000 -0.5354712882
O   O14       1.0  0.40530  0.77760  0.92418  1.0000 -0.5554325262
O   O15       1.0  0.28730  0.62890  0.01777  1.0000 -0.5354712882
O   O16       1.0  0.40530  0.72240  0.07582  1.0000 -0.5554325262
