# DDEC6 charges by PACMAN v1.1 (https://github.com/mtap-research/PACMAN-charge/)
data_2019[Zn][nan]2[ASR]5
_chemical_formula_sum              "Zn8 H108 C172 N16 O48"
_cell_length_a       11.2689
_cell_length_b       29.2369
_cell_length_c       18.2896
_cell_angle_alpha    90
_cell_angle_beta     126.256
_cell_angle_gamma    90

_symmetry_space_group_name_H-M    "P 1"
_symmetry_Int_Tables_number       1

loop_
  _symmetry_equiv_pos_as_xyz
  'x, y, z'

loop_
  _atom_site_type_symbol
  _atom_site_label
  _atom_site_symmetry_multiplicity
  _atom_site_fract_x
  _atom_site_fract_y
  _atom_site_fract_z
  _atom_site_occupancy
  _atom_site_charge
Zn  Zn1       1.0  0.24257  0.67358  0.56285  1.0000 0.8334163952
Zn  Zn2       1.0  0.77715  0.67507  0.39043  1.0000 0.8334163952
Zn  Zn3       1.0  0.75743  0.17358  0.93715  1.0000 0.8334163952
Zn  Zn4       1.0  0.22285  0.17507  0.10957  1.0000 0.8334163952
Zn  Zn5       1.0  0.75743  0.32642  0.43715  1.0000 0.8334163952
Zn  Zn6       1.0  0.22285  0.32493  0.60957  1.0000 0.8334163952
Zn  Zn7       1.0  0.24257  0.82642  0.06285  1.0000 0.8334163952
Zn  Zn8       1.0  0.77715  0.82493  0.89043  1.0000 0.8334163952
H   H1        1.0  0.55038  0.70377  0.73594  1.0000 0.1276193661
H   H2        1.0  0.79364  0.69087  0.79429  1.0000 0.1392059553
H   H3        1.0  0.66105  0.60846  0.58218  1.0000 0.1392059553
H   H4        1.0  0.41953  0.62213  0.52976  1.0000 0.1190273979
H   H5        1.0  0.00531  0.65551  0.86185  1.0000 0.1489750662
H   H6        1.0  0.24357  0.63653  0.91386  1.0000 0.1190273979
H   H7        1.0  0.10585  0.60118  0.66631  1.0000 0.1392059553
H   H8        1.0  0.86569  0.61936  0.60861  1.0000 0.1570609886
H   H9        1.0  0.36274  0.60508  0.78602  1.0000 0.1489750662
H   H10       1.0  0.41613  0.61350  0.88811  1.0000 0.1276193661
H   H11       1.0  0.36472  0.52922  0.74575  1.0000 0.1392059553
H   H12       1.0  0.35376  0.45006  0.76223  1.0000 0.1392059553
H   H13       1.0  0.30494  0.47193  0.95937  1.0000 0.1190273979
H   H14       1.0  0.31783  0.55042  0.94448  1.0000 0.110803477
H   H15       1.0  0.38986  0.39367  0.93627  1.0000 0.1190273979
H   H16       1.0  0.34544  0.38604  0.83620  1.0000 0.1489750662
H   H17       1.0  0.07581  0.40393  0.71100  1.0000 0.1392059553
H   H18       1.0  0.83883  0.38282  0.65706  1.0000 0.1570609886
H   H19       1.0  0.98931  0.34833  0.91243  1.0000 0.1489750662
H   H20       1.0  0.22386  0.36960  0.96139  1.0000 0.1276193661
H   H21       1.0  0.65826  0.34037  0.61217  1.0000 0.1392059553
H   H22       1.0  0.41949  0.32289  0.55821  1.0000 0.1190273979
H   H23       1.0  0.51785  0.33030  0.80186  1.0000 0.1190273979
H   H24       1.0  0.75922  0.34842  0.86373  1.0000 0.1392059553
H   H25       1.0  0.26440  0.73451  0.83836  1.0000 0.1190273979
H   H26       1.0  0.76840  0.76722  0.61907  1.0000 0.1190273979
H   H27       1.0  0.24243  0.49813  0.54736  1.0000 0.1190273979
H   H28       1.0  0.44962  0.20377  0.76406  1.0000 0.1276193661
H   H29       1.0  0.20636  0.19087  0.70571  1.0000 0.1392059553
H   H30       1.0  0.33895  0.10846  0.91782  1.0000 0.1392059553
H   H31       1.0  0.58047  0.12213  0.97024  1.0000 0.1190273979
H   H32       1.0  0.99469  0.15551  0.63815  1.0000 0.1489750662
H   H33       1.0  0.75643  0.13653  0.58614  1.0000 0.1190273979
H   H34       1.0  0.89415  0.10118  0.83369  1.0000 0.1392059553
H   H35       1.0  0.13431  0.11936  0.89139  1.0000 0.1570609886
H   H36       1.0  0.63726  0.10508  0.71398  1.0000 0.1489750662
H   H37       1.0  0.58387  0.11350  0.61189  1.0000 0.1276193661
H   H38       1.0  0.63528  0.02922  0.75425  1.0000 0.1392059553
H   H39       1.0  0.64624  0.95006  0.73777  1.0000 0.1392059553
H   H40       1.0  0.69506  0.97193  0.54063  1.0000 0.1190273979
H   H41       1.0  0.68217  0.05042  0.55552  1.0000 0.110803477
H   H42       1.0  0.61014  0.89367  0.56373  1.0000 0.1190273979
H   H43       1.0  0.65456  0.88604  0.66380  1.0000 0.1489750662
H   H44       1.0  0.92419  0.90393  0.78900  1.0000 0.1392059553
H   H45       1.0  0.16117  0.88282  0.84294  1.0000 0.1570609886
H   H46       1.0  0.01069  0.84833  0.58757  1.0000 0.1489750662
H   H47       1.0  0.77614  0.86960  0.53861  1.0000 0.1276193661
H   H48       1.0  0.34174  0.84037  0.88783  1.0000 0.1392059553
H   H49       1.0  0.58051  0.82289  0.94179  1.0000 0.1190273979
H   H50       1.0  0.48215  0.83030  0.69814  1.0000 0.1190273979
H   H51       1.0  0.24078  0.84842  0.63627  1.0000 0.1392059553
H   H52       1.0  0.73560  0.23451  0.66164  1.0000 0.1190273979
H   H53       1.0  0.23160  0.26722  0.88093  1.0000 0.1190273979
H   H54       1.0  0.75757  0.99813  0.95264  1.0000 0.1190273979
H   H55       1.0  0.44962  0.29623  0.26406  1.0000 0.1276193661
H   H56       1.0  0.20636  0.30913  0.20571  1.0000 0.1392059553
H   H57       1.0  0.33895  0.39154  0.41782  1.0000 0.1392059553
H   H58       1.0  0.58047  0.37787  0.47024  1.0000 0.1190273979
H   H59       1.0  0.99469  0.34449  0.13815  1.0000 0.1489750662
H   H60       1.0  0.75643  0.36347  0.08614  1.0000 0.1190273979
H   H61       1.0  0.89415  0.39882  0.33369  1.0000 0.1392059553
H   H62       1.0  0.13431  0.38064  0.39139  1.0000 0.1570609886
H   H63       1.0  0.63726  0.39492  0.21398  1.0000 0.1489750662
H   H64       1.0  0.58387  0.38650  0.11189  1.0000 0.1276193661
H   H65       1.0  0.63528  0.47078  0.25425  1.0000 0.1392059553
H   H66       1.0  0.64624  0.54994  0.23777  1.0000 0.1392059553
H   H67       1.0  0.69506  0.52807  0.04063  1.0000 0.1190273979
H   H68       1.0  0.68217  0.44958  0.05552  1.0000 0.110803477
H   H69       1.0  0.61014  0.60633  0.06373  1.0000 0.1190273979
H   H70       1.0  0.65456  0.61396  0.16380  1.0000 0.1489750662
H   H71       1.0  0.92419  0.59607  0.28900  1.0000 0.1392059553
H   H72       1.0  0.16117  0.61718  0.34294  1.0000 0.1570609886
H   H73       1.0  0.01069  0.65167  0.08757  1.0000 0.1489750662
H   H74       1.0  0.77614  0.63040  0.03861  1.0000 0.1276193661
H   H75       1.0  0.34174  0.65963  0.38783  1.0000 0.1392059553
H   H76       1.0  0.58051  0.67711  0.44179  1.0000 0.1190273979
H   H77       1.0  0.48215  0.66970  0.19814  1.0000 0.1190273979
H   H78       1.0  0.24078  0.65158  0.13627  1.0000 0.1392059553
H   H79       1.0  0.73560  0.26549  0.16164  1.0000 0.1190273979
H   H80       1.0  0.23160  0.23278  0.38093  1.0000 0.1190273979
H   H81       1.0  0.75757  0.50187  0.45264  1.0000 0.1190273979
H   H82       1.0  0.55038  0.79623  0.23594  1.0000 0.1276193661
H   H83       1.0  0.79364  0.80913  0.29429  1.0000 0.1392059553
H   H84       1.0  0.66105  0.89154  0.08218  1.0000 0.1392059553
H   H85       1.0  0.41953  0.87787  0.02976  1.0000 0.1190273979
H   H86       1.0  0.00531  0.84449  0.36185  1.0000 0.1489750662
H   H87       1.0  0.24357  0.86347  0.41386  1.0000 0.1190273979
H   H88       1.0  0.10585  0.89882  0.16631  1.0000 0.1392059553
H   H89       1.0  0.86569  0.88064  0.10861  1.0000 0.1570609886
H   H90       1.0  0.36274  0.89492  0.28602  1.0000 0.1489750662
H   H91       1.0  0.41613  0.88650  0.38811  1.0000 0.1276193661
H   H92       1.0  0.36472  0.97078  0.24575  1.0000 0.1392059553
H   H93       1.0  0.35376  0.04994  0.26223  1.0000 0.1392059553
H   H94       1.0  0.30494  0.02807  0.45937  1.0000 0.1190273979
H   H95       1.0  0.31783  0.94958  0.44448  1.0000 0.110803477
H   H96       1.0  0.38986  0.10633  0.43627  1.0000 0.1190273979
H   H97       1.0  0.34544  0.11396  0.33620  1.0000 0.1489750662
H   H98       1.0  0.07581  0.09607  0.21100  1.0000 0.1392059553
H   H99       1.0  0.83883  0.11718  0.15706  1.0000 0.1570609886
H   H100      1.0  0.98931  0.15167  0.41243  1.0000 0.1489750662
H   H101      1.0  0.22386  0.13040  0.46139  1.0000 0.1276193661
H   H102      1.0  0.65826  0.15963  0.11217  1.0000 0.1392059553
H   H103      1.0  0.41949  0.17711  0.05821  1.0000 0.1190273979
H   H104      1.0  0.51785  0.16970  0.30186  1.0000 0.1190273979
H   H105      1.0  0.75922  0.15158  0.36373  1.0000 0.1392059553
H   H106      1.0  0.26440  0.76549  0.33836  1.0000 0.1190273979
H   H107      1.0  0.76840  0.73278  0.11907  1.0000 0.1190273979
H   H108      1.0  0.24243  0.00187  0.04736  1.0000 0.1190273979
C   C1        1.0  0.57270  0.68446  0.70380  1.0000 0.110803477
C   C2        1.0  0.71810  0.67660  0.73900  1.0000 -0.1699502886
C   C3        1.0  0.75510  0.64847  0.69540  1.0000 0.110803477
C   C4        1.0  0.64090  0.62810  0.61500  1.0000 -0.1757998761
C   C5        1.0  0.49730  0.63690  0.58350  1.0000 0.0807660076
C   C6        1.0  0.90880  0.63820  0.73000  1.0000 0.1190273979
C   C7        1.0  0.02380  0.64387  0.82100  1.0000 -0.1699502886
C   C8        1.0  0.16460  0.63255  0.85160  1.0000 0.0285356038
C   C9        1.0  0.08330  0.61180  0.70590  1.0000 0.0610603302
C   C10       1.0  0.94150  0.62253  0.67160  1.0000 -0.1427622444
C   C11       1.0  0.34060  0.59848  0.82990  1.0000 -0.1905270589
C   C12       1.0  0.34130  0.54739  0.84330  1.0000 0.0895074907
C   C13       1.0  0.35240  0.51780  0.78950  1.0000 -0.1427622444
C   C14       1.0  0.34560  0.47050  0.79940  1.0000 -0.1427622444
C   C15       1.0  0.32730  0.45329  0.86210  1.0000 0.0807660076
C   C16       1.0  0.31710  0.48330  0.91550  1.0000 -0.1509435204
C   C17       1.0  0.32450  0.53010  0.90650  1.0000 -0.1601230638
C   C18       1.0  0.31850  0.40243  0.87180  1.0000 -0.1974601221
C   C19       1.0  0.05700  0.39243  0.75180  1.0000 0.0704756941
C   C20       1.0  0.91650  0.37998  0.71980  1.0000 -0.1427622444
C   C21       1.0  0.88730  0.36324  0.77890  1.0000 0.1190273979
C   C22       1.0  0.00510  0.35962  0.87010  1.0000 -0.1699502886
C   C23       1.0  0.14390  0.37229  0.89910  1.0000 0.0184224726
C   C24       1.0  0.73530  0.34912  0.74380  1.0000 0.1190273979
C   C25       1.0  0.63170  0.33957  0.65270  1.0000 -0.1699502886
C   C26       1.0  0.48940  0.32887  0.62110  1.0000 0.0980079996
C   C27       1.0  0.54630  0.33320  0.76250  1.0000 0.0980079996
C   C28       1.0  0.69070  0.34420  0.80010  1.0000 -0.1905270589
C   C29       1.0  0.19780  0.71139  0.67990  1.0000 0.5527790564
C   C30       1.0  0.09990  0.73158  0.70310  1.0000 -0.0509625968
C   C31       1.0  0.16340  0.74132  0.79370  1.0000 -0.1601230638
C   C32       1.0  0.08150  0.76085  0.81990  1.0000 -0.0383435457
C   C33       1.0  0.93170  0.77037  0.75430  1.0000 -0.0569624115
C   C34       1.0  0.86940  0.76048  0.66390  1.0000 -0.1601230638
C   C35       1.0  0.95110  0.74098  0.63730  1.0000 -0.0313894294
C   C36       1.0  0.16310  0.77273  0.91840  1.0000 0.5771446827
C   C37       1.0  0.83420  0.79051  0.77710  1.0000 0.5527790564
C   C38       1.0  0.86790  0.72997  0.53740  1.0000 0.5771446827
C   C39       1.0  0.15410  0.58235  0.51250  1.0000 0.5771446827
C   C40       1.0  0.06870  0.54050  0.50300  1.0000 -0.0313894294
C   C41       1.0  0.14380  0.49890  0.52860  1.0000 -0.1601230638
C   C42       1.0  0.92290  0.54150  0.47290  1.0000 -0.0383435457
C   C43       1.0  0.83190  0.58461  0.44130  1.0000 0.5634575787
C   C44       1.0  0.42730  0.18446  0.79620  1.0000 0.110803477
C   C45       1.0  0.28190  0.17660  0.76100  1.0000 -0.1699502886
C   C46       1.0  0.24490  0.14847  0.80460  1.0000 0.110803477
C   C47       1.0  0.35910  0.12810  0.88500  1.0000 -0.1757998761
C   C48       1.0  0.50270  0.13690  0.91650  1.0000 0.0807660076
C   C49       1.0  0.09120  0.13820  0.77000  1.0000 0.1190273979
C   C50       1.0  0.97620  0.14387  0.67900  1.0000 -0.1699502886
C   C51       1.0  0.83540  0.13255  0.64840  1.0000 0.0285356038
C   C52       1.0  0.91670  0.11180  0.79410  1.0000 0.0610603302
C   C53       1.0  0.05850  0.12253  0.82840  1.0000 -0.1427622444
C   C54       1.0  0.65940  0.09848  0.67010  1.0000 -0.1905270589
C   C55       1.0  0.65870  0.04739  0.65670  1.0000 0.0895074907
C   C56       1.0  0.64760  0.01780  0.71050  1.0000 -0.1427622444
C   C57       1.0  0.65440  0.97050  0.70060  1.0000 -0.1427622444
C   C58       1.0  0.67270  0.95329  0.63790  1.0000 0.0807660076
C   C59       1.0  0.68290  0.98330  0.58450  1.0000 -0.1509435204
C   C60       1.0  0.67550  0.03010  0.59350  1.0000 -0.1601230638
C   C61       1.0  0.68150  0.90243  0.62820  1.0000 -0.1974601221
C   C62       1.0  0.94300  0.89243  0.74820  1.0000 0.0704756941
C   C63       1.0  0.08350  0.87998  0.78020  1.0000 -0.1427622444
C   C64       1.0  0.11270  0.86324  0.72110  1.0000 0.1190273979
C   C65       1.0  0.99490  0.85962  0.62990  1.0000 -0.1699502886
C   C66       1.0  0.85610  0.87229  0.60090  1.0000 0.0184224726
C   C67       1.0  0.26470  0.84912  0.75620  1.0000 0.1190273979
C   C68       1.0  0.36830  0.83957  0.84730  1.0000 -0.1699502886
C   C69       1.0  0.51060  0.82887  0.87890  1.0000 0.0980079996
C   C70       1.0  0.45370  0.83320  0.73750  1.0000 0.0980079996
C   C71       1.0  0.30930  0.84420  0.69990  1.0000 -0.1905270589
C   C72       1.0  0.80220  0.21139  0.82010  1.0000 0.5527790564
C   C73       1.0  0.90010  0.23158  0.79690  1.0000 -0.0509625968
C   C74       1.0  0.83660  0.24132  0.70630  1.0000 -0.1601230638
C   C75       1.0  0.91850  0.26085  0.68010  1.0000 -0.0383435457
C   C76       1.0  0.06830  0.27037  0.74570  1.0000 -0.0569624115
C   C77       1.0  0.13060  0.26048  0.83610  1.0000 -0.1601230638
C   C78       1.0  0.04890  0.24098  0.86270  1.0000 -0.0313894294
C   C79       1.0  0.83690  0.27273  0.58160  1.0000 0.5771446827
C   C80       1.0  0.16580  0.29051  0.72290  1.0000 0.5527790564
C   C81       1.0  0.13210  0.22997  0.96260  1.0000 0.5771446827
C   C82       1.0  0.84590  0.08235  0.98750  1.0000 0.5771446827
C   C83       1.0  0.93130  0.04050  0.99700  1.0000 -0.0313894294
C   C84       1.0  0.85620  0.99890  0.97140  1.0000 -0.1601230638
C   C85       1.0  0.07710  0.04150  0.02710  1.0000 -0.0383435457
C   C86       1.0  0.16810  0.08461  0.05870  1.0000 0.5634575787
C   C87       1.0  0.42730  0.31554  0.29620  1.0000 0.110803477
C   C88       1.0  0.28190  0.32340  0.26100  1.0000 -0.1699502886
C   C89       1.0  0.24490  0.35153  0.30460  1.0000 0.110803477
C   C90       1.0  0.35910  0.37190  0.38500  1.0000 -0.1757998761
C   C91       1.0  0.50270  0.36310  0.41650  1.0000 0.0807660076
C   C92       1.0  0.09120  0.36180  0.27000  1.0000 0.1190273979
C   C93       1.0  0.97620  0.35613  0.17900  1.0000 -0.1699502886
C   C94       1.0  0.83540  0.36745  0.14840  1.0000 0.0285356038
C   C95       1.0  0.91670  0.38820  0.29410  1.0000 0.0610603302
C   C96       1.0  0.05850  0.37747  0.32840  1.0000 -0.1427622444
C   C97       1.0  0.65940  0.40152  0.17010  1.0000 -0.1905270589
C   C98       1.0  0.65870  0.45261  0.15670  1.0000 0.0895074907
C   C99       1.0  0.64760  0.48220  0.21050  1.0000 -0.1427622444
C   C100      1.0  0.65440  0.52950  0.20060  1.0000 -0.1427622444
C   C101      1.0  0.67270  0.54671  0.13790  1.0000 0.0807660076
C   C102      1.0  0.68290  0.51670  0.08450  1.0000 -0.1509435204
C   C103      1.0  0.67550  0.46990  0.09350  1.0000 -0.1601230638
C   C104      1.0  0.68150  0.59757  0.12820  1.0000 -0.1974601221
C   C105      1.0  0.94300  0.60757  0.24820  1.0000 0.0704756941
C   C106      1.0  0.08350  0.62002  0.28020  1.0000 -0.1427622444
C   C107      1.0  0.11270  0.63676  0.22110  1.0000 0.1190273979
C   C108      1.0  0.99490  0.64038  0.12990  1.0000 -0.1699502886
C   C109      1.0  0.85610  0.62771  0.10090  1.0000 0.0184224726
C   C110      1.0  0.26470  0.65088  0.25620  1.0000 0.1190273979
C   C111      1.0  0.36830  0.66043  0.34730  1.0000 -0.1699502886
C   C112      1.0  0.51060  0.67113  0.37890  1.0000 0.0980079996
C   C113      1.0  0.45370  0.66680  0.23750  1.0000 0.0980079996
C   C114      1.0  0.30930  0.65580  0.19990  1.0000 -0.1905270589
C   C115      1.0  0.80220  0.28861  0.32010  1.0000 0.5527790564
C   C116      1.0  0.90010  0.26842  0.29690  1.0000 -0.0509625968
C   C117      1.0  0.83660  0.25868  0.20630  1.0000 -0.1601230638
C   C118      1.0  0.91850  0.23915  0.18010  1.0000 -0.0383435457
C   C119      1.0  0.06830  0.22963  0.24570  1.0000 -0.0569624115
C   C120      1.0  0.13060  0.23952  0.33610  1.0000 -0.1601230638
C   C121      1.0  0.04890  0.25902  0.36270  1.0000 -0.0313894294
C   C122      1.0  0.83690  0.22727  0.08160  1.0000 0.5771446827
C   C123      1.0  0.16580  0.20949  0.22290  1.0000 0.5527790564
C   C124      1.0  0.13210  0.27003  0.46260  1.0000 0.5771446827
C   C125      1.0  0.84590  0.41765  0.48750  1.0000 0.5771446827
C   C126      1.0  0.93130  0.45950  0.49700  1.0000 -0.0313894294
C   C127      1.0  0.85620  0.50110  0.47140  1.0000 -0.1601230638
C   C128      1.0  0.07710  0.45850  0.52710  1.0000 -0.0383435457
C   C129      1.0  0.16810  0.41539  0.55870  1.0000 0.5634575787
C   C130      1.0  0.57270  0.81554  0.20380  1.0000 0.110803477
C   C131      1.0  0.71810  0.82340  0.23900  1.0000 -0.1699502886
C   C132      1.0  0.75510  0.85153  0.19540  1.0000 0.110803477
C   C133      1.0  0.64090  0.87190  0.11500  1.0000 -0.1699502886
C   C134      1.0  0.49730  0.86310  0.08350  1.0000 0.0807660076
C   C135      1.0  0.90880  0.86180  0.23000  1.0000 0.1190273979
C   C136      1.0  0.02380  0.85613  0.32100  1.0000 -0.1699502886
C   C137      1.0  0.16460  0.86745  0.35160  1.0000 0.0285356038
C   C138      1.0  0.08330  0.88820  0.20590  1.0000 0.0610603302
C   C139      1.0  0.94150  0.87747  0.17160  1.0000 -0.1427622444
C   C140      1.0  0.34060  0.90152  0.32990  1.0000 -0.1905270589
C   C141      1.0  0.34130  0.95261  0.34330  1.0000 0.0895074907
C   C142      1.0  0.35240  0.98220  0.28950  1.0000 -0.1427622444
C   C143      1.0  0.34560  0.02950  0.29940  1.0000 -0.1427622444
C   C144      1.0  0.32730  0.04671  0.36210  1.0000 0.0807660076
C   C145      1.0  0.31710  0.01670  0.41550  1.0000 -0.1509435204
C   C146      1.0  0.32450  0.96990  0.40650  1.0000 -0.1601230638
C   C147      1.0  0.31850  0.09757  0.37180  1.0000 -0.1974601221
C   C148      1.0  0.05700  0.10757  0.25180  1.0000 0.0704756941
C   C149      1.0  0.91650  0.12002  0.21980  1.0000 -0.1427622444
C   C150      1.0  0.88730  0.13676  0.27890  1.0000 0.1190273979
C   C151      1.0  0.00510  0.14038  0.37010  1.0000 -0.1699502886
C   C152      1.0  0.14390  0.12771  0.39910  1.0000 0.0184224726
C   C153      1.0  0.73530  0.15088  0.24380  1.0000 0.1190273979
C   C154      1.0  0.63170  0.16043  0.15270  1.0000 -0.1699502886
C   C155      1.0  0.48940  0.17113  0.12110  1.0000 0.0980079996
C   C156      1.0  0.54630  0.16680  0.26250  1.0000 0.0980079996
C   C157      1.0  0.69070  0.15580  0.30010  1.0000 -0.1905270589
C   C158      1.0  0.19780  0.78861  0.17990  1.0000 0.5527790564
C   C159      1.0  0.09990  0.76842  0.20310  1.0000 -0.0509625968
C   C160      1.0  0.16340  0.75868  0.29370  1.0000 -0.1601230638
C   C161      1.0  0.08150  0.73915  0.31990  1.0000 -0.0383435457
C   C162      1.0  0.93170  0.72963  0.25430  1.0000 -0.0569624115
C   C163      1.0  0.86940  0.73952  0.16390  1.0000 -0.1601230638
C   C164      1.0  0.95110  0.75902  0.13730  1.0000 -0.0313894294
C   C165      1.0  0.16310  0.72727  0.41840  1.0000 0.5771446827
C   C166      1.0  0.83420  0.70949  0.27710  1.0000 0.5527790564
C   C167      1.0  0.86790  0.77003  0.03740  1.0000 0.5771446827
C   C168      1.0  0.15410  0.91765  0.01250  1.0000 0.5771446827
C   C169      1.0  0.06870  0.95950  0.00300  1.0000 -0.0313894294
C   C170      1.0  0.14380  0.00110  0.02860  1.0000 -0.1509435204
C   C171      1.0  0.92290  0.95850  0.97290  1.0000 -0.0383435457
C   C172      1.0  0.83190  0.91539  0.94130  1.0000 0.5634575787
N   N1        1.0  0.46350  0.66587  0.62650  1.0000 -0.2275690732
N   N2        1.0  0.19130  0.61603  0.79470  1.0000 0.110803477
N   N3        1.0  0.16720  0.38850  0.83970  1.0000 0.110803477
N   N4        1.0  0.44510  0.32650  0.67480  1.0000 -0.2206934389
N   N5        1.0  0.53650  0.16587  0.87350  1.0000 -0.2275690732
N   N6        1.0  0.80870  0.11603  0.70530  1.0000 0.110803477
N   N7        1.0  0.83280  0.88850  0.66030  1.0000 0.110803477
N   N8        1.0  0.55490  0.82650  0.82520  1.0000 -0.2206934389
N   N9        1.0  0.53650  0.33413  0.37350  1.0000 -0.2275690732
N   N10       1.0  0.80870  0.38397  0.20530  1.0000 0.110803477
N   N11       1.0  0.83280  0.61150  0.16030  1.0000 0.110803477
N   N12       1.0  0.55490  0.67350  0.32520  1.0000 -0.2206934389
N   N13       1.0  0.46350  0.83413  0.12650  1.0000 -0.2275690732
N   N14       1.0  0.19130  0.88397  0.29470  1.0000 0.110803477
N   N15       1.0  0.16720  0.11150  0.33970  1.0000 0.110803477
N   N16       1.0  0.44510  0.17350  0.17480  1.0000 -0.2206934389
O   O1        1.0  0.15280  0.71650  0.59800  1.0000 -0.5092777681
O   O2        1.0  0.31290  0.69135  0.73940  1.0000 -0.5774183419
O   O3        1.0  0.22660  0.74167  0.97620  1.0000 -0.5715949681
O   O4        1.0  0.16870  0.81469  0.93640  1.0000 -0.5345558074
O   O5        1.0  0.87550  0.78389  0.85780  1.0000 -0.5092777681
O   O6        1.0  0.72040  0.81130  0.71820  1.0000 -0.5774183419
O   O7        1.0  0.80970  0.76193  0.48170  1.0000 -0.5715949681
O   O8        1.0  0.85540  0.68819  0.51730  1.0000 -0.5345558074
O   O9        1.0  0.85240  0.61300  0.39610  1.0000 -0.5518790741
O   O10       1.0  0.74180  0.59048  0.45850  1.0000 -0.5518790741
O   O11       1.0  0.16360  0.61363  0.56460  1.0000 -0.5518790741
O   O12       1.0  0.21360  0.58327  0.47320  1.0000 -0.5518790741
O   O13       1.0  0.84720  0.21650  0.90200  1.0000 -0.5092777681
O   O14       1.0  0.68710  0.19135  0.76060  1.0000 -0.5774183419
O   O15       1.0  0.77340  0.24167  0.52380  1.0000 -0.5715949681
O   O16       1.0  0.83130  0.31469  0.56360  1.0000 -0.5345558074
O   O17       1.0  0.12450  0.28389  0.64220  1.0000 -0.5092777681
O   O18       1.0  0.27960  0.31130  0.78180  1.0000 -0.5774183419
O   O19       1.0  0.19030  0.26193  0.01830  1.0000 -0.5715949681
O   O20       1.0  0.14460  0.18819  0.98270  1.0000 -0.5345558074
O   O21       1.0  0.14760  0.11300  0.10390  1.0000 -0.5518790741
O   O22       1.0  0.25820  0.09048  0.04150  1.0000 -0.5518790741
O   O23       1.0  0.83640  0.11363  0.93540  1.0000 -0.5518790741
O   O24       1.0  0.78640  0.08327  0.02680  1.0000 -0.5518790741
O   O25       1.0  0.84720  0.28350  0.40200  1.0000 -0.5092777681
O   O26       1.0  0.68710  0.30865  0.26060  1.0000 -0.5774183419
O   O27       1.0  0.77340  0.25833  0.02380  1.0000 -0.5715949681
O   O28       1.0  0.83130  0.18531  0.06360  1.0000 -0.5345558074
O   O29       1.0  0.12450  0.21611  0.14220  1.0000 -0.5092777681
O   O30       1.0  0.27960  0.18870  0.28180  1.0000 -0.5774183419
O   O31       1.0  0.19030  0.23807  0.51830  1.0000 -0.5715949681
O   O32       1.0  0.14460  0.31181  0.48270  1.0000 -0.5345558074
O   O33       1.0  0.14760  0.38700  0.60390  1.0000 -0.5518790741
O   O34       1.0  0.25820  0.40952  0.54150  1.0000 -0.5518790741
O   O35       1.0  0.83640  0.38637  0.43540  1.0000 -0.5518790741
O   O36       1.0  0.78640  0.41673  0.52680  1.0000 -0.5518790741
O   O37       1.0  0.15280  0.78350  0.09800  1.0000 -0.5092777681
O   O38       1.0  0.31290  0.80865  0.23940  1.0000 -0.5774183419
O   O39       1.0  0.22660  0.75833  0.47620  1.0000 -0.5715949681
O   O40       1.0  0.16870  0.68531  0.43640  1.0000 -0.5345558074
O   O41       1.0  0.87550  0.71611  0.35780  1.0000 -0.5092777681
O   O42       1.0  0.72040  0.68870  0.21820  1.0000 -0.5774183419
O   O43       1.0  0.80970  0.73807  0.98170  1.0000 -0.5715949681
O   O44       1.0  0.85540  0.81181  0.01730  1.0000 -0.5345558074
O   O45       1.0  0.85240  0.88700  0.89610  1.0000 -0.5518790741
O   O46       1.0  0.74180  0.90952  0.95850  1.0000 -0.5518790741
O   O47       1.0  0.16360  0.88637  0.06460  1.0000 -0.5518790741
O   O48       1.0  0.21360  0.91673  0.97320  1.0000 -0.5518790741
