# DDEC6 charges by PACMAN v1.1 (https://github.com/mtap-research/PACMAN-charge/)
data_2019[Co][dia]3[ASR]1
_chemical_formula_sum              "Co2 H40 C56 N4 O8"
_cell_length_a       13.9334
_cell_length_b       13.9334
_cell_length_c       8.5716
_cell_angle_alpha    85.6515
_cell_angle_beta     94.3485
_cell_angle_gamma    57.0779

_symmetry_space_group_name_H-M    "P 1"
_symmetry_Int_Tables_number       1

loop_
  _symmetry_equiv_pos_as_xyz
  'x, y, z'

loop_
  _atom_site_type_symbol
  _atom_site_label
  _atom_site_symmetry_multiplicity
  _atom_site_fract_x
  _atom_site_fract_y
  _atom_site_fract_z
  _atom_site_occupancy
  _atom_site_charge
Co  Co1       1.0  0.67463  0.12981  0.87848  1.0000 0.7559910195
Co  Co2       1.0  0.87019  0.32537  0.37848  1.0000 0.7559910195
H   H1        1.0  0.03390  0.06170  0.67410  1.0000 0.1298321711
H   H2        1.0  0.19280  0.68960  0.67180  1.0000 0.1111121597
H   H3        1.0  0.00790  0.23530  0.90070  1.0000 0.1111121597
H   H4        1.0  0.65970  0.21170  0.52780  1.0000 0.1111121597
H   H5        1.0  0.38630  0.77830  0.60000  1.0000 0.1111121597
H   H6        1.0  0.20610  0.29650  0.64620  1.0000 0.1111121597
H   H7        1.0  0.85120  0.16620  0.74880  1.0000 0.1185272189
H   H8        1.0  0.05630  0.76830  0.82890  1.0000 0.1298321711
H   H9        1.0  0.50510  0.41770  0.45480  1.0000 0.1111121597
H   H10       1.0  0.87690  0.87730  0.90680  1.0000 0.1008228661
H   H11       1.0  0.32840  0.52780  0.54820  1.0000 0.1185272189
H   H12       1.0  0.12430  0.20390  0.13360  1.0000 0.1111121597
H   H13       1.0  0.56230  0.66850  0.50640  1.0000 0.1185272189
H   H14       1.0  0.21250  0.87750  0.65640  1.0000 0.1111121597
H   H15       1.0  0.55620  0.24180  0.28680  1.0000 0.1474325286
H   H16       1.0  0.28220  0.18540  0.27990  1.0000 0.1111121597
H   H17       1.0  0.32630  0.25970  0.88000  1.0000 0.1185272189
H   H18       1.0  0.42900  0.21460  0.11760  1.0000 0.1391931849
H   H19       1.0  0.50860  0.07800  0.74000  1.0000 0.1185272189
H   H20       1.0  0.39690  0.10910  0.50160  1.0000 0.1298321711
H   H21       1.0  0.93830  0.96610  0.17410  1.0000 0.1298321711
H   H22       1.0  0.31040  0.80720  0.17180  1.0000 0.1111121597
H   H23       1.0  0.76470  0.99210  0.40070  1.0000 0.1111121597
H   H24       1.0  0.78830  0.34030  0.02780  1.0000 0.1111121597
H   H25       1.0  0.22170  0.61370  0.10000  1.0000 0.1111121597
H   H26       1.0  0.70350  0.79390  0.14620  1.0000 0.1111121597
H   H27       1.0  0.83380  0.14880  0.24880  1.0000 0.1185272189
H   H28       1.0  0.23170  0.94370  0.32890  1.0000 0.1298321711
H   H29       1.0  0.58230  0.49490  0.95480  1.0000 0.1111121597
H   H30       1.0  0.12270  0.12310  0.40680  1.0000 0.1008228661
H   H31       1.0  0.47220  0.67160  0.04820  1.0000 0.1185272189
H   H32       1.0  0.79610  0.87570  0.63360  1.0000 0.1111121597
H   H33       1.0  0.33150  0.43770  0.00640  1.0000 0.1185272189
H   H34       1.0  0.12250  0.78750  0.15640  1.0000 0.1111121597
H   H35       1.0  0.75820  0.44380  0.78680  1.0000 0.1474325286
H   H36       1.0  0.81460  0.71780  0.77990  1.0000 0.1111121597
H   H37       1.0  0.74030  0.67370  0.38000  1.0000 0.1185272189
H   H38       1.0  0.78540  0.57100  0.61760  1.0000 0.1391931849
H   H39       1.0  0.92200  0.49140  0.24000  1.0000 0.1185272189
H   H40       1.0  0.89090  0.60310  0.00160  1.0000 0.1298321711
C   C1        1.0  0.55250  0.53090  0.47450  1.0000 -0.0140027598
C   C2        1.0  0.00200  0.02220  0.71780  1.0000 -0.1863270102
C   C3        1.0  0.22960  0.72880  0.64960  1.0000 -0.1209375744
C   C4        1.0  0.07200  0.24200  0.89590  1.0000 -0.0971957965
C   C5        1.0  0.01260  0.29480  0.60640  1.0000 0.5320399182
C   C6        1.0  0.60570  0.19010  0.52240  1.0000 0.0712374674
C   C7        1.0  0.41050  0.70430  0.57240  1.0000 -0.1528193402
C   C8        1.0  0.34060  0.66280  0.58870  1.0000 0.1111121597
C   C9        1.0  0.18940  0.27740  0.74480  1.0000 -0.1086509654
C   C10       1.0  0.89320  0.08420  0.76410  1.0000 0.0909605723
C   C11       1.0  0.09240  0.27120  0.75180  1.0000 -0.0295424553
C   C12       1.0  0.06470  0.90190  0.73520  1.0000 0.1601792502
C   C13       1.0  0.01510  0.85010  0.80970  1.0000 -0.2007044552
C   C14       1.0  0.48180  0.49060  0.48560  1.0000 -0.0971957965
C   C15       1.0  0.90800  0.91520  0.85550  1.0000 0.0618505964
C   C16       1.0  0.67100  0.45740  0.42600  1.0000 0.5320399182
C   C17       1.0  0.37650  0.55630  0.54180  1.0000 -0.1528193402
C   C18       1.0  0.14200  0.22160  0.03500  1.0000 -0.1578339821
C   C19       1.0  0.51520  0.63900  0.51640  1.0000 -0.1086509654
C   C20       1.0  0.17570  0.83790  0.67670  1.0000 -0.1578339821
C   C21       1.0  0.54440  0.20840  0.37800  1.0000 -0.1763269527
C   C22       1.0  0.30840  0.20160  0.18860  1.0000 -0.1209375744
C   C23       1.0  0.23730  0.22710  0.02920  1.0000 0.1185272189
C   C24       1.0  0.26080  0.25540  0.88410  1.0000 -0.1528193402
C   C25       1.0  0.40090  0.20050  0.20820  1.0000 -0.1273271812
C   C26       1.0  0.51760  0.11260  0.64710  1.0000 0.1008228661
C   C27       1.0  0.46620  0.17800  0.36670  1.0000 0.1601792502
C   C28       1.0  0.45170  0.12990  0.50490  1.0000 -0.2007044552
C   C29       1.0  0.46910  0.44750  0.97450  1.0000 -0.0140027598
C   C30       1.0  0.97780  0.99800  0.21780  1.0000 -0.1863270102
C   C31       1.0  0.27120  0.77040  0.14960  1.0000 -0.1209375744
C   C32       1.0  0.75800  0.92800  0.39590  1.0000 -0.0971957965
C   C33       1.0  0.70520  0.98740  0.10640  1.0000 0.5320399182
C   C34       1.0  0.80990  0.39430  0.02240  1.0000 0.0712374674
C   C35       1.0  0.29570  0.58950  0.07240  1.0000 -0.1528193402
C   C36       1.0  0.33720  0.65940  0.08870  1.0000 0.1111121597
C   C37       1.0  0.72260  0.81060  0.24480  1.0000 -0.1086509654
C   C38       1.0  0.91580  0.10680  0.26410  1.0000 0.0909605723
C   C39       1.0  0.72880  0.90760  0.25180  1.0000 -0.0295424553
C   C40       1.0  0.09810  0.93530  0.23520  1.0000 0.1601792502
C   C41       1.0  0.14990  0.98490  0.30970  1.0000 -0.2007044552
C   C42       1.0  0.50940  0.51820  0.98560  1.0000 -0.0949093847
C   C43       1.0  0.08480  0.09200  0.35550  1.0000 0.0618505964
C   C44       1.0  0.54260  0.32900  0.92600  1.0000 0.5320399182
C   C45       1.0  0.44370  0.62350  0.04180  1.0000 -0.1528193402
C   C46       1.0  0.77840  0.85800  0.53500  1.0000 -0.1578339821
C   C47       1.0  0.36100  0.48480  0.01640  1.0000 -0.1086509654
C   C48       1.0  0.16210  0.82430  0.17670  1.0000 -0.1578339821
C   C49       1.0  0.79160  0.45560  0.87800  1.0000 -0.1763269527
C   C50       1.0  0.79840  0.69160  0.68860  1.0000 -0.1209375744
C   C51       1.0  0.77290  0.76270  0.52920  1.0000 0.1185272189
C   C52       1.0  0.74460  0.73920  0.38410  1.0000 -0.1528193402
C   C53       1.0  0.79950  0.59910  0.70820  1.0000 -0.1273271812
C   C54       1.0  0.88740  0.48240  0.14710  1.0000 0.0909605723
C   C55       1.0  0.82200  0.53380  0.86670  1.0000 0.1601792502
C   C56       1.0  0.87010  0.54830  0.00490  1.0000 -0.2007044552
N   N1        1.0  0.84460  0.03280  0.82990  1.0000 -0.2722102029
N   N2        1.0  0.59380  0.14360  0.65640  1.0000 -0.2517688645
N   N3        1.0  0.96720  0.15540  0.32990  1.0000 -0.2722102029
N   N4        1.0  0.85640  0.40620  0.15640  1.0000 -0.2517688645
O   O1        1.0  0.70643  0.35723  0.39300  1.0000 -0.5332873983
O   O2        1.0  0.93150  0.28110  0.62250  1.0000 -0.5384479238
O   O3        1.0  0.73320  0.49680  0.42310  1.0000 -0.5384479238
O   O4        1.0  0.02670  0.32570  0.47200  1.0000 -0.56395068
O   O5        1.0  0.64277  0.29357  0.89300  1.0000 -0.5332873983
O   O6        1.0  0.71890  0.06850  0.12250  1.0000 -0.5384479238
O   O7        1.0  0.50320  0.26680  0.92310  1.0000 -0.5384479238
O   O8        1.0  0.67430  0.97330  0.97200  1.0000 -0.56395068
