# DDEC6 charges by PACMAN v1.1 (https://github.com/mtap-research/PACMAN-charge/)
data_2019[Nd][kgd]2[ASR]1
_chemical_formula_sum              "Nd2 H30 C54 O12"
_cell_length_a       9.2532
_cell_length_b       13.7985
_cell_length_c       15.3684
_cell_angle_alpha    106.336
_cell_angle_beta     95.362
_cell_angle_gamma    96.094

_symmetry_space_group_name_H-M    "P 1"
_symmetry_Int_Tables_number       1

loop_
  _symmetry_equiv_pos_as_xyz
  'x, y, z'

loop_
  _atom_site_type_symbol
  _atom_site_label
  _atom_site_symmetry_multiplicity
  _atom_site_fract_x
  _atom_site_fract_y
  _atom_site_fract_z
  _atom_site_occupancy
  _atom_site_charge
Nd  Nd1       1.0  0.07853  0.16073  0.54336  1.0000 2.0272965066
Nd  Nd2       1.0  0.92147  0.83927  0.45664  1.0000 2.0214912527
H   H1        1.0  0.91970  0.74610  0.93910  1.0000 0.1104953616
H   H2        1.0  0.71100  0.98790  0.94580  1.0000 0.1104953616
H   H3        1.0  0.69460  0.76550  0.71020  1.0000 0.1188405751
H   H4        1.0  0.66870  0.89370  0.64850  1.0000 0.1188405751
H   H5        1.0  0.51870  0.97430  0.57180  1.0000 0.1271978624
H   H6        1.0  0.35680  0.10000  0.80450  1.0000 0.1104953616
H   H7        1.0  0.49260  0.00960  0.87810  1.0000 0.1104953616
H   H8        1.0  0.98350  0.85140  0.23970  1.0000 0.1271978624
H   H9        1.0  0.91020  0.78480  0.08510  1.0000 0.1104953616
H   H10       1.0  0.85710  0.06500  0.06900  1.0000 0.1104953616
H   H11       1.0  0.93630  0.13150  0.22360  1.0000 0.1188405751
H   H12       1.0  0.92790  0.51270  0.56450  1.0000 0.1271978624
H   H13       1.0  0.86390  0.66800  0.64210  1.0000 0.1188405751
H   H14       1.0  0.86630  0.57880  0.87000  1.0000 0.1104953616
H   H15       1.0  0.93820  0.42710  0.79300  1.0000 0.1188405751
H   H16       1.0  0.08030  0.25390  0.06090  1.0000 0.1104953616
H   H17       1.0  0.28900  0.01210  0.05420  1.0000 0.1104953616
H   H18       1.0  0.30540  0.23450  0.28980  1.0000 0.1188405751
H   H19       1.0  0.33130  0.10630  0.35150  1.0000 0.1188405751
H   H20       1.0  0.48130  0.02570  0.42820  1.0000 0.1271978624
H   H21       1.0  0.64320  0.90000  0.19550  1.0000 0.1104953616
H   H22       1.0  0.50740  0.99040  0.12190  1.0000 0.1104953616
H   H23       1.0  0.01650  0.14860  0.76030  1.0000 0.1271978624
H   H24       1.0  0.08980  0.21520  0.91490  1.0000 0.1104953616
H   H25       1.0  0.14290  0.93500  0.93100  1.0000 0.1104953616
H   H26       1.0  0.06370  0.86850  0.77640  1.0000 0.1188405751
H   H27       1.0  0.07210  0.48730  0.43550  1.0000 0.1271978624
H   H28       1.0  0.13610  0.33200  0.35790  1.0000 0.1271978624
H   H29       1.0  0.13370  0.42120  0.13000  1.0000 0.1104953616
H   H30       1.0  0.06180  0.57290  0.20700  1.0000 0.1271978624
C   C1        1.0  0.87350  0.91720  0.05890  1.0000 0.0658843972
C   C2        1.0  0.82170  0.87410  0.95970  1.0000 0.0799633421
C   C3        1.0  0.86110  0.78090  0.90940  1.0000 -0.2011028595
C   C4        1.0  0.73700  0.92580  0.91360  1.0000 -0.1943359442
C   C5        1.0  0.68990  0.88640  0.81950  1.0000 0.0799633421
C   C6        1.0  0.72780  0.79300  0.77230  1.0000 -0.1770904727
C   C7        1.0  0.59770  0.94190  0.77160  1.0000 0.0658843972
C   C8        1.0  0.60380  0.93340  0.67970  1.0000 -0.1406154178
C   C9        1.0  0.51540  0.98270  0.63370  1.0000 -0.0808207621
C   C10       1.0  0.42090  0.04530  0.68090  1.0000 -0.0198276026
C   C11       1.0  0.41670  0.05650  0.77250  1.0000 -0.0900137081
C   C12       1.0  0.50050  0.00400  0.81700  1.0000 -0.1584157414
C   C13       1.0  0.32320  0.09830  0.63180  1.0000 0.5734755628
C   C14       1.0  0.00960  0.04380  0.34890  1.0000 0.5996265643
C   C15       1.0  0.95850  0.89440  0.20540  1.0000 -0.0808207621
C   C16       1.0  0.91380  0.85440  0.11260  1.0000 -0.1519815442
C   C17       1.0  0.88270  0.02170  0.10270  1.0000 -0.1519815442
C   C18       1.0  0.92960  0.06170  0.19590  1.0000 -0.0900137081
C   C19       1.0  0.96660  0.99850  0.24810  1.0000 -0.0344678268
C   C20       1.0  0.99120  0.35510  0.62290  1.0000 0.5591822796
C   C21       1.0  0.94250  0.45480  0.67130  1.0000 -0.0115470634
C   C22       1.0  0.91750  0.52680  0.62630  1.0000 -0.0808207621
C   C23       1.0  0.87720  0.61940  0.67250  1.0000 -0.1406154178
C   C24       1.0  0.85620  0.64030  0.76470  1.0000 0.0658843972
C   C25       1.0  0.87970  0.56640  0.80880  1.0000 -0.1519815442
C   C26       1.0  0.92250  0.47530  0.76260  1.0000 -0.0955605276
C   C27       1.0  0.81450  0.73950  0.81600  1.0000 0.0799633421
C   C28       1.0  0.12650  0.08280  0.94110  1.0000 0.0658843972
C   C29       1.0  0.17830  0.12590  0.04030  1.0000 0.0799633421
C   C30       1.0  0.13890  0.21910  0.09060  1.0000 -0.2011028595
C   C31       1.0  0.26300  0.07420  0.08640  1.0000 -0.1943359442
C   C32       1.0  0.31010  0.11360  0.18050  1.0000 0.0799633421
C   C33       1.0  0.27220  0.20700  0.22770  1.0000 -0.1770904727
C   C34       1.0  0.40230  0.05810  0.22840  1.0000 0.0658843972
C   C35       1.0  0.39620  0.06660  0.32030  1.0000 -0.1406154178
C   C36       1.0  0.48460  0.01730  0.36630  1.0000 -0.0808207621
C   C37       1.0  0.57910  0.95470  0.31910  1.0000 -0.0198276026
C   C38       1.0  0.58330  0.94350  0.22750  1.0000 -0.0900137081
C   C39       1.0  0.49950  0.99600  0.18300  1.0000 -0.1584157414
C   C40       1.0  0.67680  0.90170  0.36820  1.0000 0.5734755628
C   C41       1.0  0.99040  0.95620  0.65110  1.0000 0.5996265643
C   C42       1.0  0.04150  0.10560  0.79460  1.0000 -0.0808207621
C   C43       1.0  0.08620  0.14560  0.88740  1.0000 -0.1519815442
C   C44       1.0  0.11730  0.97830  0.89730  1.0000 -0.1519815442
C   C45       1.0  0.07040  0.93830  0.80410  1.0000 -0.0900137081
C   C46       1.0  0.03340  0.00150  0.75190  1.0000 -0.0344678268
C   C47       1.0  0.00880  0.64490  0.37710  1.0000 0.5591822796
C   C48       1.0  0.05750  0.54520  0.32870  1.0000 -0.0115470634
C   C49       1.0  0.08250  0.47320  0.37370  1.0000 -0.0808207621
C   C50       1.0  0.12280  0.38060  0.32750  1.0000 -0.1406154178
C   C51       1.0  0.14380  0.35970  0.23530  1.0000 0.0658843972
C   C52       1.0  0.12030  0.43360  0.19120  1.0000 -0.1519815442
C   C53       1.0  0.07750  0.52470  0.23740  1.0000 -0.0955605276
C   C54       1.0  0.18550  0.26050  0.18400  1.0000 0.0799633421
O   O1        1.0  0.26690  0.17210  0.67680  1.0000 -0.6114631064
O   O2        1.0  0.29380  0.06430  0.54470  1.0000 -0.6585707135
O   O3        1.0  0.00510  0.33220  0.53980  1.0000 -0.6300805874
O   O4        1.0  0.04790  0.13820  0.37950  1.0000 -0.6199657686
O   O5        1.0  0.00620  0.98830  0.40260  1.0000 -0.7211786874
O   O6        1.0  0.02020  0.29520  0.67000  1.0000 -0.6585707135
O   O7        1.0  0.73310  0.82790  0.32320  1.0000 -0.6114631064
O   O8        1.0  0.70620  0.93570  0.45530  1.0000 -0.6585707135
O   O9        1.0  0.99490  0.66780  0.46020  1.0000 -0.6300805874
O   O10       1.0  0.95210  0.86180  0.62050  1.0000 -0.6199657686
O   O11       1.0  0.99380  0.01170  0.59740  1.0000 -0.7211786874
O   O12       1.0  0.97980  0.70480  0.33000  1.0000 -0.6585707135
