# DDEC6 charges by PACMAN v1.1 (https://github.com/mtap-research/PACMAN-charge/)
data_2019[Tb][nan]3[ASR]7
_chemical_formula_sum              "Tb4 H22 C48 N6 O38"
_cell_length_a       11.6831
_cell_length_b       12.1945
_cell_length_c       12.9256
_cell_angle_alpha    92.126
_cell_angle_beta     104.924
_cell_angle_gamma    90.687

_symmetry_space_group_name_H-M    "P 1"
_symmetry_Int_Tables_number       1

loop_
  _symmetry_equiv_pos_as_xyz
  'x, y, z'

loop_
  _atom_site_type_symbol
  _atom_site_label
  _atom_site_symmetry_multiplicity
  _atom_site_fract_x
  _atom_site_fract_y
  _atom_site_fract_z
  _atom_site_occupancy
  _atom_site_charge
Tb  Tb1       1.0  0.04728  0.54931  0.16288  1.0000 2.0502454608
Tb  Tb2       1.0  0.55569  0.15721  0.51039  1.0000 2.0284084648
Tb  Tb3       1.0  0.95272  0.45069  0.83712  1.0000 2.0502454608
Tb  Tb4       1.0  0.44431  0.84279  0.48961  1.0000 2.0284084648
H   H1        1.0  0.51430  0.15770  0.15160  1.0000 0.1387202436
H   H2        1.0  0.62100  0.26750  0.90130  1.0000 0.1315808738
H   H3        1.0  0.77290  0.39030  0.19900  1.0000 0.1387202436
H   H4        1.0  0.91600  0.86900  0.06910  1.0000 0.1315808738
H   H5        1.0  0.76080  0.09090  0.85760  1.0000 0.1315808738
H   H6        1.0  0.74870  0.77050  0.76790  1.0000 0.1387202436
H   H7        1.0  0.20220  0.91930  0.58750  1.0000 0.1387202436
H   H8        1.0  0.93770  0.07030  0.68050  1.0000 0.1387202436
H   H9        1.0  0.23570  0.24040  0.67510  1.0000 0.1387202436
H   H10       1.0  0.63630  0.22500  0.72400  1.0000 0.3467761099
H   H11       1.0  0.54130  0.28670  0.67590  1.0000 0.3413262933
H   H12       1.0  0.48570  0.84230  0.84840  1.0000 0.1387202436
H   H13       1.0  0.37900  0.73250  0.09870  1.0000 0.1315808738
H   H14       1.0  0.22710  0.60970  0.80100  1.0000 0.1387202436
H   H15       1.0  0.08400  0.13100  0.93090  1.0000 0.1315808738
H   H16       1.0  0.23920  0.90910  0.14240  1.0000 0.1315808738
H   H17       1.0  0.25130  0.22950  0.23210  1.0000 0.1387202436
H   H18       1.0  0.79780  0.08070  0.41250  1.0000 0.1387202436
H   H19       1.0  0.06230  0.92970  0.31950  1.0000 0.1387202436
H   H20       1.0  0.76430  0.75960  0.32490  1.0000 0.1387202436
H   H21       1.0  0.36370  0.77500  0.27600  1.0000 0.3467761099
H   H22       1.0  0.45870  0.71330  0.32410  1.0000 0.3413262933
C   C1        1.0  0.65590  0.27570  0.31240  1.0000 0.5809256702
C   C2        1.0  0.64570  0.27600  0.19490  1.0000 -0.0175638657
C   C3        1.0  0.56280  0.20420  0.12520  1.0000 -0.1339752481
C   C4        1.0  0.55540  0.20450  0.01740  1.0000 0.0517479449
C   C5        1.0  0.62850  0.26880  0.97480  1.0000 -0.1530339823
C   C6        1.0  0.71420  0.33580  0.04520  1.0000 -0.0175638657
C   C7        1.0  0.71940  0.34160  0.15350  1.0000 -0.0780127544
C   C8        1.0  0.80340  0.39560  0.00240  1.0000 0.6469488312
C   C9        1.0  0.88990  0.68770  0.94590  1.0000 0.6469488312
C   C10       1.0  0.84250  0.80250  0.92150  1.0000 -0.007265295
C   C11       1.0  0.87400  0.88480  0.00010  1.0000 -0.1411397214
C   C12       1.0  0.84250  0.98990  0.97500  1.0000 0.0517479449
C   C13       1.0  0.77820  0.01820  0.87330  1.0000 -0.1411397214
C   C14       1.0  0.74100  0.93390  0.79610  1.0000 -0.007265295
C   C15       1.0  0.77330  0.82660  0.81990  1.0000 -0.0780127544
C   C16       1.0  0.66380  0.95830  0.68660  1.0000 0.6469488312
C   C17       1.0  0.34930  0.09180  0.59040  1.0000 0.6411480278
C   C18       1.0  0.23590  0.08140  0.62390  1.0000 -0.007265295
C   C19       1.0  0.17180  0.98310  0.61050  1.0000 -0.1411397214
C   C20       1.0  0.06070  0.98200  0.63200  1.0000 0.0370100762
C   C21       1.0  0.01220  0.07370  0.66740  1.0000 -0.1339752481
C   C22       1.0  0.07780  0.17200  0.68310  1.0000 -0.007265295
C   C23       1.0  0.19100  0.17530  0.66270  1.0000 -0.0868382931
C   C24       1.0  0.02890  0.27240  0.72540  1.0000 0.5706713765
C   C25       1.0  0.34410  0.72430  0.68760  1.0000 0.5809256702
C   C26       1.0  0.35430  0.72400  0.80510  1.0000 -0.0175638657
C   C27       1.0  0.43720  0.79580  0.87480  1.0000 -0.1339752481
C   C28       1.0  0.44460  0.79550  0.98260  1.0000 0.0517479449
C   C29       1.0  0.37150  0.73120  0.02520  1.0000 -0.1530339823
C   C30       1.0  0.28580  0.66420  0.95480  1.0000 -0.0175638657
C   C31       1.0  0.28060  0.65840  0.84650  1.0000 -0.0780127544
C   C32       1.0  0.19660  0.60440  0.99760  1.0000 0.6469488312
C   C33       1.0  0.11010  0.31230  0.05410  1.0000 0.6469488312
C   C34       1.0  0.15750  0.19750  0.07850  1.0000 -0.007265295
C   C35       1.0  0.12600  0.11520  0.99990  1.0000 -0.1411397214
C   C36       1.0  0.15750  0.01010  0.02500  1.0000 0.0517479449
C   C37       1.0  0.22180  0.98180  0.12670  1.0000 -0.1411397214
C   C38       1.0  0.25900  0.06610  0.20390  1.0000 -0.007265295
C   C39       1.0  0.22670  0.17340  0.18010  1.0000 -0.0780127544
C   C40       1.0  0.33620  0.04170  0.31340  1.0000 0.6469488312
C   C41       1.0  0.65070  0.90820  0.40960  1.0000 0.6411480278
C   C42       1.0  0.76410  0.91860  0.37610  1.0000 -0.007265295
C   C43       1.0  0.82820  0.01690  0.38950  1.0000 -0.1411397214
C   C44       1.0  0.93930  0.01800  0.36800  1.0000 0.0370100762
C   C45       1.0  0.98780  0.92630  0.33260  1.0000 -0.1339752481
C   C46       1.0  0.92220  0.82800  0.31690  1.0000 -0.007265295
C   C47       1.0  0.80900  0.82470  0.33730  1.0000 -0.0868382931
C   C48       1.0  0.97110  0.72760  0.27460  1.0000 0.5706713765
N   N1        1.0  0.46860  0.13080  0.94390  1.0000 0.4982154538
N   N2        1.0  0.88040  0.08030  0.05650  1.0000 0.4982154538
N   N3        1.0  0.99500  0.87790  0.61960  1.0000 0.4982154538
N   N4        1.0  0.53140  0.86920  0.05610  1.0000 0.4982154538
N   N5        1.0  0.11960  0.91970  0.94350  1.0000 0.4982154538
N   N6        1.0  0.00500  0.12210  0.38040  1.0000 0.4982154538
O   O1        1.0  0.47520  0.12070  0.85120  1.0000 -0.2916758984
O   O2        1.0  0.39560  0.08250  0.97710  1.0000 -0.3061896295
O   O3        1.0  0.59650  0.20610  0.34680  1.0000 -0.680561173
O   O4        1.0  0.72600  0.34410  0.37210  1.0000 -0.5257419974
O   O5        1.0  0.79690  0.38380  0.90320  1.0000 -0.6518766761
O   O6        1.0  0.88190  0.45190  0.06690  1.0000 -0.6856657893
O   O7        1.0  0.94720  0.67200  0.03980  1.0000 -0.6518766761
O   O8        1.0  0.86780  0.61680  0.87010  1.0000 -0.6747700602
O   O9        1.0  0.61710  0.87750  0.62760  1.0000 -0.6317745
O   O10       1.0  0.65330  0.05810  0.66260  1.0000 -0.680561173
O   O11       1.0  0.87620  0.17260  0.02780  1.0000 -0.2489089698
O   O12       1.0  0.92470  0.05550  0.14700  1.0000 -0.2837382883
O   O13       1.0  0.39490  0.18500  0.59270  1.0000 -0.6249060661
O   O14       1.0  0.39580  0.00650  0.56250  1.0000 -0.7176937491
O   O15       1.0  0.09520  0.35700  0.75340  1.0000 -0.6249060661
O   O16       1.0  0.92480  0.27180  0.73540  1.0000 -0.6317745
O   O17       1.0  0.04490  0.79250  0.60670  1.0000 -0.2916758984
O   O18       1.0  0.89110  0.87910  0.62240  1.0000 -0.2916758984
O   O19       1.0  0.61540  0.27940  0.68470  1.0000 -0.7100015909
O   O20       1.0  0.52480  0.87930  0.14880  1.0000 -0.2958827645
O   O21       1.0  0.60440  0.91750  0.02290  1.0000 -0.3061896295
O   O22       1.0  0.40350  0.79390  0.65320  1.0000 -0.680561173
O   O23       1.0  0.27400  0.65590  0.62790  1.0000 -0.5249334008
O   O24       1.0  0.20310  0.61620  0.09680  1.0000 -0.6518766761
O   O25       1.0  0.11810  0.54810  0.93310  1.0000 -0.6856657893
O   O26       1.0  0.05280  0.32800  0.96020  1.0000 -0.6518766761
O   O27       1.0  0.13220  0.38320  0.12990  1.0000 -0.6747700602
O   O28       1.0  0.38290  0.12250  0.37240  1.0000 -0.6317745
O   O29       1.0  0.34670  0.94190  0.33740  1.0000 -0.680561173
O   O30       1.0  0.12380  0.82740  0.97220  1.0000 -0.2489089698
O   O31       1.0  0.07530  0.94450  0.85300  1.0000 -0.2837382883
O   O32       1.0  0.60510  0.81500  0.40730  1.0000 -0.6249060661
O   O33       1.0  0.60420  0.99350  0.43750  1.0000 -0.7176937491
O   O34       1.0  0.90480  0.64300  0.24660  1.0000 -0.6317745
O   O35       1.0  0.07520  0.72820  0.26460  1.0000 -0.6317745
O   O36       1.0  0.95510  0.20750  0.39330  1.0000 -0.2916758984
O   O37       1.0  0.10890  0.12090  0.37760  1.0000 -0.2916758984
O   O38       1.0  0.38460  0.72060  0.31530  1.0000 -0.7100015909
