# DDEC6 charges by PACMAN v1.1 (https://github.com/mtap-research/PACMAN-charge/)
data_2019[Co][sql]2[ASR]5
_chemical_formula_sum              "Co2 H32 C44 S4 N12"
_cell_length_a       13.1246
_cell_length_b       13.1246
_cell_length_c       20.2227
_cell_angle_alpha    65.577
_cell_angle_beta     114.423
_cell_angle_gamma    128.134

_symmetry_space_group_name_H-M    "P 1"
_symmetry_Int_Tables_number       1

loop_
  _symmetry_equiv_pos_as_xyz
  'x, y, z'

loop_
  _atom_site_type_symbol
  _atom_site_label
  _atom_site_symmetry_multiplicity
  _atom_site_fract_x
  _atom_site_fract_y
  _atom_site_fract_z
  _atom_site_occupancy
  _atom_site_charge
Co  Co1       1.0  0.00000  0.50000  0.50000  1.0000 0.6385868148
Co  Co2       1.0  0.50000  0.00000  0.00000  1.0000 0.6385868148
H   H1        1.0  0.85500  0.22600  0.46680  1.0000 0.1056829349
H   H2        1.0  0.65670  0.02410  0.46410  1.0000 0.1224995609
H   H3        1.0  0.52170  0.15330  0.53680  1.0000 0.1224995609
H   H4        1.0  0.72470  0.35050  0.53870  1.0000 0.0996957592
H   H5        1.0  0.79840  0.58700  0.45900  1.0000 0.0906655012
H   H6        1.0  0.69830  0.68870  0.35900  1.0000 0.1263311462
H   H7        1.0  0.89550  0.73110  0.23020  1.0000 0.1224995609
H   H8        1.0  0.99310  0.63190  0.33430  1.0000 0.0996957592
H   H9        1.0  0.22600  0.85500  0.03320  1.0000 0.1056829349
H   H10       1.0  0.02410  0.65670  0.03590  1.0000 0.1224995609
H   H11       1.0  0.15330  0.52170  0.96320  1.0000 0.1224995609
H   H12       1.0  0.35050  0.72470  0.96130  1.0000 0.0996957592
H   H13       1.0  0.58700  0.79840  0.04100  1.0000 0.0906655012
H   H14       1.0  0.68870  0.69830  0.14100  1.0000 0.1263311462
H   H15       1.0  0.73110  0.89550  0.26980  1.0000 0.1224995609
H   H16       1.0  0.63190  0.99310  0.16570  1.0000 0.0996957592
H   H17       1.0  0.14500  0.77400  0.53320  1.0000 0.1056829349
H   H18       1.0  0.34330  0.97590  0.53590  1.0000 0.1224995609
H   H19       1.0  0.47830  0.84670  0.46320  1.0000 0.1224995609
H   H20       1.0  0.27530  0.64950  0.46130  1.0000 0.0996957592
H   H21       1.0  0.20160  0.41300  0.54100  1.0000 0.0906655012
H   H22       1.0  0.30170  0.31130  0.64100  1.0000 0.1263311462
H   H23       1.0  0.10450  0.26890  0.76980  1.0000 0.1224995609
H   H24       1.0  0.00690  0.36810  0.66570  1.0000 0.0996957592
H   H25       1.0  0.77400  0.14500  0.96680  1.0000 0.1056829349
H   H26       1.0  0.97590  0.34330  0.96410  1.0000 0.1224995609
H   H27       1.0  0.84670  0.47830  0.03680  1.0000 0.1224995609
H   H28       1.0  0.64950  0.27530  0.03870  1.0000 0.0996957592
H   H29       1.0  0.41300  0.20160  0.95900  1.0000 0.0906655012
H   H30       1.0  0.31130  0.30170  0.85900  1.0000 0.1263311462
H   H31       1.0  0.26890  0.10450  0.73020  1.0000 0.1224995609
H   H32       1.0  0.36810  0.00690  0.83430  1.0000 0.0996957592
C   C1        1.0  0.78596  0.21130  0.48133  1.0000 0.0812842927
C   C2        1.0  0.66757  0.09011  0.47951  1.0000 -0.1975435018
C   C3        1.0  0.56456  0.06458  0.50017  1.0000 0.0996957592
C   C4        1.0  0.58899  0.16525  0.52205  1.0000 -0.1975435018
C   C5        1.0  0.71075  0.28341  0.52264  1.0000 0.0717734316
C   C6        1.0  0.81882  0.61732  0.41191  1.0000 0.0717734316
C   C7        1.0  0.75815  0.67745  0.35240  1.0000 -0.1975435018
C   C8        1.0  0.78522  0.72146  0.28260  1.0000 0.0996957592
C   C9        1.0  0.87431  0.70285  0.27674  1.0000 -0.1975435018
C   C10       1.0  0.93178  0.64294  0.33922  1.0000 0.0812842927
C   C11       1.0  0.08584  0.43620  0.40240  1.0000 0.1969252222
C   C12       1.0  0.21130  0.78596  0.01867  1.0000 0.0812842927
C   C13       1.0  0.09011  0.66757  0.02049  1.0000 -0.1975435018
C   C14       1.0  0.06458  0.56456  0.99983  1.0000 0.0996957592
C   C15       1.0  0.16525  0.58899  0.97795  1.0000 -0.1975435018
C   C16       1.0  0.28341  0.71075  0.97736  1.0000 0.0717734316
C   C17       1.0  0.61732  0.81882  0.08809  1.0000 0.0717734316
C   C18       1.0  0.67745  0.75815  0.14760  1.0000 -0.1975435018
C   C19       1.0  0.72146  0.78522  0.21740  1.0000 0.0996957592
C   C20       1.0  0.70285  0.87431  0.22326  1.0000 -0.1975435018
C   C21       1.0  0.64294  0.93178  0.16078  1.0000 0.0812842927
C   C22       1.0  0.43620  0.08584  0.09760  1.0000 0.1969252222
C   C23       1.0  0.21404  0.78870  0.51867  1.0000 0.0812842927
C   C24       1.0  0.33243  0.90989  0.52049  1.0000 -0.1975435018
C   C25       1.0  0.43544  0.93542  0.49983  1.0000 0.0996957592
C   C26       1.0  0.41101  0.83475  0.47795  1.0000 -0.1975435018
C   C27       1.0  0.28925  0.71659  0.47736  1.0000 0.0717734316
C   C28       1.0  0.18118  0.38268  0.58809  1.0000 0.0717734316
C   C29       1.0  0.24185  0.32255  0.64760  1.0000 -0.1975435018
C   C30       1.0  0.21478  0.27854  0.71740  1.0000 0.0996957592
C   C31       1.0  0.12569  0.29715  0.72326  1.0000 -0.1975435018
C   C32       1.0  0.06822  0.35706  0.66078  1.0000 0.0906655012
C   C33       1.0  0.91416  0.56380  0.59760  1.0000 0.1969252222
C   C34       1.0  0.78870  0.21404  0.98133  1.0000 0.0812842927
C   C35       1.0  0.90989  0.33243  0.97951  1.0000 -0.1975435018
C   C36       1.0  0.93542  0.43544  0.00017  1.0000 0.0996957592
C   C37       1.0  0.83475  0.41101  0.02205  1.0000 -0.1975435018
C   C38       1.0  0.71659  0.28925  0.02264  1.0000 0.0717734316
C   C39       1.0  0.38268  0.18118  0.91191  1.0000 0.0717734316
C   C40       1.0  0.32255  0.24185  0.85240  1.0000 -0.1975435018
C   C41       1.0  0.27854  0.21478  0.78260  1.0000 0.0996957592
C   C42       1.0  0.29715  0.12569  0.77674  1.0000 -0.1975435018
C   C43       1.0  0.35706  0.06822  0.83922  1.0000 0.0906655012
C   C44       1.0  0.56380  0.91416  0.90240  1.0000 0.1969252222
S   S1        1.0  0.15808  0.40588  0.37085  1.0000 -0.2338396354
S   S2        1.0  0.40588  0.15808  0.12915  1.0000 -0.2338396354
S   S3        1.0  0.84192  0.59412  0.62915  1.0000 -0.2338396354
S   S4        1.0  0.59412  0.84192  0.87085  1.0000 -0.2378063096
N   N1        1.0  0.80967  0.30909  0.50211  1.0000 -0.2056433702
N   N2        1.0  0.90551  0.59955  0.40654  1.0000 -0.2185215546
N   N3        1.0  0.03636  0.45896  0.42627  1.0000 -0.4688407152
N   N4        1.0  0.30909  0.80967  0.99789  1.0000 -0.1975435018
N   N5        1.0  0.59955  0.90551  0.09346  1.0000 -0.2185215546
N   N6        1.0  0.45896  0.03636  0.07373  1.0000 -0.4688407152
N   N7        1.0  0.19033  0.69091  0.49789  1.0000 -0.2056433702
N   N8        1.0  0.09449  0.40045  0.59346  1.0000 -0.2185215546
N   N9        1.0  0.96364  0.54104  0.57373  1.0000 -0.4688407152
N   N10       1.0  0.69091  0.19033  0.00211  1.0000 -0.2056433702
N   N11       1.0  0.40045  0.09449  0.90654  1.0000 -0.2185215546
N   N12       1.0  0.54104  0.96364  0.92627  1.0000 -0.4688407152
