# DDEC6 charges by PACMAN v1.1 (https://github.com/mtap-research/PACMAN-charge/)
data_2019[Zn][sql]2[ASR]18
_chemical_formula_sum              "Zn8 H144 C168 N16 O40"
_cell_length_a       10.1523
_cell_length_b       19.705
_cell_length_c       23.2656
_cell_angle_alpha    90
_cell_angle_beta     90
_cell_angle_gamma    90

_symmetry_space_group_name_H-M    "P 1"
_symmetry_Int_Tables_number       1

loop_
  _symmetry_equiv_pos_as_xyz
  'x, y, z'

loop_
  _atom_site_type_symbol
  _atom_site_label
  _atom_site_symmetry_multiplicity
  _atom_site_fract_x
  _atom_site_fract_y
  _atom_site_fract_z
  _atom_site_occupancy
  _atom_site_charge
Zn  Zn1       1.0  0.18780  0.16137  0.09472  1.0000 0.7380686643
Zn  Zn2       1.0  0.31220  0.83863  0.59472  1.0000 0.7380686643
Zn  Zn3       1.0  0.31220  0.66137  0.40528  1.0000 0.7380686643
Zn  Zn4       1.0  0.18780  0.33863  0.90528  1.0000 0.7380686643
Zn  Zn5       1.0  0.81220  0.83863  0.90528  1.0000 0.7380686643
Zn  Zn6       1.0  0.68780  0.16137  0.40528  1.0000 0.7380686643
Zn  Zn7       1.0  0.68780  0.33863  0.59472  1.0000 0.7380686643
Zn  Zn8       1.0  0.81220  0.66137  0.09472  1.0000 0.7380686643
H   H1        1.0  0.69640  0.14724  0.09642  1.0000 0.1172417816
H   H2        1.0  0.48805  0.31915  0.06513  1.0000 0.1172417816
H   H3        1.0  0.45015  0.83410  0.70637  1.0000 0.1172417816
H   H4        1.0  0.15159  0.01784  0.04733  1.0000 0.1088874947
H   H5        1.0  0.44921  0.88564  0.79551  1.0000 0.1394076929
H   H6        1.0  0.88746  0.32408  0.06407  1.0000 0.1394076929
H   H7        1.0  0.14722  0.96401  0.95880  1.0000 0.1487968814
H   H8        1.0  0.17718  0.95888  0.64927  1.0000 0.1088874947
H   H9        1.0  0.22247  0.19430  0.97420  1.0000 0.1172417816
H   H10       1.0  0.21303  0.14604  0.88360  1.0000 0.1487968814
H   H11       1.0  0.34754  0.96185  0.86308  1.0000 0.1269046136
H   H12       1.0  0.37002  0.03295  0.83139  1.0000 0.1172417816
H   H13       1.0  0.58750  0.48444  0.04234  1.0000 0.1269046136
H   H14       1.0  0.52039  0.41838  0.01507  1.0000 0.1269046136
H   H15       1.0  0.52056  0.42903  0.08327  1.0000 0.1172417816
H   H16       1.0  0.11456  0.97650  0.85369  1.0000 0.1269046136
H   H17       1.0  0.13919  0.04873  0.82400  1.0000 0.1088874947
H   H18       1.0  0.17412  0.01654  0.73574  1.0000 0.1394076929
H   H19       1.0  0.80360  0.85276  0.59642  1.0000 0.1172417816
H   H20       1.0  0.01195  0.68085  0.56513  1.0000 0.1172417816
H   H21       1.0  0.04985  0.16590  0.20637  1.0000 0.1172417816
H   H22       1.0  0.34841  0.98216  0.54733  1.0000 0.1088874947
H   H23       1.0  0.05079  0.11436  0.29551  1.0000 0.1394076929
H   H24       1.0  0.61254  0.67592  0.56407  1.0000 0.1394076929
H   H25       1.0  0.35278  0.03599  0.45880  1.0000 0.1487968814
H   H26       1.0  0.32282  0.04112  0.14927  1.0000 0.1088874947
H   H27       1.0  0.27753  0.80570  0.47420  1.0000 0.1172417816
H   H28       1.0  0.28697  0.85396  0.38360  1.0000 0.1487968814
H   H29       1.0  0.15246  0.03815  0.36308  1.0000 0.1269046136
H   H30       1.0  0.12998  0.96705  0.33139  1.0000 0.1172417816
H   H31       1.0  0.91250  0.51556  0.54234  1.0000 0.1269046136
H   H32       1.0  0.97961  0.58162  0.51507  1.0000 0.1269046136
H   H33       1.0  0.97944  0.57097  0.58327  1.0000 0.1172417816
H   H34       1.0  0.38544  0.02350  0.35369  1.0000 0.1269046136
H   H35       1.0  0.36081  0.95127  0.32400  1.0000 0.1088874947
H   H36       1.0  0.32588  0.98346  0.23574  1.0000 0.1394076929
H   H37       1.0  0.80360  0.64724  0.40358  1.0000 0.1172417816
H   H38       1.0  0.01195  0.81915  0.43487  1.0000 0.1172417816
H   H39       1.0  0.04985  0.33410  0.79363  1.0000 0.1172417816
H   H40       1.0  0.34841  0.51784  0.45267  1.0000 0.1088874947
H   H41       1.0  0.05079  0.38564  0.70449  1.0000 0.1394076929
H   H42       1.0  0.61254  0.82408  0.43593  1.0000 0.1394076929
H   H43       1.0  0.35278  0.46401  0.54120  1.0000 0.1487968814
H   H44       1.0  0.32282  0.45888  0.85073  1.0000 0.1088874947
H   H45       1.0  0.27753  0.69430  0.52580  1.0000 0.1172417816
H   H46       1.0  0.28697  0.64604  0.61640  1.0000 0.1487968814
H   H47       1.0  0.15246  0.46185  0.63692  1.0000 0.1269046136
H   H48       1.0  0.12998  0.53295  0.66861  1.0000 0.1172417816
H   H49       1.0  0.91250  0.98444  0.45766  1.0000 0.1269046136
H   H50       1.0  0.97961  0.91838  0.48493  1.0000 0.1269046136
H   H51       1.0  0.97944  0.92903  0.41673  1.0000 0.1172417816
H   H52       1.0  0.38544  0.47650  0.64631  1.0000 0.1269046136
H   H53       1.0  0.36081  0.54873  0.67600  1.0000 0.1088874947
H   H54       1.0  0.32588  0.51654  0.76426  1.0000 0.1394076929
H   H55       1.0  0.69640  0.35276  0.90358  1.0000 0.1172417816
H   H56       1.0  0.48805  0.18085  0.93487  1.0000 0.1172417816
H   H57       1.0  0.45015  0.66590  0.29363  1.0000 0.1172417816
H   H58       1.0  0.15159  0.48216  0.95267  1.0000 0.1088874947
H   H59       1.0  0.44921  0.61436  0.20449  1.0000 0.1394076929
H   H60       1.0  0.88746  0.17592  0.93593  1.0000 0.1394076929
H   H61       1.0  0.14722  0.53599  0.04120  1.0000 0.1487968814
H   H62       1.0  0.17718  0.54112  0.35073  1.0000 0.1088874947
H   H63       1.0  0.22247  0.30570  0.02580  1.0000 0.1172417816
H   H64       1.0  0.21303  0.35396  0.11640  1.0000 0.1487968814
H   H65       1.0  0.34754  0.53815  0.13692  1.0000 0.1269046136
H   H66       1.0  0.37002  0.46705  0.16861  1.0000 0.1172417816
H   H67       1.0  0.58750  0.01556  0.95766  1.0000 0.1269046136
H   H68       1.0  0.52039  0.08162  0.98493  1.0000 0.1269046136
H   H69       1.0  0.52056  0.07097  0.91673  1.0000 0.1172417816
H   H70       1.0  0.11456  0.52350  0.14631  1.0000 0.1269046136
H   H71       1.0  0.13919  0.45127  0.17600  1.0000 0.1088874947
H   H72       1.0  0.17412  0.48346  0.26426  1.0000 0.1394076929
H   H73       1.0  0.30360  0.85276  0.90358  1.0000 0.1172417816
H   H74       1.0  0.51195  0.68085  0.93487  1.0000 0.1172417816
H   H75       1.0  0.54985  0.16590  0.29363  1.0000 0.1172417816
H   H76       1.0  0.84841  0.98216  0.95267  1.0000 0.1088874947
H   H77       1.0  0.55079  0.11436  0.20449  1.0000 0.1394076929
H   H78       1.0  0.11254  0.67592  0.93593  1.0000 0.1394076929
H   H79       1.0  0.85278  0.03599  0.04120  1.0000 0.1487968814
H   H80       1.0  0.82282  0.04112  0.35073  1.0000 0.1088874947
H   H81       1.0  0.77753  0.80570  0.02580  1.0000 0.1172417816
H   H82       1.0  0.78697  0.85396  0.11640  1.0000 0.1487968814
H   H83       1.0  0.65246  0.03815  0.13692  1.0000 0.1269046136
H   H84       1.0  0.62998  0.96705  0.16861  1.0000 0.1172417816
H   H85       1.0  0.41250  0.51556  0.95766  1.0000 0.1269046136
H   H86       1.0  0.47961  0.58162  0.98493  1.0000 0.1269046136
H   H87       1.0  0.47944  0.57097  0.91673  1.0000 0.1172417816
H   H88       1.0  0.88544  0.02350  0.14631  1.0000 0.1269046136
H   H89       1.0  0.86081  0.95127  0.17600  1.0000 0.1088874947
H   H90       1.0  0.82588  0.98346  0.26426  1.0000 0.1394076929
H   H91       1.0  0.19640  0.14724  0.40358  1.0000 0.1172417816
H   H92       1.0  0.98805  0.31915  0.43487  1.0000 0.1172417816
H   H93       1.0  0.95015  0.83410  0.79363  1.0000 0.1172417816
H   H94       1.0  0.65159  0.01784  0.45267  1.0000 0.1088874947
H   H95       1.0  0.94921  0.88564  0.70449  1.0000 0.1394076929
H   H96       1.0  0.38746  0.32408  0.43593  1.0000 0.1394076929
H   H97       1.0  0.64722  0.96401  0.54120  1.0000 0.1487968814
H   H98       1.0  0.67718  0.95888  0.85073  1.0000 0.1088874947
H   H99       1.0  0.72247  0.19430  0.52580  1.0000 0.1172417816
H   H100      1.0  0.71303  0.14604  0.61640  1.0000 0.1487968814
H   H101      1.0  0.84754  0.96185  0.63692  1.0000 0.1269046136
H   H102      1.0  0.87002  0.03295  0.66861  1.0000 0.1172417816
H   H103      1.0  0.08750  0.48444  0.45766  1.0000 0.1269046136
H   H104      1.0  0.02039  0.41838  0.48493  1.0000 0.1269046136
H   H105      1.0  0.02056  0.42903  0.41673  1.0000 0.1172417816
H   H106      1.0  0.61456  0.97650  0.64631  1.0000 0.1269046136
H   H107      1.0  0.63919  0.04873  0.67600  1.0000 0.1088874947
H   H108      1.0  0.67412  0.01654  0.76426  1.0000 0.1394076929
H   H109      1.0  0.19640  0.35276  0.59642  1.0000 0.1172417816
H   H110      1.0  0.98805  0.18085  0.56513  1.0000 0.1172417816
H   H111      1.0  0.95015  0.66590  0.20637  1.0000 0.1172417816
H   H112      1.0  0.65159  0.48216  0.54733  1.0000 0.1088874947
H   H113      1.0  0.94921  0.61436  0.29551  1.0000 0.1394076929
H   H114      1.0  0.38746  0.17592  0.56407  1.0000 0.1394076929
H   H115      1.0  0.64722  0.53599  0.45880  1.0000 0.1487968814
H   H116      1.0  0.67718  0.54112  0.14927  1.0000 0.1088874947
H   H117      1.0  0.72247  0.30570  0.47420  1.0000 0.1172417816
H   H118      1.0  0.71303  0.35396  0.38360  1.0000 0.1487968814
H   H119      1.0  0.84754  0.53815  0.36308  1.0000 0.1269046136
H   H120      1.0  0.87002  0.46705  0.33139  1.0000 0.1172417816
H   H121      1.0  0.08750  0.01556  0.54234  1.0000 0.1269046136
H   H122      1.0  0.02039  0.08162  0.51507  1.0000 0.1269046136
H   H123      1.0  0.02056  0.07097  0.58327  1.0000 0.1172417816
H   H124      1.0  0.61456  0.52350  0.35369  1.0000 0.1269046136
H   H125      1.0  0.63919  0.45127  0.32400  1.0000 0.1088874947
H   H126      1.0  0.67412  0.48346  0.23574  1.0000 0.1394076929
H   H127      1.0  0.30360  0.64724  0.09642  1.0000 0.1172417816
H   H128      1.0  0.51195  0.81915  0.06513  1.0000 0.1172417816
H   H129      1.0  0.54985  0.33410  0.70637  1.0000 0.1172417816
H   H130      1.0  0.84841  0.51784  0.04733  1.0000 0.1088874947
H   H131      1.0  0.55079  0.38564  0.79551  1.0000 0.1394076929
H   H132      1.0  0.11254  0.82408  0.06407  1.0000 0.1394076929
H   H133      1.0  0.85278  0.46401  0.95880  1.0000 0.1487968814
H   H134      1.0  0.82282  0.45888  0.64927  1.0000 0.1088874947
H   H135      1.0  0.77753  0.69430  0.97420  1.0000 0.1172417816
H   H136      1.0  0.78697  0.64604  0.88360  1.0000 0.1487968814
H   H137      1.0  0.65246  0.46185  0.86308  1.0000 0.1269046136
H   H138      1.0  0.62998  0.53295  0.83139  1.0000 0.1172417816
H   H139      1.0  0.41250  0.98444  0.04234  1.0000 0.1269046136
H   H140      1.0  0.47961  0.91838  0.01507  1.0000 0.1269046136
H   H141      1.0  0.47944  0.92903  0.08327  1.0000 0.1172417816
H   H142      1.0  0.88544  0.47650  0.85369  1.0000 0.1269046136
H   H143      1.0  0.86081  0.54873  0.82400  1.0000 0.1088874947
H   H144      1.0  0.82588  0.51654  0.73574  1.0000 0.1394076929
C   C1        1.0  0.69398  0.19440  0.08803  1.0000 -0.1538724808
C   C2        1.0  0.57028  0.29668  0.06933  1.0000 -0.240975079
C   C3        1.0  0.39191  0.87105  0.71284  1.0000 0.0891236903
C   C4        1.0  0.93924  0.19403  0.08999  1.0000 0.5419838073
C   C5        1.0  0.16518  0.04402  0.01356  1.0000 0.0891236903
C   C6        1.0  0.57443  0.22702  0.08189  1.0000 -0.0040976635
C   C7        1.0  0.39285  0.90200  0.76600  1.0000 -0.199855855
C   C8        1.0  0.81100  0.23055  0.08193  1.0000 -0.0040976635
C   C9        1.0  0.80769  0.29955  0.06893  1.0000 -0.2188487558
C   C10       1.0  0.44891  0.18761  0.08896  1.0000 0.5468941571
C   C11       1.0  0.68692  0.33242  0.06310  1.0000 0.2525871189
C   C12       1.0  0.16130  0.01161  0.96084  1.0000 -0.199855855
C   C13       1.0  0.31089  0.95731  0.77624  1.0000 0.1806676759
C   C14       1.0  0.17816  0.04926  0.91088  1.0000 0.1806676759
C   C15       1.0  0.23356  0.94410  0.67935  1.0000 0.0778220536
C   C16       1.0  0.20557  0.14705  0.97089  1.0000 0.0950940566
C   C17       1.0  0.20085  0.11851  0.91670  1.0000 -0.1938375739
C   C18       1.0  0.31126  0.99294  0.83365  1.0000 -0.2507430969
C   C19       1.0  0.57085  0.43588  0.04778  1.0000 -0.2507430969
C   C20       1.0  0.17446  0.01612  0.85248  1.0000 -0.240975079
C   C21       1.0  0.23062  0.97852  0.73101  1.0000 -0.2113754248
C   C22       1.0  0.80602  0.80560  0.58803  1.0000 -0.1538724808
C   C23       1.0  0.92972  0.70332  0.56933  1.0000 -0.240975079
C   C24       1.0  0.10809  0.12895  0.21284  1.0000 0.0891236903
C   C25       1.0  0.56076  0.80597  0.58999  1.0000 0.5419838073
C   C26       1.0  0.33482  0.95598  0.51356  1.0000 0.0891236903
C   C27       1.0  0.92557  0.77298  0.58189  1.0000 -0.0040976635
C   C28       1.0  0.10715  0.09800  0.26600  1.0000 -0.199855855
C   C29       1.0  0.68900  0.76945  0.58193  1.0000 -0.0040976635
C   C30       1.0  0.69231  0.70045  0.56893  1.0000 -0.2188487558
C   C31       1.0  0.05109  0.81239  0.58896  1.0000 0.5468941571
C   C32       1.0  0.81308  0.66758  0.56310  1.0000 0.2525871189
C   C33       1.0  0.33870  0.98839  0.46084  1.0000 -0.199855855
C   C34       1.0  0.18911  0.04269  0.27624  1.0000 0.1806676759
C   C35       1.0  0.32184  0.95074  0.41088  1.0000 0.1806676759
C   C36       1.0  0.26644  0.05590  0.17935  1.0000 0.0778220536
C   C37       1.0  0.29443  0.85295  0.47089  1.0000 0.0950940566
C   C38       1.0  0.29915  0.88149  0.41670  1.0000 -0.1938375739
C   C39       1.0  0.18874  0.00706  0.33365  1.0000 -0.2507430969
C   C40       1.0  0.92915  0.56412  0.54778  1.0000 -0.2507430969
C   C41       1.0  0.32554  0.98388  0.35248  1.0000 -0.240975079
C   C42       1.0  0.26938  0.02148  0.23101  1.0000 -0.2113754248
C   C43       1.0  0.80602  0.69440  0.41197  1.0000 -0.1538724808
C   C44       1.0  0.92972  0.79668  0.43067  1.0000 -0.240975079
C   C45       1.0  0.10809  0.37105  0.78716  1.0000 0.0891236903
C   C46       1.0  0.56076  0.69403  0.41001  1.0000 0.5419838073
C   C47       1.0  0.33482  0.54402  0.48644  1.0000 0.0891236903
C   C48       1.0  0.92557  0.72702  0.41811  1.0000 -0.0040976635
C   C49       1.0  0.10715  0.40200  0.73400  1.0000 -0.199855855
C   C50       1.0  0.68900  0.73055  0.41807  1.0000 -0.0040976635
C   C51       1.0  0.69231  0.79955  0.43107  1.0000 -0.2188487558
C   C52       1.0  0.05109  0.68761  0.41104  1.0000 0.5468941571
C   C53       1.0  0.81308  0.83242  0.43690  1.0000 0.2525871189
C   C54       1.0  0.33870  0.51161  0.53916  1.0000 -0.199855855
C   C55       1.0  0.18911  0.45731  0.72376  1.0000 0.1806676759
C   C56       1.0  0.32184  0.54926  0.58912  1.0000 0.1806676759
C   C57       1.0  0.26644  0.44410  0.82065  1.0000 0.0778220536
C   C58       1.0  0.29443  0.64705  0.52911  1.0000 0.0950940566
C   C59       1.0  0.29915  0.61851  0.58330  1.0000 -0.1938375739
C   C60       1.0  0.18874  0.49294  0.66635  1.0000 -0.2507430969
C   C61       1.0  0.92915  0.93588  0.45222  1.0000 -0.2507430969
C   C62       1.0  0.32554  0.51612  0.64752  1.0000 -0.240975079
C   C63       1.0  0.26938  0.47852  0.76899  1.0000 -0.2113754248
C   C64       1.0  0.69398  0.30560  0.91197  1.0000 -0.1538724808
C   C65       1.0  0.57028  0.20332  0.93067  1.0000 -0.240975079
C   C66       1.0  0.39191  0.62895  0.28716  1.0000 0.0891236903
C   C67       1.0  0.93924  0.30597  0.91001  1.0000 0.5419838073
C   C68       1.0  0.16518  0.45598  0.98644  1.0000 0.0891236903
C   C69       1.0  0.57443  0.27298  0.91811  1.0000 -0.0040976635
C   C70       1.0  0.39285  0.59800  0.23400  1.0000 -0.199855855
C   C71       1.0  0.81100  0.26945  0.91807  1.0000 -0.0040976635
C   C72       1.0  0.80769  0.20045  0.93107  1.0000 -0.2188487558
C   C73       1.0  0.44891  0.31239  0.91104  1.0000 0.5468941571
C   C74       1.0  0.68692  0.16758  0.93690  1.0000 0.2525871189
C   C75       1.0  0.16130  0.48839  0.03916  1.0000 -0.199855855
C   C76       1.0  0.31089  0.54269  0.22376  1.0000 0.1806676759
C   C77       1.0  0.17816  0.45074  0.08912  1.0000 0.1806676759
C   C78       1.0  0.23356  0.55590  0.32065  1.0000 0.0778220536
C   C79       1.0  0.20557  0.35295  0.02911  1.0000 0.0950940566
C   C80       1.0  0.20085  0.38149  0.08330  1.0000 -0.1938375739
C   C81       1.0  0.31126  0.50706  0.16635  1.0000 -0.2507430969
C   C82       1.0  0.57085  0.06412  0.95222  1.0000 -0.2507430969
C   C83       1.0  0.17446  0.48388  0.14752  1.0000 -0.240975079
C   C84       1.0  0.23062  0.52148  0.26899  1.0000 -0.2113754248
C   C85       1.0  0.30602  0.80560  0.91197  1.0000 -0.1538724808
C   C86       1.0  0.42972  0.70332  0.93067  1.0000 -0.240975079
C   C87       1.0  0.60809  0.12895  0.28716  1.0000 0.0891236903
C   C88       1.0  0.06076  0.80597  0.91001  1.0000 0.5419838073
C   C89       1.0  0.83482  0.95598  0.98644  1.0000 0.0891236903
C   C90       1.0  0.42557  0.77298  0.91811  1.0000 -0.0040976635
C   C91       1.0  0.60715  0.09800  0.23400  1.0000 -0.199855855
C   C92       1.0  0.18900  0.76945  0.91807  1.0000 -0.0040976635
C   C93       1.0  0.19231  0.70045  0.93107  1.0000 -0.2188487558
C   C94       1.0  0.55109  0.81239  0.91104  1.0000 0.5468941571
C   C95       1.0  0.31308  0.66758  0.93690  1.0000 0.2525871189
C   C96       1.0  0.83870  0.98839  0.03916  1.0000 -0.199855855
C   C97       1.0  0.68911  0.04269  0.22376  1.0000 0.1806676759
C   C98       1.0  0.82184  0.95074  0.08912  1.0000 0.1806676759
C   C99       1.0  0.76644  0.05590  0.32065  1.0000 0.0778220536
C   C100      1.0  0.79443  0.85295  0.02911  1.0000 0.0950940566
C   C101      1.0  0.79915  0.88149  0.08330  1.0000 -0.1938375739
C   C102      1.0  0.68874  0.00706  0.16635  1.0000 -0.2507430969
C   C103      1.0  0.42915  0.56412  0.95222  1.0000 -0.2507430969
C   C104      1.0  0.82554  0.98388  0.14752  1.0000 -0.240975079
C   C105      1.0  0.76938  0.02148  0.26899  1.0000 -0.2113754248
C   C106      1.0  0.19398  0.19440  0.41197  1.0000 -0.1538724808
C   C107      1.0  0.07028  0.29668  0.43067  1.0000 -0.240975079
C   C108      1.0  0.89191  0.87105  0.78716  1.0000 0.0891236903
C   C109      1.0  0.43924  0.19403  0.41001  1.0000 0.5419838073
C   C110      1.0  0.66518  0.04402  0.48644  1.0000 0.0891236903
C   C111      1.0  0.07443  0.22702  0.41811  1.0000 -0.0040976635
C   C112      1.0  0.89285  0.90200  0.73400  1.0000 -0.199855855
C   C113      1.0  0.31100  0.23055  0.41807  1.0000 -0.0040976635
C   C114      1.0  0.30769  0.29955  0.43107  1.0000 -0.2188487558
C   C115      1.0  0.94891  0.18761  0.41104  1.0000 0.5468941571
C   C116      1.0  0.18692  0.33242  0.43690  1.0000 0.2525871189
C   C117      1.0  0.66130  0.01161  0.53916  1.0000 -0.199855855
C   C118      1.0  0.81089  0.95731  0.72376  1.0000 0.1806676759
C   C119      1.0  0.67816  0.04926  0.58912  1.0000 0.1806676759
C   C120      1.0  0.73356  0.94410  0.82065  1.0000 0.0778220536
C   C121      1.0  0.70557  0.14705  0.52911  1.0000 0.0950940566
C   C122      1.0  0.70085  0.11851  0.58330  1.0000 -0.1938375739
C   C123      1.0  0.81126  0.99294  0.66635  1.0000 -0.2507430969
C   C124      1.0  0.07085  0.43588  0.45222  1.0000 -0.2507430969
C   C125      1.0  0.67446  0.01612  0.64752  1.0000 -0.240975079
C   C126      1.0  0.73062  0.97852  0.76899  1.0000 -0.2113754248
C   C127      1.0  0.19398  0.30560  0.58803  1.0000 -0.1538724808
C   C128      1.0  0.07028  0.20332  0.56933  1.0000 -0.240975079
C   C129      1.0  0.89191  0.62895  0.21284  1.0000 0.0891236903
C   C130      1.0  0.43924  0.30597  0.58999  1.0000 0.5419838073
C   C131      1.0  0.66518  0.45598  0.51356  1.0000 0.0891236903
C   C132      1.0  0.07443  0.27298  0.58189  1.0000 -0.0040976635
C   C133      1.0  0.89285  0.59800  0.26600  1.0000 -0.199855855
C   C134      1.0  0.31100  0.26945  0.58193  1.0000 -0.0040976635
C   C135      1.0  0.30769  0.20045  0.56893  1.0000 -0.2188487558
C   C136      1.0  0.94891  0.31239  0.58896  1.0000 0.5468941571
C   C137      1.0  0.18692  0.16758  0.56310  1.0000 0.2525871189
C   C138      1.0  0.66130  0.48839  0.46084  1.0000 -0.199855855
C   C139      1.0  0.81089  0.54269  0.27624  1.0000 0.1806676759
C   C140      1.0  0.67816  0.45074  0.41088  1.0000 0.1806676759
C   C141      1.0  0.73356  0.55590  0.17935  1.0000 0.0778220536
C   C142      1.0  0.70557  0.35295  0.47089  1.0000 0.0950940566
C   C143      1.0  0.70085  0.38149  0.41670  1.0000 -0.1938375739
C   C144      1.0  0.81126  0.50706  0.33365  1.0000 -0.2507430969
C   C145      1.0  0.07085  0.06412  0.54778  1.0000 -0.2507430969
C   C146      1.0  0.67446  0.48388  0.35248  1.0000 -0.240975079
C   C147      1.0  0.73062  0.52148  0.23101  1.0000 -0.2113754248
C   C148      1.0  0.30602  0.69440  0.08803  1.0000 -0.1538724808
C   C149      1.0  0.42972  0.79668  0.06933  1.0000 -0.240975079
C   C150      1.0  0.60809  0.37105  0.71284  1.0000 0.0891236903
C   C151      1.0  0.06076  0.69403  0.08999  1.0000 0.5419838073
C   C152      1.0  0.83482  0.54402  0.01356  1.0000 0.0891236903
C   C153      1.0  0.42557  0.72702  0.08189  1.0000 -0.0040976635
C   C154      1.0  0.60715  0.40200  0.76600  1.0000 -0.199855855
C   C155      1.0  0.18900  0.73055  0.08193  1.0000 -0.0040976635
C   C156      1.0  0.19231  0.79955  0.06893  1.0000 -0.2188487558
C   C157      1.0  0.55109  0.68761  0.08896  1.0000 0.5468941571
C   C158      1.0  0.31308  0.83242  0.06310  1.0000 0.2525871189
C   C159      1.0  0.83870  0.51161  0.96084  1.0000 -0.199855855
C   C160      1.0  0.68911  0.45731  0.77624  1.0000 0.1806676759
C   C161      1.0  0.82184  0.54926  0.91088  1.0000 0.1806676759
C   C162      1.0  0.76644  0.44410  0.67935  1.0000 0.0778220536
C   C163      1.0  0.79443  0.64705  0.97089  1.0000 0.0950940566
C   C164      1.0  0.79915  0.61851  0.91670  1.0000 -0.1938375739
C   C165      1.0  0.68874  0.49294  0.83365  1.0000 -0.2507430969
C   C166      1.0  0.42915  0.93588  0.04778  1.0000 -0.2507430969
C   C167      1.0  0.82554  0.51612  0.85248  1.0000 -0.240975079
C   C168      1.0  0.76938  0.47852  0.73101  1.0000 -0.2113754248
N   N1        1.0  0.18728  0.11079  0.01906  1.0000 -0.2507430969
N   N2        1.0  0.31243  0.89072  0.66976  1.0000 -0.240975079
N   N3        1.0  0.31272  0.88921  0.51906  1.0000 -0.2507430969
N   N4        1.0  0.18757  0.10928  0.16976  1.0000 -0.240975079
N   N5        1.0  0.31272  0.61079  0.48094  1.0000 -0.2507430969
N   N6        1.0  0.18757  0.39072  0.83024  1.0000 -0.240975079
N   N7        1.0  0.18728  0.38921  0.98094  1.0000 -0.2507430969
N   N8        1.0  0.31243  0.60928  0.33024  1.0000 -0.240975079
N   N9        1.0  0.81272  0.88921  0.98094  1.0000 -0.2507430969
N   N10       1.0  0.68757  0.10928  0.33024  1.0000 -0.240975079
N   N11       1.0  0.68728  0.11079  0.48094  1.0000 -0.2507430969
N   N12       1.0  0.81243  0.89072  0.83024  1.0000 -0.240975079
N   N13       1.0  0.68728  0.38921  0.51906  1.0000 -0.2507430969
N   N14       1.0  0.81243  0.60928  0.16976  1.0000 -0.240975079
N   N15       1.0  0.81272  0.61079  0.01906  1.0000 -0.2507430969
N   N16       1.0  0.68757  0.39072  0.66976  1.0000 -0.240975079
O   O1        1.0  0.34173  0.22261  0.09017  1.0000 -0.5596671535
O   O2        1.0  0.04444  0.22987  0.09330  1.0000 -0.5433867483
O   O3        1.0  0.69364  0.40052  0.05169  1.0000 -0.1379565654
O   O4        1.0  0.94002  0.13109  0.09384  1.0000 -0.5596671535
O   O5        1.0  0.45231  0.12482  0.09356  1.0000 -0.5839076398
O   O6        1.0  0.15827  0.77739  0.59017  1.0000 -0.5596671535
O   O7        1.0  0.45556  0.77013  0.59330  1.0000 -0.5433867483
O   O8        1.0  0.80636  0.59948  0.55169  1.0000 -0.1379565654
O   O9        1.0  0.55998  0.86891  0.59384  1.0000 -0.5596671535
O   O10       1.0  0.04769  0.87518  0.59356  1.0000 -0.5839076398
O   O11       1.0  0.15827  0.72261  0.40983  1.0000 -0.5596671535
O   O12       1.0  0.45556  0.72987  0.40670  1.0000 -0.5433867483
O   O13       1.0  0.80636  0.90052  0.44831  1.0000 -0.1379565654
O   O14       1.0  0.55998  0.63109  0.40616  1.0000 -0.5596671535
O   O15       1.0  0.04769  0.62482  0.40644  1.0000 -0.5839076398
O   O16       1.0  0.34173  0.27739  0.90983  1.0000 -0.5596671535
O   O17       1.0  0.04444  0.27013  0.90670  1.0000 -0.5433867483
O   O18       1.0  0.69364  0.09948  0.94831  1.0000 -0.1379565654
O   O19       1.0  0.94002  0.36891  0.90616  1.0000 -0.5596671535
O   O20       1.0  0.45231  0.37518  0.90644  1.0000 -0.5839076398
O   O21       1.0  0.65827  0.77739  0.90983  1.0000 -0.5596671535
O   O22       1.0  0.95556  0.77013  0.90670  1.0000 -0.5433867483
O   O23       1.0  0.30636  0.59948  0.94831  1.0000 -0.1379565654
O   O24       1.0  0.05998  0.86891  0.90616  1.0000 -0.5596671535
O   O25       1.0  0.54769  0.87518  0.90644  1.0000 -0.5839076398
O   O26       1.0  0.84173  0.22261  0.40983  1.0000 -0.5596671535
O   O27       1.0  0.54444  0.22987  0.40670  1.0000 -0.5433867483
O   O28       1.0  0.19364  0.40052  0.44831  1.0000 -0.1379565654
O   O29       1.0  0.44002  0.13109  0.40616  1.0000 -0.5596671535
O   O30       1.0  0.95231  0.12482  0.40644  1.0000 -0.5839076398
O   O31       1.0  0.84173  0.27739  0.59017  1.0000 -0.5596671535
O   O32       1.0  0.54444  0.27013  0.59330  1.0000 -0.5433867483
O   O33       1.0  0.19364  0.09948  0.55169  1.0000 -0.1379565654
O   O34       1.0  0.44002  0.36891  0.59384  1.0000 -0.5596671535
O   O35       1.0  0.95231  0.37518  0.59356  1.0000 -0.5839076398
O   O36       1.0  0.65827  0.72261  0.09017  1.0000 -0.5596671535
O   O37       1.0  0.95556  0.72987  0.09330  1.0000 -0.5433867483
O   O38       1.0  0.30636  0.90052  0.05169  1.0000 -0.1379565654
O   O39       1.0  0.05998  0.63109  0.09384  1.0000 -0.5596671535
O   O40       1.0  0.54769  0.62482  0.09356  1.0000 -0.5839076398
