# DDEC6 charges by PACMAN v1.1 (https://github.com/mtap-research/PACMAN-charge/)
data_2019[Zn][nan]2[ASR]6
_chemical_formula_sum              "Zn8 H108 C172 N16 O48"
_cell_length_a       11.2924
_cell_length_b       28.4511
_cell_length_c       18.241
_cell_angle_alpha    90
_cell_angle_beta     125.599
_cell_angle_gamma    90

_symmetry_space_group_name_H-M    "P 1"
_symmetry_Int_Tables_number       1

loop_
  _symmetry_equiv_pos_as_xyz
  'x, y, z'

loop_
  _atom_site_type_symbol
  _atom_site_label
  _atom_site_symmetry_multiplicity
  _atom_site_fract_x
  _atom_site_fract_y
  _atom_site_fract_z
  _atom_site_occupancy
  _atom_site_charge
Zn  Zn1       1.0  0.22649  0.67218  0.65931  1.0000 0.8361834409
Zn  Zn2       1.0  0.76812  0.67106  0.49312  1.0000 0.8361834409
Zn  Zn3       1.0  0.77351  0.17218  0.84069  1.0000 0.8361834409
Zn  Zn4       1.0  0.23188  0.17106  0.00688  1.0000 0.8361834409
Zn  Zn5       1.0  0.77351  0.32782  0.34069  1.0000 0.8361834409
Zn  Zn6       1.0  0.23188  0.32894  0.50688  1.0000 0.8361834409
Zn  Zn7       1.0  0.22649  0.82782  0.15931  1.0000 0.8361834409
Zn  Zn8       1.0  0.76812  0.82894  0.99312  1.0000 0.8361834409
H   H1        1.0  0.51048  0.65756  0.85132  1.0000 0.1192318854
H   H2        1.0  0.74829  0.63596  0.91190  1.0000 0.1298743935
H   H3        1.0  0.66800  0.65802  0.66812  1.0000 0.1394871594
H   H4        1.0  0.43231  0.67863  0.61335  1.0000 0.1192318854
H   H5        1.0  0.97706  0.63731  0.96412  1.0000 0.1494140299
H   H6        1.0  0.20915  0.61389  0.01350  1.0000 0.1298743935
H   H7        1.0  0.07714  0.58734  0.76358  1.0000 0.1394871594
H   H8        1.0  0.84173  0.60967  0.70844  1.0000 0.1580434637
H   H9        1.0  0.35010  0.60798  0.90436  1.0000 0.1394871594
H   H10       1.0  0.37611  0.58580  0.99328  1.0000 0.1116947979
H   H11       1.0  0.33699  0.55773  0.79657  1.0000 0.1394871594
H   H12       1.0  0.34701  0.48261  0.74810  1.0000 0.1394871594
H   H13       1.0  0.32747  0.42533  0.94338  1.0000 0.1116947979
H   H14       1.0  0.30955  0.50011  0.98846  1.0000 0.1192318854
H   H15       1.0  0.40261  0.37698  0.85766  1.0000 0.1298743935
H   H16       1.0  0.36392  0.39880  0.76482  1.0000 0.1494140299
H   H17       1.0  0.11735  0.40005  0.63542  1.0000 0.1394871594
H   H18       1.0  0.87251  0.38065  0.56433  1.0000 0.1494140299
H   H19       1.0  0.97236  0.33321  0.80362  1.0000 0.1494140299
H   H20       1.0  0.21388  0.35255  0.86984  1.0000 0.1298743935
H   H21       1.0  0.65736  0.39182  0.52874  1.0000 0.1394871594
H   H22       1.0  0.41495  0.38224  0.47522  1.0000 0.1192318854
H   H23       1.0  0.52229  0.28791  0.66248  1.0000 0.1298743935
H   H24       1.0  0.76793  0.29849  0.72664  1.0000 0.1394871594
H   H25       1.0  0.74582  0.73732  0.21965  1.0000 0.1192318854
H   H26       1.0  0.23237  0.77548  0.43592  1.0000 0.1192318854
H   H27       1.0  0.23742  0.50697  0.54237  1.0000 0.1192318854
H   H28       1.0  0.48952  0.15756  0.64868  1.0000 0.1192318854
H   H29       1.0  0.25171  0.13596  0.58810  1.0000 0.1298743935
H   H30       1.0  0.33200  0.15802  0.83188  1.0000 0.1394871594
H   H31       1.0  0.56769  0.17863  0.88665  1.0000 0.1192318854
H   H32       1.0  0.02294  0.13731  0.53588  1.0000 0.1494140299
H   H33       1.0  0.79085  0.11389  0.48650  1.0000 0.1298743935
H   H34       1.0  0.92286  0.08734  0.73642  1.0000 0.1394871594
H   H35       1.0  0.15827  0.10967  0.79156  1.0000 0.1580434637
H   H36       1.0  0.64990  0.10798  0.59564  1.0000 0.1394871594
H   H37       1.0  0.62389  0.08580  0.50672  1.0000 0.1116947979
H   H38       1.0  0.66301  0.05773  0.70343  1.0000 0.1394871594
H   H39       1.0  0.65299  0.98261  0.75190  1.0000 0.1394871594
H   H40       1.0  0.67253  0.92533  0.55662  1.0000 0.1116947979
H   H41       1.0  0.69045  0.00011  0.51154  1.0000 0.1192318854
H   H42       1.0  0.59739  0.87698  0.64234  1.0000 0.1298743935
H   H43       1.0  0.63608  0.89880  0.73518  1.0000 0.1494140299
H   H44       1.0  0.88265  0.90005  0.86458  1.0000 0.1394871594
H   H45       1.0  0.12749  0.88065  0.93567  1.0000 0.1494140299
H   H46       1.0  0.02764  0.83321  0.69638  1.0000 0.1494140299
H   H47       1.0  0.78612  0.85255  0.63016  1.0000 0.1298743935
H   H48       1.0  0.34264  0.89182  0.97126  1.0000 0.1394871594
H   H49       1.0  0.58505  0.88224  0.02478  1.0000 0.1192318854
H   H50       1.0  0.47771  0.78791  0.83752  1.0000 0.1298743935
H   H51       1.0  0.23207  0.79849  0.77336  1.0000 0.1394871594
H   H52       1.0  0.25418  0.23732  0.28035  1.0000 0.1192318854
H   H53       1.0  0.76763  0.27548  0.06408  1.0000 0.1192318854
H   H54       1.0  0.76258  0.00697  0.95763  1.0000 0.1192318854
H   H55       1.0  0.48952  0.34244  0.14868  1.0000 0.1192318854
H   H56       1.0  0.25171  0.36404  0.08810  1.0000 0.1298743935
H   H57       1.0  0.33200  0.34198  0.33188  1.0000 0.1394871594
H   H58       1.0  0.56769  0.32137  0.38665  1.0000 0.1192318854
H   H59       1.0  0.02294  0.36269  0.03588  1.0000 0.1494140299
H   H60       1.0  0.79085  0.38611  0.98650  1.0000 0.1298743935
H   H61       1.0  0.92286  0.41266  0.23642  1.0000 0.1394871594
H   H62       1.0  0.15827  0.39033  0.29156  1.0000 0.1580434637
H   H63       1.0  0.64990  0.39202  0.09564  1.0000 0.1394871594
H   H64       1.0  0.62389  0.41420  0.00672  1.0000 0.1116947979
H   H65       1.0  0.66301  0.44227  0.20343  1.0000 0.1394871594
H   H66       1.0  0.65299  0.51739  0.25190  1.0000 0.1394871594
H   H67       1.0  0.67253  0.57467  0.05662  1.0000 0.1116947979
H   H68       1.0  0.69045  0.49989  0.01154  1.0000 0.1192318854
H   H69       1.0  0.59739  0.62302  0.14234  1.0000 0.1298743935
H   H70       1.0  0.63608  0.60120  0.23518  1.0000 0.1494140299
H   H71       1.0  0.88265  0.59995  0.36458  1.0000 0.1394871594
H   H72       1.0  0.12749  0.61935  0.43567  1.0000 0.1494140299
H   H73       1.0  0.02764  0.66679  0.19638  1.0000 0.1494140299
H   H74       1.0  0.78612  0.64745  0.13016  1.0000 0.1298743935
H   H75       1.0  0.34264  0.60818  0.47126  1.0000 0.1394871594
H   H76       1.0  0.58505  0.61776  0.52478  1.0000 0.1192318854
H   H77       1.0  0.47771  0.71209  0.33752  1.0000 0.1298743935
H   H78       1.0  0.23207  0.70151  0.27336  1.0000 0.1394871594
H   H79       1.0  0.25418  0.26268  0.78035  1.0000 0.1192318854
H   H80       1.0  0.76763  0.22452  0.56408  1.0000 0.1192318854
H   H81       1.0  0.76258  0.49303  0.45763  1.0000 0.1192318854
H   H82       1.0  0.51048  0.84244  0.35132  1.0000 0.1192318854
H   H83       1.0  0.74829  0.86404  0.41190  1.0000 0.1298743935
H   H84       1.0  0.66800  0.84198  0.16812  1.0000 0.1394871594
H   H85       1.0  0.43231  0.82137  0.11335  1.0000 0.1192318854
H   H86       1.0  0.97706  0.86269  0.46412  1.0000 0.1494140299
H   H87       1.0  0.20915  0.88611  0.51350  1.0000 0.1298743935
H   H88       1.0  0.07714  0.91266  0.26358  1.0000 0.1394871594
H   H89       1.0  0.84173  0.89033  0.20844  1.0000 0.1580434637
H   H90       1.0  0.35010  0.89202  0.40436  1.0000 0.1394871594
H   H91       1.0  0.37611  0.91420  0.49328  1.0000 0.1116947979
H   H92       1.0  0.33699  0.94227  0.29657  1.0000 0.1394871594
H   H93       1.0  0.34701  0.01739  0.24810  1.0000 0.1394871594
H   H94       1.0  0.32747  0.07467  0.44338  1.0000 0.1116947979
H   H95       1.0  0.30955  0.99989  0.48846  1.0000 0.1192318854
H   H96       1.0  0.40261  0.12302  0.35766  1.0000 0.1298743935
H   H97       1.0  0.36392  0.10120  0.26482  1.0000 0.1494140299
H   H98       1.0  0.11735  0.09995  0.13542  1.0000 0.1394871594
H   H99       1.0  0.87251  0.11935  0.06433  1.0000 0.1494140299
H   H100      1.0  0.97236  0.16679  0.30362  1.0000 0.1494140299
H   H101      1.0  0.21388  0.14745  0.36984  1.0000 0.1298743935
H   H102      1.0  0.65736  0.10818  0.02874  1.0000 0.1394871594
H   H103      1.0  0.41495  0.11776  0.97522  1.0000 0.1192318854
H   H104      1.0  0.52229  0.21209  0.16248  1.0000 0.1298743935
H   H105      1.0  0.76793  0.20151  0.22664  1.0000 0.1394871594
H   H106      1.0  0.74582  0.76268  0.71965  1.0000 0.1192318854
H   H107      1.0  0.23237  0.72452  0.93592  1.0000 0.1192318854
H   H108      1.0  0.23742  0.99303  0.04237  1.0000 0.1192318854
C   C1        1.0  0.54250  0.65720  0.81330  1.0000 0.0873268703
C   C2        1.0  0.68460  0.64400  0.84990  1.0000 -0.1929406477
C   C3        1.0  0.73390  0.64261  0.79540  1.0000 0.1192318854
C   C4        1.0  0.63750  0.65689  0.70690  1.0000 -0.1669721549
C   C5        1.0  0.49710  0.66950  0.67470  1.0000 0.1116947979
C   C6        1.0  0.88310  0.62661  0.82980  1.0000 0.1192318854
C   C7        1.0  0.99530  0.62720  0.92190  1.0000 -0.1754559679
C   C8        1.0  0.13260  0.61300  0.95090  1.0000 0.0248823268
C   C9        1.0  0.05520  0.59735  0.80410  1.0000 0.0590545931
C   C10       1.0  0.91600  0.61095  0.77140  1.0000 -0.1340404441
C   C11       1.0  0.31270  0.58474  0.92660  1.0000 -0.2010045079
C   C12       1.0  0.32050  0.53626  0.89590  1.0000 0.0873268703
C   C13       1.0  0.33290  0.53079  0.82580  1.0000 -0.1340404441
C   C14       1.0  0.33980  0.48600  0.79720  1.0000 -0.1429900406
C   C15       1.0  0.33590  0.44671  0.83960  1.0000 0.0873268703
C   C16       1.0  0.32710  0.45224  0.91240  1.0000 -0.1669721549
C   C17       1.0  0.31780  0.49666  0.93980  1.0000 -0.1460629469
C   C18       1.0  0.33410  0.39769  0.80620  1.0000 -0.1929406477
C   C19       1.0  0.08600  0.38693  0.66930  1.0000 0.0590545931
C   C20       1.0  0.94090  0.37557  0.62720  1.0000 -0.1429900406
C   C21       1.0  0.89590  0.35667  0.67750  1.0000 0.1192318854
C   C22       1.0  0.00020  0.34745  0.76870  1.0000 -0.1596163135
C   C23       1.0  0.14260  0.35895  0.80770  1.0000 0.0271389046
C   C24       1.0  0.73840  0.34768  0.63490  1.0000 0.1116947979
C   C25       1.0  0.63220  0.37126  0.55870  1.0000 -0.1596163135
C   C26       1.0  0.48800  0.36468  0.52620  1.0000 0.0773586007
C   C27       1.0  0.55070  0.31002  0.63640  1.0000 0.1116947979
C   C28       1.0  0.69680  0.31579  0.67450  1.0000 -0.1669721549
C   C29       1.0  0.13720  0.73486  0.51850  1.0000 0.5787305953
C   C30       1.0  0.05350  0.74632  0.41870  1.0000 -0.0215984638
C   C31       1.0  0.90650  0.73516  0.35390  1.0000 -0.0530015868
C   C32       1.0  0.84490  0.74513  0.26380  1.0000 -0.1596163135
C   C33       1.0  0.92490  0.76630  0.23660  1.0000 -0.0420230245
C   C34       1.0  0.07220  0.77723  0.30180  1.0000 -0.0530015868
C   C35       1.0  0.13340  0.76750  0.39170  1.0000 -0.1669721549
C   C36       1.0  0.81130  0.71280  0.37690  1.0000 0.5587664964
C   C37       1.0  0.84380  0.77841  0.13850  1.0000 0.5674842866
C   C38       1.0  0.16970  0.79765  0.27790  1.0000 0.5540438937
C   C39       1.0  0.17510  0.58326  0.59390  1.0000 0.5540438937
C   C40       1.0  0.08120  0.54054  0.54510  1.0000 -0.0420230245
C   C41       1.0  0.14070  0.50406  0.52540  1.0000 -0.1596163135
C   C42       1.0  0.93750  0.53638  0.51840  1.0000 -0.0322102713
C   C43       1.0  0.85800  0.57592  0.52710  1.0000 0.5895398976
C   C44       1.0  0.45750  0.15720  0.68670  1.0000 0.0873268703
C   C45       1.0  0.31540  0.14400  0.65010  1.0000 -0.1929406477
C   C46       1.0  0.26610  0.14261  0.70460  1.0000 0.1192318854
C   C47       1.0  0.36250  0.15689  0.79310  1.0000 -0.1669721549
C   C48       1.0  0.50290  0.16950  0.82530  1.0000 0.1116947979
C   C49       1.0  0.11690  0.12661  0.67020  1.0000 0.1192318854
C   C50       1.0  0.00470  0.12720  0.57810  1.0000 -0.1754559679
C   C51       1.0  0.86740  0.11300  0.54910  1.0000 0.0248823268
C   C52       1.0  0.94480  0.09735  0.69590  1.0000 0.0590545931
C   C53       1.0  0.08400  0.11095  0.72860  1.0000 -0.1340404441
C   C54       1.0  0.68730  0.08474  0.57340  1.0000 -0.2010045079
C   C55       1.0  0.67950  0.03626  0.60410  1.0000 0.0873268703
C   C56       1.0  0.66710  0.03079  0.67420  1.0000 -0.1340404441
C   C57       1.0  0.66020  0.98600  0.70280  1.0000 -0.1429900406
C   C58       1.0  0.66410  0.94671  0.66040  1.0000 0.0873268703
C   C59       1.0  0.67290  0.95224  0.58760  1.0000 -0.1669721549
C   C60       1.0  0.68220  0.99666  0.56020  1.0000 -0.1460629469
C   C61       1.0  0.66590  0.89769  0.69380  1.0000 -0.1929406477
C   C62       1.0  0.91400  0.88693  0.83070  1.0000 0.0590545931
C   C63       1.0  0.05910  0.87557  0.87280  1.0000 -0.1429900406
C   C64       1.0  0.10410  0.85667  0.82250  1.0000 0.1192318854
C   C65       1.0  0.99980  0.84745  0.73130  1.0000 -0.1596163135
C   C66       1.0  0.85740  0.85895  0.69230  1.0000 0.0271389046
C   C67       1.0  0.26160  0.84768  0.86510  1.0000 0.1116947979
C   C68       1.0  0.36780  0.87126  0.94130  1.0000 -0.1669721549
C   C69       1.0  0.51200  0.86468  0.97380  1.0000 0.0773586007
C   C70       1.0  0.44930  0.81002  0.86360  1.0000 0.1116947979
C   C71       1.0  0.30320  0.81579  0.82550  1.0000 -0.1669721549
C   C72       1.0  0.86280  0.23486  0.98150  1.0000 0.5787305953
C   C73       1.0  0.94650  0.24632  0.08130  1.0000 -0.0215984638
C   C74       1.0  0.09350  0.23516  0.14610  1.0000 -0.0530015868
C   C75       1.0  0.15510  0.24513  0.23620  1.0000 -0.1596163135
C   C76       1.0  0.07510  0.26630  0.26340  1.0000 -0.0420230245
C   C77       1.0  0.92780  0.27723  0.19820  1.0000 -0.0530015868
C   C78       1.0  0.86660  0.26750  0.10830  1.0000 -0.1596163135
C   C79       1.0  0.18870  0.21280  0.12310  1.0000 0.5587664964
C   C80       1.0  0.15620  0.27841  0.36150  1.0000 0.5674842866
C   C81       1.0  0.83030  0.29765  0.22210  1.0000 0.5540438937
C   C82       1.0  0.82490  0.08326  0.90610  1.0000 0.5540438937
C   C83       1.0  0.91880  0.04054  0.95490  1.0000 -0.0420230245
C   C84       1.0  0.85930  0.00406  0.97460  1.0000 -0.1596163135
C   C85       1.0  0.06250  0.03638  0.98160  1.0000 -0.0322102713
C   C86       1.0  0.14200  0.07592  0.97290  1.0000 0.5895398976
C   C87       1.0  0.45750  0.34280  0.18670  1.0000 0.0873268703
C   C88       1.0  0.31540  0.35600  0.15010  1.0000 -0.1929406477
C   C89       1.0  0.26610  0.35739  0.20460  1.0000 0.1192318854
C   C90       1.0  0.36250  0.34311  0.29310  1.0000 -0.1669721549
C   C91       1.0  0.50290  0.33050  0.32530  1.0000 0.1116947979
C   C92       1.0  0.11690  0.37339  0.17020  1.0000 0.1192318854
C   C93       1.0  0.00470  0.37280  0.07810  1.0000 -0.1754559679
C   C94       1.0  0.86740  0.38700  0.04910  1.0000 0.0271389046
C   C95       1.0  0.94480  0.40265  0.19590  1.0000 0.0590545931
C   C96       1.0  0.08400  0.38905  0.22860  1.0000 -0.1340404441
C   C97       1.0  0.68730  0.41526  0.07340  1.0000 -0.2010045079
C   C98       1.0  0.67950  0.46374  0.10410  1.0000 0.0873268703
C   C99       1.0  0.66710  0.46921  0.17420  1.0000 -0.1340404441
C   C100      1.0  0.66020  0.51400  0.20280  1.0000 -0.1429900406
C   C101      1.0  0.66410  0.55329  0.16040  1.0000 0.0873268703
C   C102      1.0  0.67290  0.54776  0.08760  1.0000 -0.1669721549
C   C103      1.0  0.68220  0.50334  0.06020  1.0000 -0.1460629469
C   C104      1.0  0.66590  0.60231  0.19380  1.0000 -0.1929406477
C   C105      1.0  0.91400  0.61307  0.33070  1.0000 0.0590545931
C   C106      1.0  0.05910  0.62443  0.37280  1.0000 -0.1429900406
C   C107      1.0  0.10410  0.64333  0.32250  1.0000 0.1192318854
C   C108      1.0  0.99980  0.65255  0.23130  1.0000 -0.1596163135
C   C109      1.0  0.85740  0.64105  0.19230  1.0000 0.0271389046
C   C110      1.0  0.26160  0.65232  0.36510  1.0000 0.1116947979
C   C111      1.0  0.36780  0.62874  0.44130  1.0000 -0.1669721549
C   C112      1.0  0.51200  0.63532  0.47380  1.0000 0.0773586007
C   C113      1.0  0.44930  0.68998  0.36360  1.0000 0.1116947979
C   C114      1.0  0.30320  0.68421  0.32550  1.0000 -0.1669721549
C   C115      1.0  0.86280  0.26514  0.48150  1.0000 0.5787305953
C   C116      1.0  0.94650  0.25368  0.58130  1.0000 -0.0215984638
C   C117      1.0  0.09350  0.26484  0.64610  1.0000 -0.0530015868
C   C118      1.0  0.15510  0.25487  0.73620  1.0000 -0.1596163135
C   C119      1.0  0.07510  0.23370  0.76340  1.0000 -0.0420230245
C   C120      1.0  0.92780  0.22277  0.69820  1.0000 -0.0530015868
C   C121      1.0  0.86660  0.23250  0.60830  1.0000 -0.1669721549
C   C122      1.0  0.18870  0.28720  0.62310  1.0000 0.5587664964
C   C123      1.0  0.15620  0.22159  0.86150  1.0000 0.5674842866
C   C124      1.0  0.83030  0.20235  0.72210  1.0000 0.5540438937
C   C125      1.0  0.82490  0.41674  0.40610  1.0000 0.5540438937
C   C126      1.0  0.91880  0.45946  0.45490  1.0000 -0.0420230245
C   C127      1.0  0.85930  0.49594  0.47460  1.0000 -0.1596163135
C   C128      1.0  0.06250  0.46362  0.48160  1.0000 -0.0322102713
C   C129      1.0  0.14200  0.42408  0.47290  1.0000 0.5895398976
C   C130      1.0  0.54250  0.84280  0.31330  1.0000 0.0873268703
C   C131      1.0  0.68460  0.85600  0.34990  1.0000 -0.1929406477
C   C132      1.0  0.73390  0.85739  0.29540  1.0000 0.1192318854
C   C133      1.0  0.63750  0.84311  0.20690  1.0000 -0.1669721549
C   C134      1.0  0.49710  0.83050  0.17470  1.0000 0.1116947979
C   C135      1.0  0.88310  0.87339  0.32980  1.0000 0.1192318854
C   C136      1.0  0.99530  0.87280  0.42190  1.0000 -0.1754559679
C   C137      1.0  0.13260  0.88700  0.45090  1.0000 0.0271389046
C   C138      1.0  0.05520  0.90265  0.30410  1.0000 0.0590545931
C   C139      1.0  0.91600  0.88905  0.27140  1.0000 -0.1340404441
C   C140      1.0  0.31270  0.91526  0.42660  1.0000 -0.2010045079
C   C141      1.0  0.32050  0.96374  0.39590  1.0000 0.0873268703
C   C142      1.0  0.33290  0.96921  0.32580  1.0000 -0.1340404441
C   C143      1.0  0.33980  0.01400  0.29720  1.0000 -0.1429900406
C   C144      1.0  0.33590  0.05329  0.33960  1.0000 0.0873268703
C   C145      1.0  0.32710  0.04776  0.41240  1.0000 -0.1669721549
C   C146      1.0  0.31780  0.00334  0.43980  1.0000 -0.1460629469
C   C147      1.0  0.33410  0.10231  0.30620  1.0000 -0.1929406477
C   C148      1.0  0.08600  0.11307  0.16930  1.0000 0.0590545931
C   C149      1.0  0.94090  0.12443  0.12720  1.0000 -0.1429900406
C   C150      1.0  0.89590  0.14333  0.17750  1.0000 0.1192318854
C   C151      1.0  0.00020  0.15255  0.26870  1.0000 -0.1596163135
C   C152      1.0  0.14260  0.14105  0.30770  1.0000 0.0271389046
C   C153      1.0  0.73840  0.15232  0.13490  1.0000 0.1116947979
C   C154      1.0  0.63220  0.12874  0.05870  1.0000 -0.1669721549
C   C155      1.0  0.48800  0.13532  0.02620  1.0000 0.0773586007
C   C156      1.0  0.55070  0.18998  0.13640  1.0000 0.1116947979
C   C157      1.0  0.69680  0.18421  0.17450  1.0000 -0.1669721549
C   C158      1.0  0.13720  0.76514  0.01850  1.0000 0.5787305953
C   C159      1.0  0.05350  0.75368  0.91870  1.0000 -0.0215984638
C   C160      1.0  0.90650  0.76484  0.85390  1.0000 -0.0530015868
C   C161      1.0  0.84490  0.75487  0.76380  1.0000 -0.1596163135
C   C162      1.0  0.92490  0.73370  0.73660  1.0000 -0.0420230245
C   C163      1.0  0.07220  0.72277  0.80180  1.0000 -0.0530015868
C   C164      1.0  0.13340  0.73250  0.89170  1.0000 -0.1669721549
C   C165      1.0  0.81130  0.78720  0.87690  1.0000 0.5587664964
C   C166      1.0  0.84380  0.72159  0.63850  1.0000 0.5674842866
C   C167      1.0  0.16970  0.70235  0.77790  1.0000 0.5540438937
C   C168      1.0  0.17510  0.91674  0.09390  1.0000 0.5540438937
C   C169      1.0  0.08120  0.95946  0.04510  1.0000 -0.0420230245
C   C170      1.0  0.14070  0.99594  0.02540  1.0000 -0.1596163135
C   C171      1.0  0.93750  0.96362  0.01840  1.0000 -0.0322102713
C   C172      1.0  0.85800  0.92408  0.02710  1.0000 0.5895398976
N   N1        1.0  0.44820  0.66941  0.72670  1.0000 -0.2225260054
N   N2        1.0  0.16080  0.59813  0.89350  1.0000 0.1192318854
N   N3        1.0  0.18240  0.37943  0.75810  1.0000 0.1116947979
N   N4        1.0  0.44780  0.33416  0.56450  1.0000 -0.2225260054
N   N5        1.0  0.55180  0.16941  0.77330  1.0000 -0.2225260054
N   N6        1.0  0.83920  0.09813  0.60650  1.0000 0.1192318854
N   N7        1.0  0.81760  0.87943  0.74190  1.0000 0.1116947979
N   N8        1.0  0.55220  0.83416  0.93550  1.0000 -0.2225260054
N   N9        1.0  0.55180  0.33059  0.27330  1.0000 -0.2225260054
N   N10       1.0  0.83920  0.40187  0.10650  1.0000 0.1192318854
N   N11       1.0  0.81760  0.62057  0.24190  1.0000 0.1116947979
N   N12       1.0  0.55220  0.66584  0.43550  1.0000 -0.2225260054
N   N13       1.0  0.44820  0.83059  0.22670  1.0000 -0.2225260054
N   N14       1.0  0.16080  0.90187  0.39350  1.0000 0.1192318854
N   N15       1.0  0.18240  0.12057  0.25810  1.0000 0.1116947979
N   N16       1.0  0.44780  0.16584  0.06450  1.0000 -0.2225260054
O   O1        1.0  0.15680  0.69145  0.53720  1.0000 -0.5429736254
O   O2        1.0  0.18740  0.76764  0.57330  1.0000 -0.5727365094
O   O3        1.0  0.85470  0.71654  0.45820  1.0000 -0.5084011284
O   O4        1.0  0.69730  0.69221  0.31640  1.0000 -0.5801986037
O   O5        1.0  0.76950  0.74768  0.08080  1.0000 -0.5727365094
O   O6        1.0  0.85050  0.82118  0.12120  1.0000 -0.5346254436
O   O7        1.0  0.13590  0.78732  0.20030  1.0000 -0.5084011284
O   O8        1.0  0.27670  0.82157  0.33420  1.0000 -0.5801986037
O   O9        1.0  0.14290  0.60814  0.63850  1.0000 -0.5429736254
O   O10       1.0  0.27590  0.59168  0.58710  1.0000 -0.557565379
O   O11       1.0  0.83180  0.61066  0.47560  1.0000 -0.5533077
O   O12       1.0  0.81520  0.57157  0.57610  1.0000 -0.5727365094
O   O13       1.0  0.84320  0.19145  0.96280  1.0000 -0.5429736254
O   O14       1.0  0.81260  0.26764  0.92670  1.0000 -0.5727365094
O   O15       1.0  0.14530  0.21654  0.04180  1.0000 -0.5084011284
O   O16       1.0  0.30270  0.19221  0.18360  1.0000 -0.5801986037
O   O17       1.0  0.23050  0.24768  0.41920  1.0000 -0.5727365094
O   O18       1.0  0.14950  0.32118  0.37880  1.0000 -0.5346254436
O   O19       1.0  0.86410  0.28732  0.29970  1.0000 -0.5084011284
O   O20       1.0  0.72330  0.32157  0.16580  1.0000 -0.5801986037
O   O21       1.0  0.85710  0.10814  0.86150  1.0000 -0.5429736254
O   O22       1.0  0.72410  0.09168  0.91290  1.0000 -0.557565379
O   O23       1.0  0.16820  0.11066  0.02440  1.0000 -0.5533077
O   O24       1.0  0.18480  0.07157  0.92390  1.0000 -0.5727365094
O   O25       1.0  0.84320  0.30855  0.46280  1.0000 -0.5429736254
O   O26       1.0  0.81260  0.23236  0.42670  1.0000 -0.5727365094
O   O27       1.0  0.14530  0.28346  0.54180  1.0000 -0.5084011284
O   O28       1.0  0.30270  0.30779  0.68360  1.0000 -0.5801986037
O   O29       1.0  0.23050  0.25232  0.91920  1.0000 -0.5727365094
O   O30       1.0  0.14950  0.17882  0.87880  1.0000 -0.5346254436
O   O31       1.0  0.86410  0.21268  0.79970  1.0000 -0.5084011284
O   O32       1.0  0.72330  0.17843  0.66580  1.0000 -0.5801986037
O   O33       1.0  0.85710  0.39186  0.36150  1.0000 -0.5429736254
O   O34       1.0  0.72410  0.40832  0.41290  1.0000 -0.557565379
O   O35       1.0  0.16820  0.38934  0.52440  1.0000 -0.5533077
O   O36       1.0  0.18480  0.42843  0.42390  1.0000 -0.5727365094
O   O37       1.0  0.15680  0.80855  0.03720  1.0000 -0.5429736254
O   O38       1.0  0.18740  0.73236  0.07330  1.0000 -0.5727365094
O   O39       1.0  0.85470  0.78346  0.95820  1.0000 -0.5084011284
O   O40       1.0  0.69730  0.80779  0.81640  1.0000 -0.5801986037
O   O41       1.0  0.76950  0.75232  0.58080  1.0000 -0.5727365094
O   O42       1.0  0.85050  0.67882  0.62120  1.0000 -0.5346254436
O   O43       1.0  0.13590  0.71268  0.70030  1.0000 -0.5084011284
O   O44       1.0  0.27670  0.67843  0.83420  1.0000 -0.5801986037
O   O45       1.0  0.14290  0.89186  0.13850  1.0000 -0.5429736254
O   O46       1.0  0.27590  0.90832  0.08710  1.0000 -0.557565379
O   O47       1.0  0.83180  0.88934  0.97560  1.0000 -0.5533077
O   O48       1.0  0.81520  0.92843  0.07610  1.0000 -0.5727365094
