# DDEC6 charges by PACMAN v1.1 (https://github.com/mtap-research/PACMAN-charge/)
data_2019[Zn][nan]2[ASR]9
_chemical_formula_sum              "Zn8 H108 C172 N16 O48"
_cell_length_a       11.3381
_cell_length_b       29.4079
_cell_length_c       18.275
_cell_angle_alpha    90
_cell_angle_beta     126.4
_cell_angle_gamma    90

_symmetry_space_group_name_H-M    "P 1"
_symmetry_Int_Tables_number       1

loop_
  _symmetry_equiv_pos_as_xyz
  'x, y, z'

loop_
  _atom_site_type_symbol
  _atom_site_label
  _atom_site_symmetry_multiplicity
  _atom_site_fract_x
  _atom_site_fract_y
  _atom_site_fract_z
  _atom_site_occupancy
  _atom_site_charge
Zn  Zn1       1.0  0.23895  0.67335  0.57531  1.0000 0.8359620043
Zn  Zn2       1.0  0.77666  0.67477  0.40231  1.0000 0.8324309358
Zn  Zn3       1.0  0.76105  0.17335  0.92469  1.0000 0.8359620043
Zn  Zn4       1.0  0.22334  0.17477  0.09769  1.0000 0.8324309358
Zn  Zn5       1.0  0.76105  0.32665  0.42469  1.0000 0.8359620043
Zn  Zn6       1.0  0.22334  0.32523  0.59769  1.0000 0.8324309358
Zn  Zn7       1.0  0.23895  0.82665  0.07531  1.0000 0.8359620043
Zn  Zn8       1.0  0.77666  0.82523  0.90231  1.0000 0.8324309358
H   H1        1.0  0.54651  0.70283  0.74916  1.0000 0.1265337527
H   H2        1.0  0.78916  0.68977  0.80918  1.0000 0.1404752613
H   H3        1.0  0.65719  0.61014  0.59413  1.0000 0.1404752613
H   H4        1.0  0.41875  0.62401  0.54019  1.0000 0.1193509684
H   H5        1.0  0.00003  0.65291  0.87771  1.0000 0.148588016
H   H6        1.0  0.23567  0.63254  0.93006  1.0000 0.1193509684
H   H7        1.0  0.09931  0.60387  0.67845  1.0000 0.1404752613
H   H8        1.0  0.86081  0.62238  0.62162  1.0000 0.1557378763
H   H9        1.0  0.35668  0.60765  0.80161  1.0000 0.148588016
H   H10       1.0  0.40676  0.61092  0.90412  1.0000 0.1265337527
H   H11       1.0  0.33141  0.53522  0.73863  1.0000 0.1404752613
H   H12       1.0  0.32117  0.45512  0.74320  1.0000 0.1404752613
H   H13       1.0  0.31496  0.46418  0.95999  1.0000 0.1193509684
H   H14       1.0  0.32323  0.54364  0.95644  1.0000 0.1193509684
H   H15       1.0  0.38516  0.39092  0.91920  1.0000 0.1193509684
H   H16       1.0  0.33589  0.38748  0.81708  1.0000 0.148588016
H   H17       1.0  0.06785  0.40045  0.69396  1.0000 0.1404752613
H   H18       1.0  0.83381  0.37968  0.64210  1.0000 0.1557378763
H   H19       1.0  0.98963  0.34542  0.89882  1.0000 0.148588016
H   H20       1.0  0.22008  0.36753  0.94613  1.0000 0.1265337527
H   H21       1.0  0.65473  0.33845  0.59971  1.0000 0.1404752613
H   H22       1.0  0.41581  0.32297  0.54402  1.0000 0.1193509684
H   H23       1.0  0.52325  0.32394  0.79091  1.0000 0.1193509684
H   H24       1.0  0.76483  0.33800  0.85055  1.0000 0.1404752613
H   H25       1.0  0.25866  0.73278  0.85057  1.0000 0.1193509684
H   H26       1.0  0.76559  0.76620  0.63098  1.0000 0.1193509684
H   H27       1.0  0.24110  0.50023  0.54738  1.0000 0.1193509684
H   H28       1.0  0.45349  0.20283  0.75084  1.0000 0.1265337527
H   H29       1.0  0.21084  0.18977  0.69082  1.0000 0.1404752613
H   H30       1.0  0.34281  0.11014  0.90587  1.0000 0.1404752613
H   H31       1.0  0.58125  0.12401  0.95981  1.0000 0.1193509684
H   H32       1.0  0.99997  0.15291  0.62229  1.0000 0.148588016
H   H33       1.0  0.76433  0.13254  0.56994  1.0000 0.1265337527
H   H34       1.0  0.90069  0.10387  0.82155  1.0000 0.1404752613
H   H35       1.0  0.13919  0.12238  0.87838  1.0000 0.1557378763
H   H36       1.0  0.64332  0.10765  0.69839  1.0000 0.148588016
H   H37       1.0  0.59324  0.11092  0.59588  1.0000 0.1265337527
H   H38       1.0  0.66859  0.03522  0.76137  1.0000 0.1404752613
H   H39       1.0  0.67883  0.95512  0.75680  1.0000 0.1404752613
H   H40       1.0  0.68504  0.96418  0.54001  1.0000 0.1193509684
H   H41       1.0  0.67677  0.04364  0.54356  1.0000 0.1193509684
H   H42       1.0  0.61484  0.89092  0.58080  1.0000 0.1193509684
H   H43       1.0  0.66411  0.88748  0.68292  1.0000 0.148588016
H   H44       1.0  0.93215  0.90045  0.80604  1.0000 0.1404752613
H   H45       1.0  0.16619  0.87968  0.85790  1.0000 0.1557378763
H   H46       1.0  0.01037  0.84542  0.60118  1.0000 0.148588016
H   H47       1.0  0.77992  0.86753  0.55387  1.0000 0.1265337527
H   H48       1.0  0.34527  0.83845  0.90029  1.0000 0.1404752613
H   H49       1.0  0.58419  0.82297  0.95598  1.0000 0.1193509684
H   H50       1.0  0.47675  0.82394  0.70909  1.0000 0.1193509684
H   H51       1.0  0.23517  0.83800  0.64945  1.0000 0.1404752613
H   H52       1.0  0.74134  0.23278  0.64943  1.0000 0.1193509684
H   H53       1.0  0.23441  0.26620  0.86902  1.0000 0.1193509684
H   H54       1.0  0.75890  0.00023  0.95262  1.0000 0.1193509684
H   H55       1.0  0.45349  0.29717  0.25084  1.0000 0.1265337527
H   H56       1.0  0.21084  0.31023  0.19082  1.0000 0.1404752613
H   H57       1.0  0.34281  0.38986  0.40587  1.0000 0.1404752613
H   H58       1.0  0.58125  0.37599  0.45981  1.0000 0.1193509684
H   H59       1.0  0.99997  0.34709  0.12229  1.0000 0.148588016
H   H60       1.0  0.76433  0.36746  0.06994  1.0000 0.1265337527
H   H61       1.0  0.90069  0.39613  0.32155  1.0000 0.1404752613
H   H62       1.0  0.13919  0.37762  0.37838  1.0000 0.1557378763
H   H63       1.0  0.64332  0.39235  0.19839  1.0000 0.148588016
H   H64       1.0  0.59324  0.38908  0.09588  1.0000 0.1265337527
H   H65       1.0  0.66859  0.46478  0.26137  1.0000 0.1404752613
H   H66       1.0  0.67883  0.54488  0.25680  1.0000 0.1404752613
H   H67       1.0  0.68504  0.53582  0.04001  1.0000 0.1193509684
H   H68       1.0  0.67677  0.45636  0.04356  1.0000 0.1193509684
H   H69       1.0  0.61484  0.60908  0.08080  1.0000 0.1193509684
H   H70       1.0  0.66411  0.61252  0.18292  1.0000 0.148588016
H   H71       1.0  0.93215  0.59955  0.30604  1.0000 0.1404752613
H   H72       1.0  0.16619  0.62032  0.35790  1.0000 0.1557378763
H   H73       1.0  0.01037  0.65458  0.10118  1.0000 0.148588016
H   H74       1.0  0.77992  0.63247  0.05387  1.0000 0.1265337527
H   H75       1.0  0.34527  0.66155  0.40029  1.0000 0.1404752613
H   H76       1.0  0.58419  0.67703  0.45598  1.0000 0.1193509684
H   H77       1.0  0.47675  0.67606  0.20909  1.0000 0.1193509684
H   H78       1.0  0.23517  0.66200  0.14945  1.0000 0.1404752613
H   H79       1.0  0.74134  0.26722  0.14943  1.0000 0.1193509684
H   H80       1.0  0.23441  0.23380  0.36902  1.0000 0.1193509684
H   H81       1.0  0.75890  0.49977  0.45262  1.0000 0.1193509684
H   H82       1.0  0.54651  0.79717  0.24916  1.0000 0.1265337527
H   H83       1.0  0.78916  0.81023  0.30918  1.0000 0.1404752613
H   H84       1.0  0.65719  0.88986  0.09413  1.0000 0.1404752613
H   H85       1.0  0.41875  0.87599  0.04019  1.0000 0.1193509684
H   H86       1.0  0.00003  0.84709  0.37771  1.0000 0.148588016
H   H87       1.0  0.23567  0.86746  0.43006  1.0000 0.1193509684
H   H88       1.0  0.09931  0.89613  0.17845  1.0000 0.1404752613
H   H89       1.0  0.86081  0.87762  0.12162  1.0000 0.1557378763
H   H90       1.0  0.35668  0.89235  0.30161  1.0000 0.148588016
H   H91       1.0  0.40676  0.88908  0.40412  1.0000 0.1265337527
H   H92       1.0  0.33141  0.96478  0.23863  1.0000 0.1404752613
H   H93       1.0  0.32117  0.04488  0.24320  1.0000 0.1404752613
H   H94       1.0  0.31496  0.03582  0.45999  1.0000 0.1193509684
H   H95       1.0  0.32323  0.95636  0.45644  1.0000 0.1193509684
H   H96       1.0  0.38516  0.10908  0.41920  1.0000 0.1193509684
H   H97       1.0  0.33589  0.11252  0.31708  1.0000 0.148588016
H   H98       1.0  0.06785  0.09955  0.19396  1.0000 0.1404752613
H   H99       1.0  0.83381  0.12032  0.14210  1.0000 0.1557378763
H   H100      1.0  0.98963  0.15458  0.39882  1.0000 0.148588016
H   H101      1.0  0.22008  0.13247  0.44613  1.0000 0.1265337527
H   H102      1.0  0.65473  0.16155  0.09971  1.0000 0.1404752613
H   H103      1.0  0.41581  0.17703  0.04402  1.0000 0.1193509684
H   H104      1.0  0.52325  0.17606  0.29091  1.0000 0.1193509684
H   H105      1.0  0.76483  0.16200  0.35055  1.0000 0.1404752613
H   H106      1.0  0.25866  0.76722  0.35057  1.0000 0.1193509684
H   H107      1.0  0.76559  0.73380  0.13098  1.0000 0.1193509684
H   H108      1.0  0.24110  0.99977  0.04738  1.0000 0.1193509684
C   C1        1.0  0.56840  0.68400  0.71650  1.0000 0.1265337527
C   C2        1.0  0.71410  0.67630  0.75280  1.0000 -0.1784188332
C   C3        1.0  0.75010  0.64950  0.70750  1.0000 0.1087819754
C   C4        1.0  0.63680  0.62960  0.62690  1.0000 -0.1668778813
C   C5        1.0  0.49580  0.63810  0.59520  1.0000 0.046799186
C   C6        1.0  0.90390  0.63880  0.74430  1.0000 0.1193509684
C   C7        1.0  0.01830  0.64230  0.83620  1.0000 -0.1784188332
C   C8        1.0  0.15760  0.63030  0.86710  1.0000 0.0263436281
C   C9        1.0  0.07690  0.61320  0.71870  1.0000 0.0589834292
C   C10       1.0  0.93630  0.62440  0.68500  1.0000 -0.1452480486
C   C11       1.0  0.33210  0.59820  0.84310  1.0000 -0.1908173952
C   C12       1.0  0.33040  0.54640  0.84790  1.0000 0.0906843593
C   C13       1.0  0.32850  0.52080  0.78410  1.0000 -0.1396928163
C   C14       1.0  0.32220  0.47310  0.78680  1.0000 -0.1396928163
C   C15       1.0  0.31760  0.45270  0.85190  1.0000 0.0842277699
C   C16       1.0  0.31830  0.47870  0.91480  1.0000 -0.158363635
C   C17       1.0  0.32390  0.52590  0.91330  1.0000 -0.158363635
C   C18       1.0  0.31150  0.40130  0.85600  1.0000 -0.1908173952
C   C19       1.0  0.05050  0.38930  0.73560  1.0000 0.0589834292
C   C20       1.0  0.91230  0.37690  0.70490  1.0000 -0.1396928163
C   C21       1.0  0.88580  0.36020  0.76520  1.0000 0.1193509684
C   C22       1.0  0.00360  0.35680  0.85580  1.0000 -0.1668778813
C   C23       1.0  0.14000  0.36990  0.88370  1.0000 0.0224160918
C   C24       1.0  0.73450  0.34650  0.73120  1.0000 0.1193509684
C   C25       1.0  0.62880  0.33780  0.64050  1.0000 -0.1784188332
C   C26       1.0  0.48630  0.32820  0.60730  1.0000 0.0906843593
C   C27       1.0  0.54870  0.32860  0.75040  1.0000 0.1003742957
C   C28       1.0  0.69330  0.33780  0.78650  1.0000 -0.1908173952
C   C29       1.0  0.19320  0.71040  0.69180  1.0000 0.5536952087
C   C30       1.0  0.09580  0.73050  0.71520  1.0000 -0.0487878096
C   C31       1.0  0.15840  0.73990  0.80570  1.0000 -0.158363635
C   C32       1.0  0.07730  0.75940  0.83210  1.0000 -0.030584932
C   C33       1.0  0.92880  0.76910  0.76650  1.0000 -0.0562298583
C   C34       1.0  0.86620  0.75940  0.67580  1.0000 -0.158363635
C   C35       1.0  0.94680  0.74010  0.64890  1.0000 -0.030584932
C   C36       1.0  0.16040  0.77090  0.93210  1.0000 0.5761222163
C   C37       1.0  0.83290  0.78990  0.78970  1.0000 0.5536952087
C   C38       1.0  0.86420  0.72900  0.54930  1.0000 0.5761222163
C   C39       1.0  0.15290  0.58390  0.52270  1.0000 0.5686948368
C   C40       1.0  0.06730  0.54100  0.50760  1.0000 -0.030584932
C   C41       1.0  0.14270  0.49990  0.52810  1.0000 -0.158363635
C   C42       1.0  0.92300  0.54140  0.47920  1.0000 -0.0422947264
C   C43       1.0  0.83340  0.58420  0.45190  1.0000 0.5686948368
C   C44       1.0  0.43160  0.18400  0.78350  1.0000 0.1265337527
C   C45       1.0  0.28590  0.17630  0.74720  1.0000 -0.1784188332
C   C46       1.0  0.24990  0.14950  0.79250  1.0000 0.1087819754
C   C47       1.0  0.36320  0.12960  0.87310  1.0000 -0.1668778813
C   C48       1.0  0.50420  0.13810  0.90480  1.0000 0.046799186
C   C49       1.0  0.09610  0.13880  0.75570  1.0000 0.1193509684
C   C50       1.0  0.98170  0.14230  0.66380  1.0000 -0.1784188332
C   C51       1.0  0.84240  0.13030  0.63290  1.0000 0.0263436281
C   C52       1.0  0.92310  0.11320  0.78130  1.0000 0.0589834292
C   C53       1.0  0.06370  0.12440  0.81500  1.0000 -0.1452480486
C   C54       1.0  0.66790  0.09820  0.65690  1.0000 -0.1908173952
C   C55       1.0  0.66960  0.04640  0.65210  1.0000 0.0906843593
C   C56       1.0  0.67150  0.02080  0.71590  1.0000 -0.1396928163
C   C57       1.0  0.67780  0.97310  0.71320  1.0000 -0.1396928163
C   C58       1.0  0.68240  0.95270  0.64810  1.0000 0.0842277699
C   C59       1.0  0.68170  0.97870  0.58520  1.0000 -0.158363635
C   C60       1.0  0.67610  0.02590  0.58670  1.0000 -0.158363635
C   C61       1.0  0.68850  0.90130  0.64400  1.0000 -0.1908173952
C   C62       1.0  0.94950  0.88930  0.76440  1.0000 0.0589834292
C   C63       1.0  0.08770  0.87690  0.79510  1.0000 -0.1396928163
C   C64       1.0  0.11420  0.86020  0.73480  1.0000 0.1193509684
C   C65       1.0  0.99640  0.85680  0.64420  1.0000 -0.1668778813
C   C66       1.0  0.86000  0.86990  0.61630  1.0000 0.0224160918
C   C67       1.0  0.26550  0.84650  0.76880  1.0000 0.1193509684
C   C68       1.0  0.37120  0.83780  0.85950  1.0000 -0.1784188332
C   C69       1.0  0.51370  0.82820  0.89270  1.0000 0.0906843593
C   C70       1.0  0.45130  0.82860  0.74960  1.0000 0.1003742957
C   C71       1.0  0.30670  0.83780  0.71350  1.0000 -0.1908173952
C   C72       1.0  0.80680  0.21040  0.80820  1.0000 0.5536952087
C   C73       1.0  0.90420  0.23050  0.78480  1.0000 -0.0487878096
C   C74       1.0  0.84160  0.23990  0.69430  1.0000 -0.158363635
C   C75       1.0  0.92270  0.25940  0.66790  1.0000 -0.030584932
C   C76       1.0  0.07120  0.26910  0.73350  1.0000 -0.0562298583
C   C77       1.0  0.13380  0.25940  0.82420  1.0000 -0.158363635
C   C78       1.0  0.05320  0.24010  0.85110  1.0000 -0.030584932
C   C79       1.0  0.83960  0.27090  0.56790  1.0000 0.5761222163
C   C80       1.0  0.16710  0.28990  0.71030  1.0000 0.5536952087
C   C81       1.0  0.13580  0.22900  0.95070  1.0000 0.5761222163
C   C82       1.0  0.84710  0.08390  0.97730  1.0000 0.5686948368
C   C83       1.0  0.93270  0.04100  0.99240  1.0000 -0.030584932
C   C84       1.0  0.85730  0.99990  0.97190  1.0000 -0.158363635
C   C85       1.0  0.07700  0.04140  0.02080  1.0000 -0.0422947264
C   C86       1.0  0.16660  0.08420  0.04810  1.0000 0.5686948368
C   C87       1.0  0.43160  0.31600  0.28350  1.0000 0.1265337527
C   C88       1.0  0.28590  0.32370  0.24720  1.0000 -0.1784188332
C   C89       1.0  0.24990  0.35050  0.29250  1.0000 0.1087819754
C   C90       1.0  0.36320  0.37040  0.37310  1.0000 -0.1668778813
C   C91       1.0  0.50420  0.36190  0.40480  1.0000 0.046799186
C   C92       1.0  0.09610  0.36120  0.25570  1.0000 0.1193509684
C   C93       1.0  0.98170  0.35770  0.16380  1.0000 -0.1784188332
C   C94       1.0  0.84240  0.36970  0.13290  1.0000 0.0263436281
C   C95       1.0  0.92310  0.38680  0.28130  1.0000 0.0589834292
C   C96       1.0  0.06370  0.37560  0.31500  1.0000 -0.1452480486
C   C97       1.0  0.66790  0.40180  0.15690  1.0000 -0.1908173952
C   C98       1.0  0.66960  0.45360  0.15210  1.0000 0.0906843593
C   C99       1.0  0.67150  0.47920  0.21590  1.0000 -0.1396928163
C   C100      1.0  0.67780  0.52690  0.21320  1.0000 -0.1396928163
C   C101      1.0  0.68240  0.54730  0.14810  1.0000 0.0842277699
C   C102      1.0  0.68170  0.52130  0.08520  1.0000 -0.158363635
C   C103      1.0  0.67610  0.47410  0.08670  1.0000 -0.158363635
C   C104      1.0  0.68850  0.59870  0.14400  1.0000 -0.1908173952
C   C105      1.0  0.94950  0.61070  0.26440  1.0000 0.0589834292
C   C106      1.0  0.08770  0.62310  0.29510  1.0000 -0.1396928163
C   C107      1.0  0.11420  0.63980  0.23480  1.0000 0.1193509684
C   C108      1.0  0.99640  0.64320  0.14420  1.0000 -0.1668778813
C   C109      1.0  0.86000  0.63010  0.11630  1.0000 0.0224160918
C   C110      1.0  0.26550  0.65350  0.26880  1.0000 0.1193509684
C   C111      1.0  0.37120  0.66220  0.35950  1.0000 -0.1784188332
C   C112      1.0  0.51370  0.67180  0.39270  1.0000 0.0906843593
C   C113      1.0  0.45130  0.67140  0.24960  1.0000 0.1003742957
C   C114      1.0  0.30670  0.66220  0.21350  1.0000 -0.1908173952
C   C115      1.0  0.80680  0.28960  0.30820  1.0000 0.5536952087
C   C116      1.0  0.90420  0.26950  0.28480  1.0000 -0.0487878096
C   C117      1.0  0.84160  0.26010  0.19430  1.0000 -0.158363635
C   C118      1.0  0.92270  0.24060  0.16790  1.0000 -0.030584932
C   C119      1.0  0.07120  0.23090  0.23350  1.0000 -0.0562298583
C   C120      1.0  0.13380  0.24060  0.32420  1.0000 -0.158363635
C   C121      1.0  0.05320  0.25990  0.35110  1.0000 -0.030584932
C   C122      1.0  0.83960  0.22910  0.06790  1.0000 0.5761222163
C   C123      1.0  0.16710  0.21010  0.21030  1.0000 0.5536952087
C   C124      1.0  0.13580  0.27100  0.45070  1.0000 0.5761222163
C   C125      1.0  0.84710  0.41610  0.47730  1.0000 0.5686948368
C   C126      1.0  0.93270  0.45900  0.49240  1.0000 -0.030584932
C   C127      1.0  0.85730  0.50010  0.47190  1.0000 -0.158363635
C   C128      1.0  0.07700  0.45860  0.52080  1.0000 -0.0422947264
C   C129      1.0  0.16660  0.41580  0.54810  1.0000 0.5686948368
C   C130      1.0  0.56840  0.81600  0.21650  1.0000 0.1265337527
C   C131      1.0  0.71410  0.82370  0.25280  1.0000 -0.1784188332
C   C132      1.0  0.75010  0.85050  0.20750  1.0000 0.1087819754
C   C133      1.0  0.63680  0.87040  0.12690  1.0000 -0.1668778813
C   C134      1.0  0.49580  0.86190  0.09520  1.0000 0.046799186
C   C135      1.0  0.90390  0.86120  0.24430  1.0000 0.1193509684
C   C136      1.0  0.01830  0.85770  0.33620  1.0000 -0.1784188332
C   C137      1.0  0.15760  0.86970  0.36710  1.0000 0.0263436281
C   C138      1.0  0.07690  0.88680  0.21870  1.0000 0.0589834292
C   C139      1.0  0.93630  0.87560  0.18500  1.0000 -0.1452480486
C   C140      1.0  0.33210  0.90180  0.34310  1.0000 -0.1908173952
C   C141      1.0  0.33040  0.95360  0.34790  1.0000 0.0906843593
C   C142      1.0  0.32850  0.97920  0.28410  1.0000 -0.1396928163
C   C143      1.0  0.32220  0.02690  0.28680  1.0000 -0.1396928163
C   C144      1.0  0.31760  0.04730  0.35190  1.0000 0.0842277699
C   C145      1.0  0.31830  0.02130  0.41480  1.0000 -0.158363635
C   C146      1.0  0.32390  0.97410  0.41330  1.0000 -0.158363635
C   C147      1.0  0.31150  0.09870  0.35600  1.0000 -0.1908173952
C   C148      1.0  0.05050  0.11070  0.23560  1.0000 0.0589834292
C   C149      1.0  0.91230  0.12310  0.20490  1.0000 -0.1396928163
C   C150      1.0  0.88580  0.13980  0.26520  1.0000 0.1193509684
C   C151      1.0  0.00360  0.14320  0.35580  1.0000 -0.1668778813
C   C152      1.0  0.14000  0.13010  0.38370  1.0000 0.0224160918
C   C153      1.0  0.73450  0.15350  0.23120  1.0000 0.1193509684
C   C154      1.0  0.62880  0.16220  0.14050  1.0000 -0.1784188332
C   C155      1.0  0.48630  0.17180  0.10730  1.0000 0.0906843593
C   C156      1.0  0.54870  0.17140  0.25040  1.0000 0.1003742957
C   C157      1.0  0.69330  0.16220  0.28650  1.0000 -0.1908173952
C   C158      1.0  0.19320  0.78960  0.19180  1.0000 0.5536952087
C   C159      1.0  0.09580  0.76950  0.21520  1.0000 -0.0487878096
C   C160      1.0  0.15840  0.76010  0.30570  1.0000 -0.158363635
C   C161      1.0  0.07730  0.74060  0.33210  1.0000 -0.030584932
C   C162      1.0  0.92880  0.73090  0.26650  1.0000 -0.0562298583
C   C163      1.0  0.86620  0.74060  0.17580  1.0000 -0.158363635
C   C164      1.0  0.94680  0.75990  0.14890  1.0000 -0.030584932
C   C165      1.0  0.16040  0.72910  0.43210  1.0000 0.5761222163
C   C166      1.0  0.83290  0.71010  0.28970  1.0000 0.5536952087
C   C167      1.0  0.86420  0.77100  0.04930  1.0000 0.5761222163
C   C168      1.0  0.15290  0.91610  0.02270  1.0000 0.5686948368
C   C169      1.0  0.06730  0.95900  0.00760  1.0000 -0.030584932
C   C170      1.0  0.14270  0.00010  0.02810  1.0000 -0.158363635
C   C171      1.0  0.92300  0.95860  0.97920  1.0000 -0.0422947264
C   C172      1.0  0.83340  0.91580  0.95190  1.0000 0.5686948368
N   N1        1.0  0.46000  0.66650  0.63980  1.0000 -0.2295163206
N   N2        1.0  0.18400  0.61541  0.80880  1.0000 0.1087819754
N   N3        1.0  0.16270  0.38599  0.82460  1.0000 0.1087819754
N   N4        1.0  0.44490  0.32600  0.66240  1.0000 -0.2134489498
N   N5        1.0  0.54000  0.16650  0.86020  1.0000 -0.2295163206
N   N6        1.0  0.81600  0.11541  0.69120  1.0000 0.1087819754
N   N7        1.0  0.83730  0.88599  0.67540  1.0000 0.1087819754
N   N8        1.0  0.55510  0.82600  0.83760  1.0000 -0.2134489498
N   N9        1.0  0.54000  0.33350  0.36020  1.0000 -0.2295163206
N   N10       1.0  0.81600  0.38459  0.19120  1.0000 0.1087819754
N   N11       1.0  0.83730  0.61401  0.17540  1.0000 0.1087819754
N   N12       1.0  0.55510  0.67400  0.33760  1.0000 -0.2134489498
N   N13       1.0  0.46000  0.83350  0.13980  1.0000 -0.2295163206
N   N14       1.0  0.18400  0.88459  0.30880  1.0000 0.1087819754
N   N15       1.0  0.16270  0.11401  0.32460  1.0000 0.1087819754
N   N16       1.0  0.44490  0.17400  0.16240  1.0000 -0.2134489498
O   O1        1.0  0.14890  0.71581  0.61040  1.0000 -0.5047805539
O   O2        1.0  0.30750  0.69008  0.75100  1.0000 -0.579482936
O   O3        1.0  0.22200  0.74019  0.98900  1.0000 -0.561463081
O   O4        1.0  0.16830  0.81305  0.95010  1.0000 -0.5408820293
O   O5        1.0  0.87450  0.78402  0.87090  1.0000 -0.5073354077
O   O6        1.0  0.71820  0.81007  0.72940  1.0000 -0.579482936
O   O7        1.0  0.80400  0.76058  0.49280  1.0000 -0.5736112228
O   O8        1.0  0.85490  0.68725  0.53000  1.0000 -0.5408820293
O   O9        1.0  0.84900  0.61297  0.40570  1.0000 -0.5508192014
O   O10       1.0  0.74720  0.58858  0.47230  1.0000 -0.5508192014
O   O11       1.0  0.15930  0.61366  0.57530  1.0000 -0.5508192014
O   O12       1.0  0.21420  0.58613  0.48510  1.0000 -0.5408820293
O   O13       1.0  0.85110  0.21581  0.88960  1.0000 -0.5073354077
O   O14       1.0  0.69250  0.19008  0.74900  1.0000 -0.579482936
O   O15       1.0  0.77800  0.24019  0.51100  1.0000 -0.561463081
O   O16       1.0  0.83170  0.31305  0.54990  1.0000 -0.5408820293
O   O17       1.0  0.12550  0.28402  0.62910  1.0000 -0.5073354077
O   O18       1.0  0.28180  0.31007  0.77060  1.0000 -0.579482936
O   O19       1.0  0.19600  0.26058  0.00720  1.0000 -0.5736112228
O   O20       1.0  0.14510  0.18725  0.97000  1.0000 -0.5408820293
O   O21       1.0  0.15100  0.11297  0.09430  1.0000 -0.5508192014
O   O22       1.0  0.25280  0.08858  0.02770  1.0000 -0.5508192014
O   O23       1.0  0.84070  0.11366  0.92470  1.0000 -0.5508192014
O   O24       1.0  0.78580  0.08613  0.01490  1.0000 -0.5408820293
O   O25       1.0  0.85110  0.28419  0.38960  1.0000 -0.5073354077
O   O26       1.0  0.69250  0.30992  0.24900  1.0000 -0.579482936
O   O27       1.0  0.77800  0.25981  0.01100  1.0000 -0.561463081
O   O28       1.0  0.83170  0.18695  0.04990  1.0000 -0.5408820293
O   O29       1.0  0.12550  0.21598  0.12910  1.0000 -0.5073354077
O   O30       1.0  0.28180  0.18993  0.27060  1.0000 -0.579482936
O   O31       1.0  0.19600  0.23942  0.50720  1.0000 -0.5736112228
O   O32       1.0  0.14510  0.31275  0.47000  1.0000 -0.5408820293
O   O33       1.0  0.15100  0.38703  0.59430  1.0000 -0.5508192014
O   O34       1.0  0.25280  0.41142  0.52770  1.0000 -0.5508192014
O   O35       1.0  0.84070  0.38634  0.42470  1.0000 -0.5508192014
O   O36       1.0  0.78580  0.41387  0.51490  1.0000 -0.5408820293
O   O37       1.0  0.14890  0.78419  0.11040  1.0000 -0.5047805539
O   O38       1.0  0.30750  0.80992  0.25100  1.0000 -0.579482936
O   O39       1.0  0.22200  0.75981  0.48900  1.0000 -0.561463081
O   O40       1.0  0.16830  0.68695  0.45010  1.0000 -0.5408820293
O   O41       1.0  0.87450  0.71598  0.37090  1.0000 -0.5073354077
O   O42       1.0  0.71820  0.68993  0.22940  1.0000 -0.579482936
O   O43       1.0  0.80400  0.73942  0.99280  1.0000 -0.5736112228
O   O44       1.0  0.85490  0.81275  0.03000  1.0000 -0.5408820293
O   O45       1.0  0.84900  0.88703  0.90570  1.0000 -0.5508192014
O   O46       1.0  0.74720  0.91142  0.97230  1.0000 -0.5508192014
O   O47       1.0  0.15930  0.88634  0.07530  1.0000 -0.5508192014
O   O48       1.0  0.21420  0.91387  0.98510  1.0000 -0.5408820293
