# DDEC6 charges by PACMAN v1.1 (https://github.com/mtap-research/PACMAN-charge/)
data_2019[Ag][sra]3[ASR]2
_chemical_formula_sum              "Ag4 H48 C68 N24"
_cell_length_a       9.101
_cell_length_b       10.782
_cell_length_c       26.09
_cell_angle_alpha    90
_cell_angle_beta     90
_cell_angle_gamma    90

_symmetry_space_group_name_H-M    "P 1"
_symmetry_Int_Tables_number       1

loop_
  _symmetry_equiv_pos_as_xyz
  'x, y, z'

loop_
  _atom_site_type_symbol
  _atom_site_label
  _atom_site_symmetry_multiplicity
  _atom_site_fract_x
  _atom_site_fract_y
  _atom_site_fract_z
  _atom_site_occupancy
  _atom_site_charge
Ag  Ag1       1.0  0.54040  0.91158  0.60749  1.0000 0.228904202
Ag  Ag2       1.0  0.04040  0.08842  0.39251  1.0000 0.228904202
Ag  Ag3       1.0  0.54040  0.58842  0.10749  1.0000 0.228904202
Ag  Ag4       1.0  0.04040  0.41158  0.89251  1.0000 0.228904202
H   H1        1.0  0.83280  0.02130  0.57580  1.0000 0.122109379
H   H2        1.0  0.88570  0.12350  0.49990  1.0000 0.0890799209
H   H3        1.0  0.05910  0.82100  0.44130  1.0000 0.0890799209
H   H4        1.0  0.00970  0.70790  0.51490  1.0000 0.127998118
H   H5        1.0  0.77040  0.47960  0.71620  1.0000 0.127998118
H   H6        1.0  0.83270  0.39140  0.79420  1.0000 0.0834362948
H   H7        1.0  0.15370  0.62860  0.81490  1.0000 0.0890799209
H   H8        1.0  0.10050  0.72700  0.73770  1.0000 0.122109379
H   H9        1.0  0.19030  0.85700  0.61750  1.0000 0.1010240155
H   H10       1.0  0.50480  0.60730  0.60640  1.0000 0.1010240155
H   H11       1.0  0.33790  0.44760  0.61580  1.0000 0.122109379
H   H12       1.0  0.08640  0.49310  0.62350  1.0000 0.127998118
H   H13       1.0  0.33280  0.97870  0.42420  1.0000 0.122109379
H   H14       1.0  0.38570  0.87650  0.50010  1.0000 0.0890799209
H   H15       1.0  0.55910  0.17900  0.55870  1.0000 0.0890799209
H   H16       1.0  0.50970  0.29210  0.48510  1.0000 0.127998118
H   H17       1.0  0.27040  0.52040  0.28380  1.0000 0.127998118
H   H18       1.0  0.33270  0.60860  0.20580  1.0000 0.0834362948
H   H19       1.0  0.65370  0.37140  0.18510  1.0000 0.0890799209
H   H20       1.0  0.60050  0.27300  0.26230  1.0000 0.122109379
H   H21       1.0  0.69030  0.14300  0.38250  1.0000 0.1010240155
H   H22       1.0  0.00480  0.39270  0.39360  1.0000 0.1010240155
H   H23       1.0  0.83790  0.55240  0.38420  1.0000 0.122109379
H   H24       1.0  0.58640  0.50690  0.37650  1.0000 0.127998118
H   H25       1.0  0.83280  0.47870  0.07580  1.0000 0.122109379
H   H26       1.0  0.88570  0.37650  0.99990  1.0000 0.0890799209
H   H27       1.0  0.05910  0.67900  0.94130  1.0000 0.0890799209
H   H28       1.0  0.00970  0.79210  0.01490  1.0000 0.127998118
H   H29       1.0  0.77040  0.02040  0.21620  1.0000 0.127998118
H   H30       1.0  0.83270  0.10860  0.29420  1.0000 0.0834362948
H   H31       1.0  0.15370  0.87140  0.31490  1.0000 0.0890799209
H   H32       1.0  0.10050  0.77300  0.23770  1.0000 0.122109379
H   H33       1.0  0.19030  0.64300  0.11750  1.0000 0.1010240155
H   H34       1.0  0.50480  0.89270  0.10640  1.0000 0.1010240155
H   H35       1.0  0.33790  0.05240  0.11580  1.0000 0.122109379
H   H36       1.0  0.08640  0.00690  0.12350  1.0000 0.127998118
H   H37       1.0  0.33280  0.52130  0.92420  1.0000 0.122109379
H   H38       1.0  0.38570  0.62350  0.00010  1.0000 0.0890799209
H   H39       1.0  0.55910  0.32100  0.05870  1.0000 0.0890799209
H   H40       1.0  0.50970  0.20790  0.98510  1.0000 0.127998118
H   H41       1.0  0.27040  0.97960  0.78380  1.0000 0.127998118
H   H42       1.0  0.33270  0.89140  0.70580  1.0000 0.0834362948
H   H43       1.0  0.65370  0.12860  0.68510  1.0000 0.0890799209
H   H44       1.0  0.60050  0.22700  0.76230  1.0000 0.122109379
H   H45       1.0  0.69030  0.35700  0.88250  1.0000 0.1010240155
H   H46       1.0  0.00480  0.10730  0.89360  1.0000 0.1010240155
H   H47       1.0  0.83790  0.94760  0.88420  1.0000 0.122109379
H   H48       1.0  0.58640  0.99310  0.87650  1.0000 0.127998118
C   C1        1.0  0.91570  0.85360  0.55400  1.0000 0.0581297776
C   C2        1.0  0.87930  0.97810  0.54860  1.0000 -0.2086122787
C   C3        1.0  0.91130  0.03850  0.50320  1.0000 0.0470085436
C   C4        1.0  0.01210  0.86170  0.46910  1.0000 0.0433814117
C   C5        1.0  0.98380  0.79310  0.51290  1.0000 -0.2197816527
C   C6        1.0  0.87570  0.79070  0.60170  1.0000 0.1813632467
C   C7        1.0  0.87920  0.68300  0.67280  1.0000 0.199085451
C   C8        1.0  0.92810  0.61460  0.71850  1.0000 0.0687889749
C   C9        1.0  0.84920  0.51270  0.73580  1.0000 -0.192589671
C   C10       1.0  0.88820  0.46030  0.78240  1.0000 0.0470085436
C   C11       1.0  0.07480  0.59840  0.79460  1.0000 0.0433814117
C   C12       1.0  0.04370  0.65790  0.74850  1.0000 -0.2086122787
C   C13       1.0  0.11480  0.68080  0.62290  1.0000 0.1010240155
C   C14       1.0  0.22020  0.77260  0.61690  1.0000 -0.0604026789
C   C15       1.0  0.40360  0.62690  0.61030  1.0000 0.0309969078
C   C16       1.0  0.30480  0.53120  0.61570  1.0000 -0.1502427093
C   C17       1.0  0.15710  0.55770  0.62110  1.0000 -0.1502427093
C   C18       1.0  0.41570  0.14640  0.44600  1.0000 0.0581297776
C   C19       1.0  0.37930  0.02190  0.45140  1.0000 -0.2086122787
C   C20       1.0  0.41130  0.96150  0.49680  1.0000 0.0433814117
C   C21       1.0  0.51210  0.13830  0.53090  1.0000 0.0433814117
C   C22       1.0  0.48380  0.20690  0.48710  1.0000 -0.2197816527
C   C23       1.0  0.37570  0.20930  0.39830  1.0000 0.1813632467
C   C24       1.0  0.37920  0.31700  0.32720  1.0000 0.199085451
C   C25       1.0  0.42810  0.38540  0.28150  1.0000 0.0687889749
C   C26       1.0  0.34920  0.48730  0.26420  1.0000 -0.192589671
C   C27       1.0  0.38820  0.53970  0.21760  1.0000 0.0470085436
C   C28       1.0  0.57480  0.40160  0.20540  1.0000 0.0433814117
C   C29       1.0  0.54370  0.34210  0.25150  1.0000 -0.2086122787
C   C30       1.0  0.61480  0.31920  0.37710  1.0000 0.1010240155
C   C31       1.0  0.72020  0.22740  0.38310  1.0000 -0.0604026789
C   C32       1.0  0.90360  0.37310  0.38970  1.0000 0.0309969078
C   C33       1.0  0.80480  0.46880  0.38430  1.0000 -0.1502427093
C   C34       1.0  0.65710  0.44230  0.37890  1.0000 -0.1502427093
C   C35       1.0  0.91570  0.64640  0.05400  1.0000 0.0581297776
C   C36       1.0  0.87930  0.52190  0.04860  1.0000 -0.2086122787
C   C37       1.0  0.91130  0.46150  0.00320  1.0000 0.0470085436
C   C38       1.0  0.01210  0.63830  0.96910  1.0000 0.0433814117
C   C39       1.0  0.98380  0.70690  0.01290  1.0000 -0.2197816527
C   C40       1.0  0.87570  0.70930  0.10170  1.0000 0.1813632467
C   C41       1.0  0.87920  0.81700  0.17280  1.0000 0.199085451
C   C42       1.0  0.92810  0.88540  0.21850  1.0000 0.0687889749
C   C43       1.0  0.84920  0.98730  0.23580  1.0000 -0.192589671
C   C44       1.0  0.88820  0.03970  0.28240  1.0000 0.0470085436
C   C45       1.0  0.07480  0.90160  0.29460  1.0000 0.0433814117
C   C46       1.0  0.04370  0.84210  0.24850  1.0000 -0.2086122787
C   C47       1.0  0.11480  0.81920  0.12290  1.0000 0.1010240155
C   C48       1.0  0.22020  0.72740  0.11690  1.0000 -0.0604026789
C   C49       1.0  0.40360  0.87310  0.11030  1.0000 0.0309969078
C   C50       1.0  0.30480  0.96880  0.11570  1.0000 -0.1502427093
C   C51       1.0  0.15710  0.94230  0.12110  1.0000 -0.1502427093
C   C52       1.0  0.41570  0.35360  0.94600  1.0000 0.0581297776
C   C53       1.0  0.37930  0.47810  0.95140  1.0000 -0.2086122787
C   C54       1.0  0.41130  0.53850  0.99680  1.0000 0.0433814117
C   C55       1.0  0.51210  0.36170  0.03090  1.0000 0.0433814117
C   C56       1.0  0.48380  0.29310  0.98710  1.0000 -0.2197816527
C   C57       1.0  0.37570  0.29070  0.89830  1.0000 0.1813632467
C   C58       1.0  0.37920  0.18300  0.82720  1.0000 0.199085451
C   C59       1.0  0.42810  0.11460  0.78150  1.0000 0.0687889749
C   C60       1.0  0.34920  0.01270  0.76420  1.0000 -0.192589671
C   C61       1.0  0.38820  0.96030  0.71760  1.0000 0.0470085436
C   C62       1.0  0.57480  0.09840  0.70540  1.0000 0.0433814117
C   C63       1.0  0.54370  0.15790  0.75150  1.0000 -0.2086122787
C   C64       1.0  0.61480  0.18080  0.87710  1.0000 0.1010240155
C   C65       1.0  0.72020  0.27260  0.88310  1.0000 -0.0604026789
C   C66       1.0  0.90360  0.12690  0.88970  1.0000 0.0309969078
C   C67       1.0  0.80480  0.03120  0.88430  1.0000 -0.1502427093
C   C68       1.0  0.65710  0.05770  0.87890  1.0000 -0.1502427093
N   N1        1.0  0.97760  0.98120  0.46346  1.0000 -0.2086122787
N   N2        1.0  0.74650  0.79870  0.62366  1.0000 -0.2086122787
N   N3        1.0  0.74750  0.73000  0.66842  1.0000 -0.2524093246
N   N4        1.0  0.96400  0.71560  0.63141  1.0000 -0.0967770597
N   N5        1.0  0.99810  0.50030  0.81171  1.0000 -0.2008209085
N   N6        1.0  0.36360  0.74600  0.61042  1.0000 -0.192589671
N   N7        1.0  0.47760  0.01880  0.53654  1.0000 -0.2086122787
N   N8        1.0  0.24650  0.20130  0.37634  1.0000 -0.2086122787
N   N9        1.0  0.24750  0.27000  0.33158  1.0000 -0.2524093246
N   N10       1.0  0.46400  0.28440  0.36859  1.0000 -0.0967770597
N   N11       1.0  0.49810  0.49970  0.18829  1.0000 -0.2008209085
N   N12       1.0  0.86360  0.25400  0.38958  1.0000 -0.192589671
N   N13       1.0  0.97760  0.51880  0.96346  1.0000 -0.2086122787
N   N14       1.0  0.74650  0.70130  0.12366  1.0000 -0.2086122787
N   N15       1.0  0.74750  0.77000  0.16842  1.0000 -0.2524093246
N   N16       1.0  0.96400  0.78440  0.13141  1.0000 -0.0967770597
N   N17       1.0  0.99810  0.99970  0.31171  1.0000 -0.2008209085
N   N18       1.0  0.36360  0.75400  0.11042  1.0000 -0.192589671
N   N19       1.0  0.47760  0.48120  0.03654  1.0000 -0.2086122787
N   N20       1.0  0.24650  0.29870  0.87634  1.0000 -0.2086122787
N   N21       1.0  0.24750  0.23000  0.83158  1.0000 -0.2524093246
N   N22       1.0  0.46400  0.21560  0.86859  1.0000 -0.0967770597
N   N23       1.0  0.49810  0.00030  0.68829  1.0000 -0.2008209085
N   N24       1.0  0.86360  0.24600  0.88958  1.0000 -0.192589671
