# DDEC6 charges by PACMAN v1.1 (https://github.com/mtap-research/PACMAN-charge/)
data_2019[CuSi][sql]2[ASR]1
_chemical_formula_sum              "Cu2 Si4 H40 C36 O8"
_cell_length_a       14.1755
_cell_length_b       14.1755
_cell_length_c       14.1755
_cell_angle_alpha    101.528
_cell_angle_beta     101.528
_cell_angle_gamma    126.892

_symmetry_space_group_name_H-M    "P 1"
_symmetry_Int_Tables_number       1

loop_
  _symmetry_equiv_pos_as_xyz
  'x, y, z'

loop_
  _atom_site_type_symbol
  _atom_site_label
  _atom_site_symmetry_multiplicity
  _atom_site_fract_x
  _atom_site_fract_y
  _atom_site_fract_z
  _atom_site_occupancy
  _atom_site_charge
Cu  Cu1       1.0  0.10410  0.10410  0.00000  1.0000 0.8821082737
Cu  Cu2       1.0  0.89590  0.89590  0.00000  1.0000 0.8821082737
Si  Si1       1.0  0.48019  0.06210  0.54229  1.0000 0.4618892397
Si  Si2       1.0  0.51981  0.93790  0.45771  1.0000 0.4618892397
Si  Si3       1.0  0.93790  0.48019  0.41809  1.0000 0.4618892397
Si  Si4       1.0  0.06210  0.51981  0.58191  1.0000 0.4618892397
H   H1        1.0  0.31004  0.90399  0.58111  1.0000 0.1597689329
H   H2        1.0  0.44576  0.98623  0.67815  1.0000 0.1597689329
H   H3        1.0  0.37995  0.04551  0.66202  1.0000 0.1772195722
H   H4        1.0  0.51866  0.21614  0.42002  1.0000 0.129871736
H   H5        1.0  0.39220  0.20241  0.27749  1.0000 0.129871736
H   H6        1.0  0.32288  0.72893  0.41889  1.0000 0.1597689329
H   H7        1.0  0.30808  0.76761  0.32185  1.0000 0.1597689329
H   H8        1.0  0.38349  0.71793  0.33798  1.0000 0.1772195722
H   H9        1.0  0.79612  0.09864  0.57998  1.0000 0.129871736
H   H10       1.0  0.92492  0.11471  0.72251  1.0000 0.129871736
H   H11       1.0  0.72893  0.31004  0.40605  1.0000 0.1597689329
H   H12       1.0  0.76761  0.44576  0.45953  1.0000 0.1597689329
H   H13       1.0  0.71793  0.37995  0.33444  1.0000 0.1772195722
H   H14       1.0  0.09864  0.51866  0.30252  1.0000 0.129871736
H   H15       1.0  0.11471  0.39220  0.18979  1.0000 0.129871736
H   H16       1.0  0.90399  0.32288  0.59395  1.0000 0.1597689329
H   H17       1.0  0.98623  0.30808  0.54047  1.0000 0.1597689329
H   H18       1.0  0.04551  0.38349  0.66556  1.0000 0.1772195722
H   H19       1.0  0.21614  0.79612  0.69748  1.0000 0.129871736
H   H20       1.0  0.20241  0.92492  0.81021  1.0000 0.129871736
H   H21       1.0  0.68996  0.09601  0.41889  1.0000 0.1548729714
H   H22       1.0  0.55424  0.01377  0.32185  1.0000 0.1597689329
H   H23       1.0  0.62005  0.95449  0.33798  1.0000 0.1772195722
H   H24       1.0  0.48134  0.78386  0.57998  1.0000 0.129871736
H   H25       1.0  0.60780  0.79759  0.72251  1.0000 0.129871736
H   H26       1.0  0.67712  0.27107  0.58111  1.0000 0.1548729714
H   H27       1.0  0.69192  0.23239  0.67815  1.0000 0.1597689329
H   H28       1.0  0.61651  0.28207  0.66202  1.0000 0.1772195722
H   H29       1.0  0.20388  0.90136  0.42002  1.0000 0.129871736
H   H30       1.0  0.07508  0.88529  0.27749  1.0000 0.129871736
H   H31       1.0  0.27107  0.68996  0.59395  1.0000 0.1548729714
H   H32       1.0  0.23239  0.55424  0.54047  1.0000 0.1597689329
H   H33       1.0  0.28207  0.62005  0.66556  1.0000 0.1772195722
H   H34       1.0  0.90136  0.48134  0.69748  1.0000 0.129871736
H   H35       1.0  0.88529  0.60780  0.81021  1.0000 0.129871736
H   H36       1.0  0.09601  0.67712  0.40605  1.0000 0.1548729714
H   H37       1.0  0.01377  0.69192  0.45953  1.0000 0.1597689329
H   H38       1.0  0.95449  0.61651  0.33444  1.0000 0.1772195722
H   H39       1.0  0.78386  0.20388  0.30252  1.0000 0.129871736
H   H40       1.0  0.79759  0.07508  0.18979  1.0000 0.129871736
C   C1        1.0  0.39370  0.99100  0.62590  1.0000 -0.7223574121
C   C2        1.0  0.42770  0.14680  0.39030  1.0000 -0.0834782312
C   C3        1.0  0.35230  0.13820  0.30450  1.0000 -0.0834782312
C   C4        1.0  0.36510  0.76780  0.37410  1.0000 -0.7223574121
C   C5        1.0  0.75650  0.03740  0.60970  1.0000 -0.0834782312
C   C6        1.0  0.83370  0.04780  0.69550  1.0000 -0.0834782312
C   C7        1.0  0.76780  0.39370  0.40270  1.0000 -0.7223574121
C   C8        1.0  0.03740  0.42770  0.28090  1.0000 -0.0834782312
C   C9        1.0  0.04780  0.35230  0.21410  1.0000 -0.0834782312
C   C10       1.0  0.99100  0.36510  0.59730  1.0000 -0.7223574121
C   C11       1.0  0.14680  0.75650  0.71910  1.0000 -0.0834782312
C   C12       1.0  0.13820  0.83370  0.78590  1.0000 -0.0834782312
C   C13       1.0  0.60630  0.00900  0.37410  1.0000 -0.7223574121
C   C14       1.0  0.57230  0.85320  0.60970  1.0000 -0.0834782312
C   C15       1.0  0.64770  0.86180  0.69550  1.0000 -0.0834782312
C   C16       1.0  0.63490  0.23220  0.62590  1.0000 -0.7223574121
C   C17       1.0  0.24350  0.96260  0.39030  1.0000 -0.0834782312
C   C18       1.0  0.16630  0.95220  0.30450  1.0000 -0.0834782312
C   C19       1.0  0.23220  0.60630  0.59730  1.0000 -0.7223574121
C   C20       1.0  0.96260  0.57230  0.71910  1.0000 -0.0834782312
C   C21       1.0  0.95220  0.64770  0.78590  1.0000 -0.0834782312
C   C22       1.0  0.00900  0.63490  0.40270  1.0000 -0.7223574121
C   C23       1.0  0.85320  0.24350  0.28090  1.0000 -0.0834782312
C   C24       1.0  0.86180  0.16630  0.21410  1.0000 -0.0834782312
C   C25       1.0  0.37550  0.05840  0.43390  1.0000 -0.161833809
C   C26       1.0  0.21950  0.03770  0.25720  1.0000 -0.0196446322
C   C27       1.0  0.13810  0.02370  0.16180  1.0000 0.5885591235
C   C28       1.0  0.62450  0.94160  0.56610  1.0000 -0.161833809
C   C29       1.0  0.78050  0.96230  0.74280  1.0000 -0.0196446322
C   C30       1.0  0.86190  0.97630  0.83820  1.0000 0.5885591235
C   C31       1.0  0.94160  0.37550  0.31710  1.0000 -0.161833809
C   C32       1.0  0.96230  0.21950  0.18180  1.0000 -0.0196446322
C   C33       1.0  0.97630  0.13810  0.11440  1.0000 0.5885591235
C   C34       1.0  0.05840  0.62450  0.68290  1.0000 -0.161833809
C   C35       1.0  0.03770  0.78050  0.81820  1.0000 -0.0196446322
C   C36       1.0  0.02370  0.86190  0.88560  1.0000 0.5885591235
O   O1        1.0  0.19330  0.10684  0.12474  1.0000 -0.5197510843
O   O2        1.0  0.98210  0.06856  0.87526  1.0000 -0.5197510843
O   O3        1.0  0.06856  0.19330  0.08646  1.0000 -0.5197510843
O   O4        1.0  0.10684  0.98210  0.91354  1.0000 -0.5197510843
O   O5        1.0  0.80670  0.89316  0.87526  1.0000 -0.5197510843
O   O6        1.0  0.01790  0.93144  0.12474  1.0000 -0.5197510843
O   O7        1.0  0.93144  0.80670  0.91354  1.0000 -0.5197510843
O   O8        1.0  0.89316  0.01790  0.08646  1.0000 -0.5197510843
