# DDEC6 charges by PACMAN v1.1 (https://github.com/mtap-research/PACMAN-charge/)
data_2019[Zr][sqc]3[ASR]1
_chemical_formula_sum              "Zr12 H120 C208 O48"
_cell_length_a       47.3402
_cell_length_b       47.3402
_cell_length_c       47.3402
_cell_angle_alpha    158.982
_cell_angle_beta     158.982
_cell_angle_gamma    29.8954

_symmetry_space_group_name_H-M    "P 1"
_symmetry_Int_Tables_number       1

loop_
  _symmetry_equiv_pos_as_xyz
  'x, y, z'

loop_
  _atom_site_type_symbol
  _atom_site_label
  _atom_site_symmetry_multiplicity
  _atom_site_fract_x
  _atom_site_fract_y
  _atom_site_fract_z
  _atom_site_occupancy
  _atom_site_charge
Zr  Zr1       1.0  0.52666  0.52666  0.00000  1.0000 2.3003195986
Zr  Zr2       1.0  0.27666  0.77666  0.50000  1.0000 2.3003195986
Zr  Zr3       1.0  0.22334  0.72334  0.50000  1.0000 2.3003195986
Zr  Zr4       1.0  0.47334  0.47334  0.00000  1.0000 2.3003195986
Zr  Zr5       1.0  0.39720  0.39720  0.79440  1.0000 2.4369880721
Zr  Zr6       1.0  0.60280  0.60280  0.20560  1.0000 2.4369880721
Zr  Zr7       1.0  0.14720  0.85280  0.50000  1.0000 2.4369880721
Zr  Zr8       1.0  0.35280  0.64720  0.50000  1.0000 2.4369880721
Zr  Zr9       1.0  0.35280  0.85280  0.70560  1.0000 2.4369880721
Zr  Zr10      1.0  0.14720  0.64720  0.29440  1.0000 2.4369880721
Zr  Zr11      1.0  0.60280  0.39720  0.00000  1.0000 2.4369880721
Zr  Zr12      1.0  0.39720  0.60280  0.00000  1.0000 2.4369880721
H   H1        1.0  0.73220  0.76400  0.40660  1.0000 0.1269415558
H   H2        1.0  0.66710  0.68790  0.22900  1.0000 0.1269415558
H   H3        1.0  0.81000  0.84010  0.52130  1.0000 0.1174241285
H   H4        1.0  0.77690  0.02750  0.62120  1.0000 0.1124192309
H   H5        1.0  0.74150  0.82870  0.35280  1.0000 0.1174241285
H   H6        1.0  0.86920  0.92570  0.62470  1.0000 0.1174241285
H   H7        1.0  0.68580  0.74040  0.24960  1.0000 0.1124192309
H   H8        1.0  0.35740  0.32560  0.59340  1.0000 0.1269415558
H   H9        1.0  0.45890  0.43810  0.77100  1.0000 0.1269415558
H   H10       1.0  0.31880  0.28870  0.47870  1.0000 0.1174241285
H   H11       1.0  0.40630  0.15570  0.37880  1.0000 0.1124192309
H   H12       1.0  0.47590  0.38870  0.64720  1.0000 0.1174241285
H   H13       1.0  0.30100  0.24450  0.37530  1.0000 0.1174241285
H   H14       1.0  0.49080  0.43620  0.75040  1.0000 0.1124192309
H   H15       1.0  0.51400  0.60740  0.53180  1.0000 0.1269415558
H   H16       1.0  0.43790  0.70890  0.52080  1.0000 0.1269415558
H   H17       1.0  0.59010  0.56880  0.53010  1.0000 0.1174241285
H   H18       1.0  0.77750  0.65630  0.75060  1.0000 0.1124192309
H   H19       1.0  0.57870  0.72590  0.58720  1.0000 0.1174241285
H   H20       1.0  0.67570  0.55100  0.55650  1.0000 0.1174241285
H   H21       1.0  0.49040  0.74080  0.55460  1.0000 0.1124192309
H   H22       1.0  0.07560  0.98220  0.46820  1.0000 0.1269415558
H   H23       1.0  0.18810  0.91710  0.47920  1.0000 0.1269415558
H   H24       1.0  0.03870  0.06000  0.46990  1.0000 0.1174241285
H   H25       1.0  0.90570  0.02690  0.24940  1.0000 0.1124192309
H   H26       1.0  0.13870  0.99150  0.41280  1.0000 0.1174241285
H   H27       1.0  0.99450  0.11920  0.44350  1.0000 0.1174241285
H   H28       1.0  0.18620  0.93580  0.44540  1.0000 0.1124192309
H   H29       1.0  0.39260  0.48600  0.46820  1.0000 0.1269415558
H   H30       1.0  0.29110  0.56210  0.47920  1.0000 0.1269415558
H   H31       1.0  0.43120  0.40990  0.46990  1.0000 0.1174241285
H   H32       1.0  0.34370  0.22250  0.24940  1.0000 0.1124192309
H   H33       1.0  0.27410  0.42130  0.41280  1.0000 0.1174241285
H   H34       1.0  0.44900  0.32430  0.44350  1.0000 0.1174241285
H   H35       1.0  0.25920  0.50960  0.44540  1.0000 0.1124192309
H   H36       1.0  0.01780  0.92440  0.53180  1.0000 0.1269415558
H   H37       1.0  0.08290  0.81190  0.52080  1.0000 0.1269415558
H   H38       1.0  0.94000  0.96130  0.53010  1.0000 0.1174241285
H   H39       1.0  0.97310  0.09430  0.75060  1.0000 0.1124192309
H   H40       1.0  0.00850  0.86130  0.58720  1.0000 0.1174241285
H   H41       1.0  0.88080  0.00550  0.55650  1.0000 0.1174241285
H   H42       1.0  0.06420  0.81380  0.55460  1.0000 0.1124192309
H   H43       1.0  0.67440  0.64260  0.40660  1.0000 0.1269415558
H   H44       1.0  0.56190  0.54110  0.22900  1.0000 0.1269415558
H   H45       1.0  0.71130  0.68120  0.52130  1.0000 0.1174241285
H   H46       1.0  0.84430  0.59370  0.62120  1.0000 0.1124192309
H   H47       1.0  0.61130  0.52410  0.35280  1.0000 0.1174241285
H   H48       1.0  0.75550  0.69900  0.62470  1.0000 0.1174241285
H   H49       1.0  0.56380  0.50920  0.24960  1.0000 0.1124192309
H   H50       1.0  0.23600  0.26780  0.59340  1.0000 0.1269415558
H   H51       1.0  0.31210  0.33290  0.77100  1.0000 0.1269415558
H   H52       1.0  0.15990  0.19000  0.47870  1.0000 0.1174241285
H   H53       1.0  0.97250  0.22310  0.37880  1.0000 0.1124192309
H   H54       1.0  0.17130  0.25850  0.64720  1.0000 0.1174241285
H   H55       1.0  0.07430  0.13080  0.37530  1.0000 0.1174241285
H   H56       1.0  0.25960  0.31420  0.75040  1.0000 0.1124192309
H   H57       1.0  0.01780  0.48600  0.09340  1.0000 0.1269415558
H   H58       1.0  0.08290  0.56210  0.27100  1.0000 0.1269415558
H   H59       1.0  0.94000  0.40990  0.97870  1.0000 0.1174241285
H   H60       1.0  0.97310  0.22250  0.87880  1.0000 0.1124192309
H   H61       1.0  0.00850  0.42130  0.14720  1.0000 0.1174241285
H   H62       1.0  0.88080  0.32430  0.87530  1.0000 0.1174241285
H   H63       1.0  0.06420  0.50960  0.25040  1.0000 0.1124192309
H   H64       1.0  0.39260  0.92440  0.90660  1.0000 0.1269415558
H   H65       1.0  0.29110  0.81190  0.72900  1.0000 0.1269415558
H   H66       1.0  0.43120  0.96130  0.02130  1.0000 0.1174241285
H   H67       1.0  0.34370  0.09430  0.12120  1.0000 0.1124192309
H   H68       1.0  0.27410  0.86130  0.85280  1.0000 0.1174241285
H   H69       1.0  0.44900  0.00550  0.12470  1.0000 0.1174241285
H   H70       1.0  0.25920  0.81380  0.74960  1.0000 0.1124192309
H   H71       1.0  0.23600  0.64260  0.96820  1.0000 0.1269415558
H   H72       1.0  0.31210  0.54110  0.97920  1.0000 0.1269415558
H   H73       1.0  0.15990  0.68120  0.96990  1.0000 0.1174241285
H   H74       1.0  0.97250  0.59370  0.74940  1.0000 0.1124192309
H   H75       1.0  0.17130  0.52410  0.91280  1.0000 0.1174241285
H   H76       1.0  0.07430  0.69900  0.94350  1.0000 0.1174241285
H   H77       1.0  0.25960  0.50920  0.94540  1.0000 0.1124192309
H   H78       1.0  0.67440  0.26780  0.03180  1.0000 0.1269415558
H   H79       1.0  0.56190  0.33290  0.02080  1.0000 0.1269415558
H   H80       1.0  0.71130  0.19000  0.03010  1.0000 0.1174241285
H   H81       1.0  0.84430  0.22310  0.25060  1.0000 0.1124192309
H   H82       1.0  0.61130  0.25850  0.08720  1.0000 0.1174241285
H   H83       1.0  0.75550  0.13080  0.05650  1.0000 0.1174241285
H   H84       1.0  0.56380  0.31420  0.05460  1.0000 0.1124192309
H   H85       1.0  0.35740  0.76400  0.03180  1.0000 0.1269415558
H   H86       1.0  0.45890  0.68790  0.02080  1.0000 0.1269415558
H   H87       1.0  0.31880  0.84010  0.03010  1.0000 0.1174241285
H   H88       1.0  0.40630  0.02750  0.25060  1.0000 0.1124192309
H   H89       1.0  0.47590  0.82870  0.08720  1.0000 0.1174241285
H   H90       1.0  0.30100  0.92570  0.05650  1.0000 0.1174241285
H   H91       1.0  0.49080  0.74040  0.05460  1.0000 0.1124192309
H   H92       1.0  0.73220  0.32560  0.96820  1.0000 0.1269415558
H   H93       1.0  0.66710  0.43810  0.97920  1.0000 0.1269415558
H   H94       1.0  0.81000  0.28870  0.96990  1.0000 0.1174241285
H   H95       1.0  0.77690  0.15570  0.74940  1.0000 0.1124192309
H   H96       1.0  0.74150  0.38870  0.91280  1.0000 0.1174241285
H   H97       1.0  0.86920  0.24450  0.94350  1.0000 0.1174241285
H   H98       1.0  0.68580  0.43620  0.94540  1.0000 0.1124192309
H   H99       1.0  0.07560  0.60740  0.09340  1.0000 0.1269415558
H   H100      1.0  0.18810  0.70890  0.27100  1.0000 0.1269415558
H   H101      1.0  0.03870  0.56880  0.97870  1.0000 0.1174241285
H   H102      1.0  0.90570  0.65630  0.87880  1.0000 0.1124192309
H   H103      1.0  0.13870  0.72590  0.14720  1.0000 0.1174241285
H   H104      1.0  0.99450  0.55100  0.87530  1.0000 0.1174241285
H   H105      1.0  0.18620  0.74080  0.25040  1.0000 0.1124192309
H   H106      1.0  0.51400  0.98220  0.90660  1.0000 0.1269415558
H   H107      1.0  0.43790  0.91710  0.72900  1.0000 0.1269415558
H   H108      1.0  0.59010  0.06000  0.02130  1.0000 0.1174241285
H   H109      1.0  0.77750  0.02690  0.12120  1.0000 0.1124192309
H   H110      1.0  0.57870  0.99150  0.85280  1.0000 0.1174241285
H   H111      1.0  0.67570  0.11920  0.12470  1.0000 0.1174241285
H   H112      1.0  0.49040  0.93580  0.74960  1.0000 0.1124192309
H   H113      1.0  0.87500  0.86930  0.49430  1.0000 0.1124192309
H   H114      1.0  0.37500  0.38070  0.50570  1.0000 0.1124192309
H   H115      1.0  0.61930  0.62500  0.49430  1.0000 0.1124192309
H   H116      1.0  0.13070  0.12500  0.50570  1.0000 0.1124192309
H   H117      1.0  0.87500  0.38070  0.00570  1.0000 0.1124192309
H   H118      1.0  0.37500  0.86930  0.99430  1.0000 0.1124192309
H   H119      1.0  0.13070  0.62500  0.00570  1.0000 0.1124192309
H   H120      1.0  0.61930  0.12500  0.99430  1.0000 0.1124192309
C   C1        1.0  0.65354  0.66845  0.25131  1.0000 0.6801049464
C   C2        1.0  0.70052  0.72682  0.33290  1.0000 -0.2415951196
C   C3        1.0  0.69852  0.72722  0.30350  1.0000 -0.1069083776
C   C4        1.0  0.84051  0.02901  0.64510  1.0000 0.0251244071
C   C5        1.0  0.84185  0.94805  0.56520  1.0000 0.0171741211
C   C6        1.0  0.80729  0.88899  0.49830  1.0000 0.0667731055
C   C7        1.0  0.73897  0.78127  0.37250  1.0000 0.0919737151
C   C8        1.0  0.79546  0.83756  0.48650  1.0000 -0.1312801813
C   C9        1.0  0.80263  0.06163  0.66440  1.0000 -0.1600377591
C   C10       1.0  0.75493  0.83193  0.38740  1.0000 -0.144785317
C   C11       1.0  0.83023  0.88983  0.54880  1.0000 -0.1520480531
C   C12       1.0  0.72135  0.77895  0.32540  1.0000 -0.1520480531
C   C13       1.0  0.41714  0.40223  0.74869  1.0000 0.6801049464
C   C14       1.0  0.39392  0.36762  0.66710  1.0000 -0.2415951196
C   C15       1.0  0.42372  0.39502  0.69650  1.0000 -0.1069083776
C   C16       1.0  0.38391  0.19541  0.35490  1.0000 0.0251244071
C   C17       1.0  0.38285  0.27665  0.43480  1.0000 0.013647704
C   C18       1.0  0.39069  0.30899  0.50170  1.0000 0.0667731055
C   C19       1.0  0.40877  0.36647  0.62750  1.0000 0.0919737151
C   C20       1.0  0.35106  0.30896  0.51350  1.0000 -0.1312801813
C   C21       1.0  0.39723  0.13823  0.33560  1.0000 -0.1600377591
C   C22       1.0  0.44453  0.36753  0.61260  1.0000 -0.144785317
C   C23       1.0  0.34103  0.28143  0.45120  1.0000 -0.1520480531
C   C24       1.0  0.45355  0.39595  0.67460  1.0000 -0.1520480531
C   C25       1.0  0.41845  0.66714  0.51491  1.0000 0.6801049464
C   C26       1.0  0.47682  0.64392  0.52630  1.0000 -0.2415951196
C   C27       1.0  0.47722  0.67372  0.52870  1.0000 -0.1069083776
C   C28       1.0  0.77901  0.63391  0.68850  1.0000 0.0171741211
C   C29       1.0  0.69805  0.63285  0.60620  1.0000 0.0171741211
C   C30       1.0  0.63899  0.64069  0.58170  1.0000 0.0667731055
C   C31       1.0  0.53127  0.65877  0.54230  1.0000 0.0919737151
C   C32       1.0  0.58756  0.60106  0.54210  1.0000 -0.1312801813
C   C33       1.0  0.81163  0.64723  0.75900  1.0000 -0.1600377591
C   C34       1.0  0.58193  0.69453  0.57700  1.0000 -0.144785317
C   C35       1.0  0.63983  0.59103  0.55960  1.0000 -0.1520480531
C   C36       1.0  0.52895  0.70355  0.55760  1.0000 -0.1520480531
C   C37       1.0  0.15223  0.90354  0.48509  1.0000 0.6801049464
C   C38       1.0  0.11762  0.95052  0.47370  1.0000 -0.2415951196
C   C39       1.0  0.14502  0.94852  0.47130  1.0000 -0.1069083776
C   C40       1.0  0.94541  0.09051  0.31150  1.0000 0.0251244071
C   C41       1.0  0.02665  0.09185  0.39380  1.0000 0.0171741211
C   C42       1.0  0.05899  0.05729  0.41830  1.0000 0.0667731055
C   C43       1.0  0.11647  0.98897  0.45770  1.0000 0.0919737151
C   C44       1.0  0.05896  0.04546  0.45790  1.0000 -0.1312801813
C   C45       1.0  0.88823  0.05263  0.24100  1.0000 -0.1600377591
C   C46       1.0  0.11753  0.00493  0.42300  1.0000 -0.144785317
C   C47       1.0  0.03143  0.08023  0.44040  1.0000 -0.1520480531
C   C48       1.0  0.14595  0.97135  0.44240  1.0000 -0.1520480531
C   C49       1.0  0.33286  0.58155  0.48509  1.0000 0.6801049464
C   C50       1.0  0.35608  0.52318  0.47370  1.0000 -0.2415951196
C   C51       1.0  0.32628  0.52278  0.47130  1.0000 -0.1069083776
C   C52       1.0  0.36609  0.22099  0.31150  1.0000 0.0251244071
C   C53       1.0  0.36715  0.30195  0.39380  1.0000 0.013647704
C   C54       1.0  0.35931  0.36101  0.41830  1.0000 0.0667731055
C   C55       1.0  0.34123  0.46873  0.45770  1.0000 0.0919737151
C   C56       1.0  0.39894  0.41244  0.45790  1.0000 -0.1312801813
C   C57       1.0  0.35277  0.18837  0.24100  1.0000 -0.1600377591
C   C58       1.0  0.30547  0.41807  0.42300  1.0000 -0.144785317
C   C59       1.0  0.40897  0.36017  0.44040  1.0000 -0.1520480531
C   C60       1.0  0.29645  0.47105  0.44240  1.0000 -0.1520480531
C   C61       1.0  0.09646  0.84777  0.51491  1.0000 0.6801049464
C   C62       1.0  0.04948  0.88238  0.52630  1.0000 -0.2415951196
C   C63       1.0  0.05148  0.85498  0.52870  1.0000 -0.1069083776
C   C64       1.0  0.90949  0.05459  0.68850  1.0000 0.0251244071
C   C65       1.0  0.90815  0.97335  0.60620  1.0000 0.0171741211
C   C66       1.0  0.94271  0.94101  0.58170  1.0000 0.0667731055
C   C67       1.0  0.01103  0.88353  0.54230  1.0000 0.0919737151
C   C68       1.0  0.95454  0.94104  0.54210  1.0000 -0.1312801813
C   C69       1.0  0.94737  0.11177  0.75900  1.0000 -0.1600377591
C   C70       1.0  0.99507  0.88247  0.57700  1.0000 -0.144785317
C   C71       1.0  0.91977  0.96857  0.55960  1.0000 -0.1520480531
C   C72       1.0  0.02865  0.85405  0.55760  1.0000 -0.1520480531
C   C73       1.0  0.59777  0.58286  0.25131  1.0000 0.6801049464
C   C74       1.0  0.63238  0.60608  0.33290  1.0000 -0.2415951196
C   C75       1.0  0.60498  0.57628  0.30350  1.0000 -0.1069083776
C   C76       1.0  0.80459  0.61609  0.64510  1.0000 0.0171741211
C   C77       1.0  0.72335  0.61715  0.56520  1.0000 0.0171741211
C   C78       1.0  0.69101  0.60931  0.49830  1.0000 0.0667731055
C   C79       1.0  0.63353  0.59123  0.37250  1.0000 0.0919737151
C   C80       1.0  0.69104  0.64894  0.48650  1.0000 -0.1312801813
C   C81       1.0  0.86177  0.60277  0.66440  1.0000 -0.1600377591
C   C82       1.0  0.63247  0.55547  0.38740  1.0000 -0.144785317
C   C83       1.0  0.71857  0.65897  0.54880  1.0000 -0.1520480531
C   C84       1.0  0.60405  0.54645  0.32540  1.0000 -0.1520480531
C   C85       1.0  0.33155  0.34646  0.74869  1.0000 0.6801049464
C   C86       1.0  0.27318  0.29948  0.66710  1.0000 -0.2415951196
C   C87       1.0  0.27278  0.30148  0.69650  1.0000 -0.1069083776
C   C88       1.0  0.97099  0.15949  0.35490  1.0000 0.0251244071
C   C89       1.0  0.05195  0.15815  0.43480  1.0000 0.013647704
C   C90       1.0  0.11101  0.19271  0.50170  1.0000 0.0667731055
C   C91       1.0  0.21873  0.26103  0.62750  1.0000 0.0919737151
C   C92       1.0  0.16244  0.20454  0.51350  1.0000 -0.1312801813
C   C93       1.0  0.93837  0.19737  0.33560  1.0000 -0.1600377591
C   C94       1.0  0.16807  0.24507  0.61260  1.0000 -0.144785317
C   C95       1.0  0.11017  0.16977  0.45120  1.0000 -0.1520480531
C   C96       1.0  0.22105  0.27865  0.67460  1.0000 -0.1520480531
C   C97       1.0  0.09646  0.58155  0.24869  1.0000 0.6801049464
C   C98       1.0  0.04948  0.52318  0.16710  1.0000 -0.2415951196
C   C99       1.0  0.05148  0.52278  0.19650  1.0000 -0.1069083776
C   C100      1.0  0.90949  0.22099  0.85490  1.0000 0.0251244071
C   C101      1.0  0.90815  0.30195  0.93480  1.0000 0.0171741211
C   C102      1.0  0.94271  0.36101  0.00170  1.0000 0.0667731055
C   C103      1.0  0.01103  0.46873  0.12750  1.0000 0.0919737151
C   C104      1.0  0.95454  0.41244  0.01350  1.0000 -0.1312801813
C   C105      1.0  0.94737  0.18837  0.83560  1.0000 -0.1600377591
C   C106      1.0  0.99507  0.41807  0.11260  1.0000 -0.144785317
C   C107      1.0  0.91977  0.36017  0.95120  1.0000 -0.1520480531
C   C108      1.0  0.02865  0.47105  0.17460  1.0000 -0.1520480531
C   C109      1.0  0.33286  0.84777  0.75131  1.0000 0.6801049464
C   C110      1.0  0.35608  0.88238  0.83290  1.0000 -0.2415951196
C   C111      1.0  0.32628  0.85498  0.80350  1.0000 -0.1069083776
C   C112      1.0  0.36609  0.05459  0.14510  1.0000 0.0251244071
C   C113      1.0  0.36715  0.97335  0.06520  1.0000 0.013647704
C   C114      1.0  0.35931  0.94101  0.99830  1.0000 0.0667731055
C   C115      1.0  0.34123  0.88353  0.87250  1.0000 0.0919737151
C   C116      1.0  0.39894  0.94104  0.98650  1.0000 -0.1312801813
C   C117      1.0  0.35277  0.11177  0.16440  1.0000 -0.1600377591
C   C118      1.0  0.30547  0.88247  0.88740  1.0000 -0.144785317
C   C119      1.0  0.40897  0.96857  0.04880  1.0000 -0.1520480531
C   C120      1.0  0.29645  0.85405  0.82540  1.0000 -0.1520480531
C   C121      1.0  0.33155  0.58286  0.98509  1.0000 0.6801049464
C   C122      1.0  0.27318  0.60608  0.97370  1.0000 -0.2415951196
C   C123      1.0  0.27278  0.57628  0.97130  1.0000 -0.1069083776
C   C124      1.0  0.97099  0.61609  0.81150  1.0000 0.0251244071
C   C125      1.0  0.05195  0.61715  0.89380  1.0000 0.013647704
C   C126      1.0  0.11101  0.60931  0.91830  1.0000 0.0667731055
C   C127      1.0  0.21873  0.59123  0.95770  1.0000 0.0919737151
C   C128      1.0  0.16244  0.64894  0.95790  1.0000 -0.1312801813
C   C129      1.0  0.93837  0.60277  0.74100  1.0000 -0.1600377591
C   C130      1.0  0.16807  0.55547  0.92300  1.0000 -0.144785317
C   C131      1.0  0.11017  0.65897  0.94040  1.0000 -0.1520480531
C   C132      1.0  0.22105  0.54645  0.94240  1.0000 -0.1520480531
C   C133      1.0  0.59777  0.34646  0.01491  1.0000 0.6801049464
C   C134      1.0  0.63238  0.29948  0.02630  1.0000 -0.2415951196
C   C135      1.0  0.60498  0.30148  0.02870  1.0000 -0.1069083776
C   C136      1.0  0.80459  0.15949  0.18850  1.0000 0.0251244071
C   C137      1.0  0.72335  0.15815  0.10620  1.0000 0.0171741211
C   C138      1.0  0.69101  0.19271  0.08170  1.0000 0.0667731055
C   C139      1.0  0.63353  0.26103  0.04230  1.0000 0.0919737151
C   C140      1.0  0.69104  0.20454  0.04210  1.0000 -0.1312801813
C   C141      1.0  0.86177  0.19737  0.25900  1.0000 -0.1600377591
C   C142      1.0  0.63247  0.24507  0.07700  1.0000 -0.144785317
C   C143      1.0  0.71857  0.16977  0.05960  1.0000 -0.1520480531
C   C144      1.0  0.60405  0.27865  0.05760  1.0000 -0.1520480531
C   C145      1.0  0.41714  0.66845  0.01491  1.0000 0.6801049464
C   C146      1.0  0.39392  0.72682  0.02630  1.0000 -0.2415951196
C   C147      1.0  0.42372  0.72722  0.02870  1.0000 -0.1069083776
C   C148      1.0  0.38391  0.02901  0.18850  1.0000 0.0251244071
C   C149      1.0  0.38285  0.94805  0.10620  1.0000 0.0171741211
C   C150      1.0  0.39069  0.88899  0.08170  1.0000 0.0667731055
C   C151      1.0  0.40877  0.78127  0.04230  1.0000 0.0919737151
C   C152      1.0  0.35106  0.83756  0.04210  1.0000 -0.1312801813
C   C153      1.0  0.39723  0.06163  0.25900  1.0000 -0.1600377591
C   C154      1.0  0.44453  0.83193  0.07700  1.0000 -0.144785317
C   C155      1.0  0.34103  0.88983  0.05960  1.0000 -0.1520480531
C   C156      1.0  0.45355  0.77895  0.05760  1.0000 -0.1520480531
C   C157      1.0  0.65354  0.40223  0.98509  1.0000 0.6801049464
C   C158      1.0  0.70052  0.36762  0.97370  1.0000 -0.2415951196
C   C159      1.0  0.69852  0.39502  0.97130  1.0000 -0.1069083776
C   C160      1.0  0.84051  0.19541  0.81150  1.0000 0.0251244071
C   C161      1.0  0.84185  0.27665  0.89380  1.0000 0.013647704
C   C162      1.0  0.80729  0.30899  0.91830  1.0000 0.0667731055
C   C163      1.0  0.73897  0.36647  0.95770  1.0000 0.0919737151
C   C164      1.0  0.79546  0.30896  0.95790  1.0000 -0.1312801813
C   C165      1.0  0.80263  0.13823  0.74100  1.0000 -0.1600377591
C   C166      1.0  0.75493  0.36753  0.92300  1.0000 -0.144785317
C   C167      1.0  0.83023  0.28143  0.94040  1.0000 -0.1520480531
C   C168      1.0  0.72135  0.39595  0.94240  1.0000 -0.1520480531
C   C169      1.0  0.15223  0.66714  0.24869  1.0000 0.6801049464
C   C170      1.0  0.11762  0.64392  0.16710  1.0000 -0.2415951196
C   C171      1.0  0.14502  0.67372  0.19650  1.0000 -0.1069083776
C   C172      1.0  0.94541  0.63391  0.85490  1.0000 0.0251244071
C   C173      1.0  0.02665  0.63285  0.93480  1.0000 0.013647704
C   C174      1.0  0.05899  0.64069  0.00170  1.0000 0.0667731055
C   C175      1.0  0.11647  0.65877  0.12750  1.0000 0.0919737151
C   C176      1.0  0.05896  0.60106  0.01350  1.0000 -0.1312801813
C   C177      1.0  0.88823  0.64723  0.83560  1.0000 -0.1600377591
C   C178      1.0  0.11753  0.69453  0.11260  1.0000 -0.144785317
C   C179      1.0  0.03143  0.59103  0.95120  1.0000 -0.1520480531
C   C180      1.0  0.14595  0.70355  0.17460  1.0000 -0.1520480531
C   C181      1.0  0.41845  0.90354  0.75131  1.0000 0.6801049464
C   C182      1.0  0.47682  0.95052  0.83290  1.0000 -0.2415951196
C   C183      1.0  0.47722  0.94852  0.80350  1.0000 -0.1069083776
C   C184      1.0  0.77901  0.09051  0.14510  1.0000 0.0251244071
C   C185      1.0  0.69805  0.09185  0.06520  1.0000 0.0171741211
C   C186      1.0  0.63899  0.05729  0.99830  1.0000 0.0667731055
C   C187      1.0  0.53127  0.98897  0.87250  1.0000 0.0919737151
C   C188      1.0  0.58756  0.04546  0.98650  1.0000 -0.1312801813
C   C189      1.0  0.81163  0.05263  0.16440  1.0000 -0.1600377591
C   C190      1.0  0.58193  0.00493  0.88740  1.0000 -0.144785317
C   C191      1.0  0.63983  0.08023  0.04880  1.0000 -0.1520480531
C   C192      1.0  0.52895  0.97135  0.82540  1.0000 -0.1520480531
C   C193      1.0  0.87500  0.92310  0.54810  1.0000 -0.2006473265
C   C194      1.0  0.87500  0.08330  0.70830  1.0000 0.0023676446
C   C195      1.0  0.37500  0.32690  0.45190  1.0000 -0.2006473265
C   C196      1.0  0.37500  0.16670  0.29170  1.0000 0.0023676446
C   C197      1.0  0.67310  0.62500  0.54810  1.0000 -0.2006473265
C   C198      1.0  0.83330  0.62500  0.70830  1.0000 0.013647704
C   C199      1.0  0.07690  0.12500  0.45190  1.0000 -0.2006473265
C   C200      1.0  0.91670  0.12500  0.29170  1.0000 0.0023676446
C   C201      1.0  0.87500  0.32690  0.95190  1.0000 -0.2006473265
C   C202      1.0  0.87500  0.16670  0.79170  1.0000 0.0023676446
C   C203      1.0  0.37500  0.92310  0.04810  1.0000 -0.2006473265
C   C204      1.0  0.37500  0.08330  0.20830  1.0000 0.0023676446
C   C205      1.0  0.07690  0.62500  0.95190  1.0000 -0.2006473265
C   C206      1.0  0.91670  0.62500  0.79170  1.0000 0.0023676446
C   C207      1.0  0.67310  0.12500  0.04810  1.0000 -0.2006473265
C   C208      1.0  0.83330  0.12500  0.20830  1.0000 0.0023676446
O   O1        1.0  0.61462  0.61682  0.15328  1.0000 -0.575287621
O   O2        1.0  0.65633  0.67490  0.28653  1.0000 -0.6293179899
O   O3        1.0  0.46354  0.46134  0.84672  1.0000 -0.5730694667
O   O4        1.0  0.38837  0.36980  0.71347  1.0000 -0.6293179899
O   O5        1.0  0.36682  0.71354  0.50220  1.0000 -0.5730694667
O   O6        1.0  0.42490  0.63837  0.51857  1.0000 -0.6293179899
O   O7        1.0  0.21134  0.86462  0.49780  1.0000 -0.575287621
O   O8        1.0  0.11980  0.90633  0.48143  1.0000 -0.6293179899
O   O9        1.0  0.28646  0.63318  0.49780  1.0000 -0.575287621
O   O10       1.0  0.36163  0.57510  0.48143  1.0000 -0.6293179899
O   O11       1.0  0.13538  0.78866  0.50220  1.0000 -0.575287621
O   O12       1.0  0.09367  0.88020  0.51857  1.0000 -0.6293179899
O   O13       1.0  0.53866  0.53646  0.15328  1.0000 -0.575287621
O   O14       1.0  0.63020  0.61163  0.28653  1.0000 -0.6293179899
O   O15       1.0  0.38318  0.38538  0.84672  1.0000 -0.575287621
O   O16       1.0  0.32510  0.34367  0.71347  1.0000 -0.6293179899
O   O17       1.0  0.13538  0.63318  0.34672  1.0000 -0.575287621
O   O18       1.0  0.09367  0.57510  0.21347  1.0000 -0.6293179899
O   O19       1.0  0.28646  0.78866  0.65328  1.0000 -0.575287621
O   O20       1.0  0.36163  0.88020  0.78653  1.0000 -0.6293179899
O   O21       1.0  0.38318  0.53646  0.99780  1.0000 -0.575287621
O   O22       1.0  0.32510  0.61163  0.98143  1.0000 -0.6293179899
O   O23       1.0  0.53866  0.38538  0.00220  1.0000 -0.5730694667
O   O24       1.0  0.63020  0.34367  0.01857  1.0000 -0.6293179899
O   O25       1.0  0.46354  0.61682  0.00220  1.0000 -0.5730694667
O   O26       1.0  0.38837  0.67490  0.01857  1.0000 -0.6293179899
O   O27       1.0  0.61462  0.46134  0.99780  1.0000 -0.575287621
O   O28       1.0  0.65633  0.36980  0.98143  1.0000 -0.6293179899
O   O29       1.0  0.21134  0.71354  0.34672  1.0000 -0.5730694667
O   O30       1.0  0.11980  0.63837  0.21347  1.0000 -0.6293179899
O   O31       1.0  0.36682  0.86462  0.65328  1.0000 -0.575287621
O   O32       1.0  0.42490  0.90633  0.78653  1.0000 -0.6293179899
O   O33       1.0  0.51131  0.42297  0.91166  1.0000 -1.166678408
O   O34       1.0  0.51131  0.59965  0.08834  1.0000 -1.166678408
O   O35       1.0  0.17297  0.76131  0.41166  1.0000 -1.166678408
O   O36       1.0  0.34965  0.76131  0.58834  1.0000 -1.166678408
O   O37       1.0  0.23869  0.82703  0.58834  1.0000 -1.166678408
O   O38       1.0  0.23869  0.65035  0.41166  1.0000 -1.166678408
O   O39       1.0  0.40035  0.48869  0.91166  1.0000 -1.166678408
O   O40       1.0  0.57703  0.48869  0.08834  1.0000 -1.166678408
O   O41       1.0  0.39471  0.51461  0.88010  1.0000 -1.179979755
O   O42       1.0  0.63451  0.51461  0.11990  1.0000 -1.166678408
O   O43       1.0  0.26461  0.88451  0.61990  1.0000 -1.166678408
O   O44       1.0  0.26461  0.64471  0.38010  1.0000 -1.179979755
O   O45       1.0  0.11549  0.73539  0.38010  1.0000 -1.166678408
O   O46       1.0  0.35529  0.73539  0.61990  1.0000 -1.166678408
O   O47       1.0  0.48539  0.36549  0.88010  1.0000 -1.166678408
O   O48       1.0  0.48539  0.60529  0.11990  1.0000 -1.166678408
