# DDEC6 charges by PACMAN v1.1 (https://github.com/mtap-research/PACMAN-charge/)
data_2019[CoCr][pcu]3[ASR]1
_chemical_formula_sum              "Cr2 Co2 H56 C52 N8 O4"
_cell_length_a       12.376
_cell_length_b       12.928
_cell_length_c       13.45
_cell_angle_alpha    62.463
_cell_angle_beta     65.132
_cell_angle_gamma    78.494

_symmetry_space_group_name_H-M    "P 1"
_symmetry_Int_Tables_number       1

loop_
  _symmetry_equiv_pos_as_xyz
  'x, y, z'

loop_
  _atom_site_type_symbol
  _atom_site_label
  _atom_site_symmetry_multiplicity
  _atom_site_fract_x
  _atom_site_fract_y
  _atom_site_fract_z
  _atom_site_occupancy
  _atom_site_charge
Cr  Cr1       1.0  0.30315  0.11113  0.83031  1.0000 1.1285157323
Cr  Cr2       1.0  0.69685  0.88887  0.16969  1.0000 1.1285157323
Co  Co1       1.0  0.50000  0.00000  0.00000  1.0000 0.7974197984
Co  Co2       1.0  0.00000  0.00000  0.00000  1.0000 0.8155382395
H   H1        1.0  0.61240  0.74960  0.07750  1.0000 0.077581864
H   H2        1.0  0.65740  0.59810  0.02080  1.0000 0.1213011255
H   H3        1.0  0.56230  0.79210  0.73610  1.0000 0.1259820879
H   H4        1.0  0.52220  0.94130  0.79470  1.0000 0.0906896776
H   H5        1.0  0.64470  0.50020  0.90970  1.0000 0.1009409682
H   H6        1.0  0.57630  0.56180  0.82130  1.0000 0.1072617442
H   H7        1.0  0.81890  0.59330  0.75630  1.0000 0.1009409682
H   H8        1.0  0.75180  0.66170  0.66790  1.0000 0.0906896776
H   H9        1.0  0.84310  0.51970  0.61010  1.0000 0.1009409682
H   H10       1.0  0.71370  0.47060  0.69310  1.0000 0.1072617442
H   H11       1.0  0.68230  0.31080  0.90920  1.0000 0.1213011255
H   H12       1.0  0.75850  0.14370  0.01510  1.0000 0.0906896776
H   H13       1.0  0.07730  0.24270  0.77040  1.0000 0.0906896776
H   H14       1.0  0.01100  0.41410  0.66220  1.0000 0.1213011255
H   H15       1.0  0.76790  0.02280  0.86180  1.0000 0.0906896776
H   H16       1.0  0.91730  0.12470  0.68330  1.0000 0.1213011255
H   H17       1.0  0.66920  0.33470  0.57010  1.0000 0.1213011255
H   H18       1.0  0.52730  0.22760  0.75120  1.0000 0.0696155102
H   H19       1.0  0.98200  0.30180  0.49560  1.0000 0.1009409682
H   H20       1.0  0.88650  0.39810  0.46520  1.0000 0.0906896776
H   H21       1.0  0.96570  0.33710  0.30690  1.0000 0.077581864
H   H22       1.0  0.83520  0.28870  0.38280  1.0000 0.0906896776
H   H23       1.0  0.04290  0.14580  0.41430  1.0000 0.1072617442
H   H24       1.0  0.91230  0.09740  0.49010  1.0000 0.1072617442
H   H25       1.0  0.81870  0.02480  0.41130  1.0000 0.1213011255
H   H26       1.0  0.83540  0.97440  0.25670  1.0000 0.077581864
H   H27       1.0  0.12410  0.16560  0.03560  1.0000 0.0906896776
H   H28       1.0  0.12150  0.20920  0.18330  1.0000 0.1213011255
H   H29       1.0  0.38760  0.25040  0.92250  1.0000 0.077581864
H   H30       1.0  0.34260  0.40190  0.97920  1.0000 0.1213011255
H   H31       1.0  0.43770  0.20790  0.26390  1.0000 0.1259820879
H   H32       1.0  0.47780  0.05870  0.20530  1.0000 0.0906896776
H   H33       1.0  0.35530  0.49980  0.09030  1.0000 0.1009409682
H   H34       1.0  0.42370  0.43820  0.17870  1.0000 0.1072617442
H   H35       1.0  0.18110  0.40670  0.24370  1.0000 0.1009409682
H   H36       1.0  0.24820  0.33830  0.33210  1.0000 0.0906896776
H   H37       1.0  0.15690  0.48030  0.38990  1.0000 0.1009409682
H   H38       1.0  0.28630  0.52940  0.30690  1.0000 0.1072617442
H   H39       1.0  0.31770  0.68920  0.09080  1.0000 0.1213011255
H   H40       1.0  0.24150  0.85630  0.98490  1.0000 0.0906896776
H   H41       1.0  0.92270  0.75730  0.22960  1.0000 0.0906896776
H   H42       1.0  0.98900  0.58590  0.33780  1.0000 0.1213011255
H   H43       1.0  0.23210  0.97720  0.13820  1.0000 0.0906896776
H   H44       1.0  0.08270  0.87530  0.31670  1.0000 0.1213011255
H   H45       1.0  0.33080  0.66530  0.42990  1.0000 0.1213011255
H   H46       1.0  0.47270  0.77240  0.24880  1.0000 0.0696155102
H   H47       1.0  0.01800  0.69820  0.50440  1.0000 0.1009409682
H   H48       1.0  0.11350  0.60190  0.53480  1.0000 0.0906896776
H   H49       1.0  0.03430  0.66290  0.69310  1.0000 0.077581864
H   H50       1.0  0.16480  0.71130  0.61720  1.0000 0.0906896776
H   H51       1.0  0.95710  0.85420  0.58570  1.0000 0.1009409682
H   H52       1.0  0.08770  0.90260  0.50990  1.0000 0.1009409682
H   H53       1.0  0.18130  0.97520  0.58870  1.0000 0.1213011255
H   H54       1.0  0.16460  0.02560  0.74330  1.0000 0.077581864
H   H55       1.0  0.87590  0.83440  0.96440  1.0000 0.0906896776
H   H56       1.0  0.87850  0.79080  0.81670  1.0000 0.1213011255
C   C1        1.0  0.60090  0.75780  0.01010  1.0000 0.058441646
C   C2        1.0  0.62780  0.66750  0.97510  1.0000 -0.240231199
C   C3        1.0  0.61250  0.67570  0.87290  1.0000 0.1506360378
C   C4        1.0  0.57240  0.78090  0.80520  1.0000 -0.240231199
C   C5        1.0  0.54730  0.86970  0.84220  1.0000 0.077581864
C   C6        1.0  0.64010  0.57080  0.84060  1.0000 -0.2688949436
C   C7        1.0  0.75530  0.58810  0.73470  1.0000 -0.1592339679
C   C8        1.0  0.78510  0.49130  0.69270  1.0000 -0.2600370228
C   C9        1.0  0.83670  0.37890  0.77560  1.0000 0.1506360378
C   C10       1.0  0.76400  0.29740  0.88060  1.0000 -0.2093995094
C   C11       1.0  0.81030  0.19750  0.94310  1.0000 0.0493053616
C   C12       1.0  0.99580  0.25680  0.80010  1.0000 0.0380888804
C   C13       1.0  0.95870  0.35950  0.73280  1.0000 -0.2282916858
C   C14       1.0  0.74700  0.08690  0.80250  1.0000 0.0380888804
C   C15       1.0  0.83830  0.14800  0.69600  1.0000 -0.2017143696
C   C16       1.0  0.80890  0.24270  0.61080  1.0000 0.1506360378
C   C17       1.0  0.69100  0.27200  0.62950  1.0000 -0.2216372668
C   C18       1.0  0.60650  0.20550  0.73890  1.0000 0.058441646
C   C19       1.0  0.90550  0.31580  0.48770  1.0000 -0.2600370228
C   C20       1.0  0.91350  0.28300  0.38500  1.0000 -0.1387645334
C   C21       1.0  0.96460  0.15140  0.41190  1.0000 -0.2801383763
C   C22       1.0  0.97240  0.11990  0.31650  1.0000 0.1506360378
C   C23       1.0  0.88290  0.05080  0.33750  1.0000 -0.240231199
C   C24       1.0  0.89260  0.02150  0.24320  1.0000 0.077581864
C   C25       1.0  0.06510  0.13390  0.11260  1.0000 0.077581864
C   C26       1.0  0.06250  0.16180  0.20080  1.0000 -0.2282916858
C   C27       1.0  0.39910  0.24220  0.98990  1.0000 0.0696155102
C   C28       1.0  0.37220  0.33250  0.02490  1.0000 -0.240231199
C   C29       1.0  0.38750  0.32430  0.12710  1.0000 0.1551068247
C   C30       1.0  0.42760  0.21910  0.19480  1.0000 -0.240231199
C   C31       1.0  0.45270  0.13030  0.15780  1.0000 0.077581864
C   C32       1.0  0.35990  0.42920  0.15940  1.0000 -0.2688949436
C   C33       1.0  0.24470  0.41190  0.26530  1.0000 -0.1592339679
C   C34       1.0  0.21490  0.50870  0.30730  1.0000 -0.2600370228
C   C35       1.0  0.16330  0.62110  0.22440  1.0000 0.1506360378
C   C36       1.0  0.23600  0.70260  0.11940  1.0000 -0.2093995094
C   C37       1.0  0.18970  0.80250  0.05690  1.0000 0.0493053616
C   C38       1.0  0.00420  0.74320  0.19990  1.0000 0.0380888804
C   C39       1.0  0.04130  0.64050  0.26720  1.0000 -0.2282916858
C   C40       1.0  0.25300  0.91310  0.19750  1.0000 0.0380888804
C   C41       1.0  0.16170  0.85200  0.30400  1.0000 -0.2017143696
C   C42       1.0  0.19110  0.75730  0.38920  1.0000 0.1506360378
C   C43       1.0  0.30900  0.72800  0.37050  1.0000 -0.2216372668
C   C44       1.0  0.39350  0.79450  0.26110  1.0000 0.058441646
C   C45       1.0  0.09450  0.68420  0.51230  1.0000 -0.2600370228
C   C46       1.0  0.08650  0.71700  0.61500  1.0000 -0.1387645334
C   C47       1.0  0.03540  0.84860  0.58810  1.0000 -0.2801383763
C   C48       1.0  0.02760  0.88010  0.68350  1.0000 0.1506360378
C   C49       1.0  0.11710  0.94920  0.66250  1.0000 -0.240231199
C   C50       1.0  0.10740  0.97850  0.75680  1.0000 0.077581864
C   C51       1.0  0.93490  0.86610  0.88740  1.0000 0.077581864
C   C52       1.0  0.93750  0.83820  0.79920  1.0000 -0.2282916858
N   N1        1.0  0.55710  0.85890  0.94310  1.0000 -0.2495962187
N   N2        1.0  0.93070  0.17000  0.90620  1.0000 -0.2801383763
N   N3        1.0  0.62750  0.11300  0.82860  1.0000 -0.2600370228
N   N4        1.0  0.98450  0.06210  0.13490  1.0000 -0.2495962187
N   N5        1.0  0.44290  0.14110  0.05690  1.0000 -0.2495962187
N   N6        1.0  0.06930  0.83000  0.09380  1.0000 -0.2801383763
N   N7        1.0  0.37250  0.88700  0.17140  1.0000 -0.2600370228
N   N8        1.0  0.01550  0.93790  0.86510  1.0000 -0.2495962187
O   O1        1.0  0.37480  0.05140  0.92430  1.0000 -0.8173015395
O   O2        1.0  0.16430  0.06350  0.90170  1.0000 -0.8149553417
O   O3        1.0  0.62520  0.94860  0.07570  1.0000 -0.8173015395
O   O4        1.0  0.83570  0.93650  0.09830  1.0000 -0.8173015395
