# DDEC6 charges by PACMAN v1.1 (https://github.com/mtap-research/PACMAN-charge/)
data_2019[Ni][nan]2[ASR]1
_chemical_formula_sum              "Ni4 H100 C128 N12 O28"
_cell_length_a       8.44
_cell_length_b       18.239
_cell_length_c       20.799
_cell_angle_alpha    90
_cell_angle_beta     110.521
_cell_angle_gamma    90

_symmetry_space_group_name_H-M    "P 1"
_symmetry_Int_Tables_number       1

loop_
  _symmetry_equiv_pos_as_xyz
  'x, y, z'

loop_
  _atom_site_type_symbol
  _atom_site_label
  _atom_site_symmetry_multiplicity
  _atom_site_fract_x
  _atom_site_fract_y
  _atom_site_fract_z
  _atom_site_occupancy
  _atom_site_charge
Ni  Ni1       1.0  0.32127  0.74304  0.72921  1.0000 0.5424488577
Ni  Ni2       1.0  0.67873  0.24304  0.77079  1.0000 0.5424488577
Ni  Ni3       1.0  0.67873  0.25696  0.27079  1.0000 0.5424488577
Ni  Ni4       1.0  0.32127  0.75696  0.22921  1.0000 0.5424488577
H   H1        1.0  0.56320  0.39080  0.19170  1.0000 0.1121600426
H   H2        1.0  0.67200  0.85070  0.40990  1.0000 0.1303093675
H   H3        1.0  0.73710  0.36190  0.38590  1.0000 0.1121600426
H   H4        1.0  0.68870  0.55330  0.52750  1.0000 0.1477889322
H   H5        1.0  0.57310  0.55460  0.31210  1.0000 0.1303093675
H   H6        1.0  0.52030  0.50910  0.20480  1.0000 0.1404263006
H   H7        1.0  0.89140  0.88150  0.50510  1.0000 0.1477889322
H   H8        1.0  0.95820  0.50450  0.72000  1.0000 0.1303093675
H   H9        1.0  0.58330  0.49640  0.43360  1.0000 0.1121600426
H   H10       1.0  0.74310  0.53810  0.43040  1.0000 0.1015746276
H   H11       1.0  0.96320  0.67550  0.55640  1.0000 0.1303093675
H   H12       1.0  0.35820  0.32860  0.72840  1.0000 0.1121600426
H   H13       1.0  0.98680  0.38060  0.57040  1.0000 0.1707525272
H   H14       1.0  0.64560  0.62680  0.70680  1.0000 0.1015746276
H   H15       1.0  0.76200  0.55780  0.73000  1.0000 0.1015746276
H   H16       1.0  0.01060  0.65660  0.68620  1.0000 0.1193729083
H   H17       1.0  0.21330  0.77030  0.84740  1.0000 0.1193729083
H   H18       1.0  0.74140  0.64420  0.46300  1.0000 0.1121600426
H   H19       1.0  0.16500  0.44690  0.77630  1.0000 0.1015746276
H   H20       1.0  0.02840  0.38620  0.76990  1.0000 0.1193729083
H   H21       1.0  0.59200  0.23160  0.89640  1.0000 0.1121600426
H   H22       1.0  0.79850  0.66240  0.82380  1.0000 0.1121600426
H   H23       1.0  0.01440  0.73490  0.88910  1.0000 0.1404263006
H   H24       1.0  0.19980  0.35060  0.88090  1.0000 0.1193729083
H   H25       1.0  0.41410  0.27710  0.94410  1.0000 0.1477889322
H   H26       1.0  0.43680  0.89080  0.30830  1.0000 0.1121600426
H   H27       1.0  0.32800  0.35070  0.09010  1.0000 0.1303093675
H   H28       1.0  0.26290  0.86190  0.11410  1.0000 0.1121600426
H   H29       1.0  0.31130  0.05330  0.97250  1.0000 0.1477889322
H   H30       1.0  0.42690  0.05460  0.18790  1.0000 0.1303093675
H   H31       1.0  0.47970  0.00910  0.29520  1.0000 0.1404263006
H   H32       1.0  0.10860  0.38150  0.99490  1.0000 0.1477889322
H   H33       1.0  0.04180  0.00450  0.78000  1.0000 0.1303093675
H   H34       1.0  0.41670  0.99640  0.06640  1.0000 0.1121600426
H   H35       1.0  0.25690  0.03810  0.06960  1.0000 0.1015746276
H   H36       1.0  0.03680  0.17550  0.94360  1.0000 0.1303093675
H   H37       1.0  0.64180  0.82860  0.77160  1.0000 0.1121600426
H   H38       1.0  0.01320  0.88060  0.92960  1.0000 0.1707525272
H   H39       1.0  0.35440  0.12680  0.79320  1.0000 0.1015746276
H   H40       1.0  0.23800  0.05780  0.77000  1.0000 0.1015746276
H   H41       1.0  0.98940  0.15660  0.81380  1.0000 0.1193729083
H   H42       1.0  0.78670  0.27030  0.65260  1.0000 0.1193729083
H   H43       1.0  0.25860  0.14420  0.03700  1.0000 0.1121600426
H   H44       1.0  0.83500  0.94690  0.72370  1.0000 0.1015746276
H   H45       1.0  0.97160  0.88620  0.73010  1.0000 0.1193729083
H   H46       1.0  0.40800  0.73160  0.60360  1.0000 0.1121600426
H   H47       1.0  0.20150  0.16240  0.67620  1.0000 0.1193729083
H   H48       1.0  0.98560  0.23490  0.61090  1.0000 0.1404263006
H   H49       1.0  0.80020  0.85060  0.61910  1.0000 0.1193729083
H   H50       1.0  0.58590  0.77710  0.55590  1.0000 0.1477889322
H   H51       1.0  0.43680  0.60920  0.80830  1.0000 0.1121600426
H   H52       1.0  0.32800  0.14930  0.59010  1.0000 0.1303093675
H   H53       1.0  0.26290  0.63810  0.61410  1.0000 0.1121600426
H   H54       1.0  0.31130  0.44670  0.47250  1.0000 0.1477889322
H   H55       1.0  0.42690  0.44540  0.68790  1.0000 0.1303093675
H   H56       1.0  0.47970  0.49090  0.79520  1.0000 0.1404263006
H   H57       1.0  0.10860  0.11850  0.49490  1.0000 0.1404263006
H   H58       1.0  0.04180  0.49550  0.28000  1.0000 0.1303093675
H   H59       1.0  0.41670  0.50360  0.56640  1.0000 0.1121600426
H   H60       1.0  0.25690  0.46190  0.56960  1.0000 0.1015746276
H   H61       1.0  0.03680  0.32450  0.44360  1.0000 0.1303093675
H   H62       1.0  0.64180  0.67140  0.27160  1.0000 0.1121600426
H   H63       1.0  0.01320  0.61940  0.42960  1.0000 0.1707525272
H   H64       1.0  0.35440  0.37320  0.29320  1.0000 0.1015746276
H   H65       1.0  0.23800  0.44220  0.27000  1.0000 0.1015746276
H   H66       1.0  0.98940  0.34340  0.31380  1.0000 0.1193729083
H   H67       1.0  0.78670  0.22970  0.15260  1.0000 0.1193729083
H   H68       1.0  0.25860  0.35580  0.53700  1.0000 0.1121600426
H   H69       1.0  0.83500  0.55310  0.22370  1.0000 0.1015746276
H   H70       1.0  0.97160  0.61380  0.23010  1.0000 0.1193729083
H   H71       1.0  0.40800  0.76840  0.10360  1.0000 0.1121600426
H   H72       1.0  0.20150  0.33760  0.17620  1.0000 0.1121600426
H   H73       1.0  0.98560  0.26510  0.11090  1.0000 0.1404263006
H   H74       1.0  0.80020  0.64940  0.11910  1.0000 0.1193729083
H   H75       1.0  0.58590  0.72290  0.05590  1.0000 0.1477889322
H   H76       1.0  0.56320  0.10920  0.69170  1.0000 0.1121600426
H   H77       1.0  0.67200  0.64930  0.90990  1.0000 0.1303093675
H   H78       1.0  0.73710  0.13810  0.88590  1.0000 0.1121600426
H   H79       1.0  0.68870  0.94670  0.02750  1.0000 0.1477889322
H   H80       1.0  0.57310  0.94540  0.81210  1.0000 0.1303093675
H   H81       1.0  0.52030  0.99090  0.70480  1.0000 0.1404263006
H   H82       1.0  0.89140  0.61850  0.00510  1.0000 0.1477889322
H   H83       1.0  0.95820  0.99550  0.22000  1.0000 0.1303093675
H   H84       1.0  0.58330  0.00360  0.93360  1.0000 0.1121600426
H   H85       1.0  0.74310  0.96190  0.93040  1.0000 0.1015746276
H   H86       1.0  0.96320  0.82450  0.05640  1.0000 0.1303093675
H   H87       1.0  0.35820  0.17140  0.22840  1.0000 0.1121600426
H   H88       1.0  0.98680  0.11940  0.07040  1.0000 0.1707525272
H   H89       1.0  0.64560  0.87320  0.20680  1.0000 0.1015746276
H   H90       1.0  0.76200  0.94220  0.23000  1.0000 0.1015746276
H   H91       1.0  0.01060  0.84340  0.18620  1.0000 0.1193729083
H   H92       1.0  0.21330  0.72970  0.34740  1.0000 0.1193729083
H   H93       1.0  0.74140  0.85580  0.96300  1.0000 0.1121600426
H   H94       1.0  0.16500  0.05310  0.27630  1.0000 0.1015746276
H   H95       1.0  0.02840  0.11380  0.26990  1.0000 0.1193729083
H   H96       1.0  0.59200  0.26840  0.39640  1.0000 0.1121600426
H   H97       1.0  0.79850  0.83760  0.32380  1.0000 0.1121600426
H   H98       1.0  0.01440  0.76510  0.38910  1.0000 0.1404263006
H   H99       1.0  0.19980  0.14940  0.38090  1.0000 0.1193729083
H   H100      1.0  0.41410  0.22290  0.44410  1.0000 0.1477889322
C   C1        1.0  0.65930  0.46140  0.35890  1.0000 -0.0126481767
C   C2        1.0  0.54920  0.72120  0.36650  1.0000 0.5084099713
C   C3        1.0  0.58960  0.40930  0.23590  1.0000 0.0203572139
C   C4        1.0  0.68450  0.74460  0.42700  1.0000 -0.0767021366
C   C5        1.0  0.73080  0.81430  0.44020  1.0000 -0.1186926672
C   C6        1.0  0.81510  0.53620  0.62680  1.0000 0.2706441003
C   C7        1.0  0.68840  0.39210  0.34820  1.0000 0.0055832276
C   C8        1.0  0.76550  0.52290  0.55930  1.0000 -0.3926646692
C   C9        1.0  0.59490  0.50570  0.30570  1.0000 -0.1073851096
C   C10       1.0  0.94710  0.78180  0.54000  1.0000 -0.0767021366
C   C11       1.0  0.56210  0.47890  0.24300  1.0000 -0.1610776913
C   C12       1.0  0.83120  0.46410  0.53980  1.0000 0.2706441003
C   C13       1.0  0.86110  0.83250  0.49650  1.0000 -0.1073851096
C   C14       1.0  0.92570  0.49430  0.67330  1.0000 -0.3720184383
C   C15       1.0  0.26110  0.34770  0.79840  1.0000 -0.0126481767
C   C16       1.0  0.69000  0.49030  0.42640  1.0000 -0.0442619147
C   C17       1.0  0.90240  0.71180  0.52660  1.0000 -0.1186926672
C   C18       1.0  0.37020  0.31820  0.77370  1.0000 0.0038683626
C   C19       1.0  0.98820  0.43710  0.65050  1.0000 0.2706441003
C   C20       1.0  0.94210  0.42130  0.58490  1.0000 -0.3720184383
C   C21       1.0  0.75150  0.60520  0.70780  1.0000 -0.0483350848
C   C22       1.0  0.88920  0.65150  0.74850  1.0000 -0.0126481767
C   C23       1.0  0.01120  0.67270  0.72870  1.0000 0.0203572139
C   C24       1.0  0.12940  0.73820  0.82180  1.0000 0.0591265205
C   C25       1.0  0.08290  0.80050  0.60210  1.0000 0.5084099713
C   C26       1.0  0.77210  0.69320  0.47120  1.0000 -0.1288056887
C   C27       1.0  0.13130  0.39720  0.76100  1.0000 -0.0483350848
C   C28       1.0  0.50480  0.26200  0.87020  1.0000 0.053258323
C   C29       1.0  0.88590  0.67560  0.80860  1.0000 -0.1073851096
C   C30       1.0  0.01060  0.71860  0.84620  1.0000 -0.1500545784
C   C31       1.0  0.27620  0.33160  0.86210  1.0000 -0.1186926672
C   C32       1.0  0.40060  0.28850  0.89890  1.0000 -0.1500545784
C   C33       1.0  0.34070  0.96140  0.14110  1.0000 -0.0126481767
C   C34       1.0  0.45080  0.22120  0.13350  1.0000 0.5084099713
C   C35       1.0  0.41040  0.90930  0.26410  1.0000 0.0203572139
C   C36       1.0  0.31550  0.24460  0.07300  1.0000 -0.0767021366
C   C37       1.0  0.26920  0.31430  0.05980  1.0000 -0.1186926672
C   C38       1.0  0.18490  0.03620  0.87320  1.0000 0.2706441003
C   C39       1.0  0.31160  0.89210  0.15180  1.0000 0.0038683626
C   C40       1.0  0.23450  0.02290  0.94070  1.0000 -0.3926646692
C   C41       1.0  0.40510  0.00570  0.19430  1.0000 -0.1073851096
C   C42       1.0  0.05290  0.28180  0.96000  1.0000 -0.0767021366
C   C43       1.0  0.43790  0.97890  0.25700  1.0000 -0.1610776913
C   C44       1.0  0.16880  0.96410  0.96020  1.0000 0.2706441003
C   C45       1.0  0.13890  0.33250  0.00350  1.0000 -0.1073851096
C   C46       1.0  0.07430  0.99430  0.82670  1.0000 -0.3759231822
C   C47       1.0  0.73890  0.84770  0.70160  1.0000 -0.0126481767
C   C48       1.0  0.31000  0.99030  0.07360  1.0000 -0.0442619147
C   C49       1.0  0.09760  0.21180  0.97340  1.0000 -0.1288056887
C   C50       1.0  0.62980  0.81820  0.72630  1.0000 0.0038683626
C   C51       1.0  0.01180  0.93710  0.84950  1.0000 0.2706441003
C   C52       1.0  0.05790  0.92130  0.91510  1.0000 -0.3720184383
C   C53       1.0  0.24850  0.10520  0.79220  1.0000 -0.0483350848
C   C54       1.0  0.11080  0.15150  0.75150  1.0000 -0.0126481767
C   C55       1.0  0.98880  0.17270  0.77130  1.0000 0.0203572139
C   C56       1.0  0.87060  0.23820  0.67820  1.0000 0.0591265205
C   C57       1.0  0.91710  0.30050  0.89790  1.0000 0.5084099713
C   C58       1.0  0.22790  0.19320  0.02880  1.0000 -0.1288056887
C   C59       1.0  0.86870  0.89720  0.73900  1.0000 -0.0483350848
C   C60       1.0  0.49520  0.76200  0.62980  1.0000 0.053258323
C   C61       1.0  0.11410  0.17560  0.69140  1.0000 -0.1073851096
C   C62       1.0  0.98940  0.21860  0.65380  1.0000 -0.1500545784
C   C63       1.0  0.72380  0.83160  0.63790  1.0000 -0.1186926672
C   C64       1.0  0.59940  0.78850  0.60110  1.0000 -0.1500545784
C   C65       1.0  0.34070  0.53860  0.64110  1.0000 -0.0126481767
C   C66       1.0  0.45080  0.27880  0.63350  1.0000 0.5084099713
C   C67       1.0  0.41040  0.59070  0.76410  1.0000 0.0203572139
C   C68       1.0  0.31550  0.25540  0.57300  1.0000 -0.0767021366
C   C69       1.0  0.26920  0.18570  0.55980  1.0000 -0.1186926672
C   C70       1.0  0.18490  0.46380  0.37320  1.0000 0.2706441003
C   C71       1.0  0.31160  0.60790  0.65180  1.0000 0.0055832276
C   C72       1.0  0.23450  0.47710  0.44070  1.0000 -0.3926646692
C   C73       1.0  0.40510  0.49430  0.69430  1.0000 -0.1073851096
C   C74       1.0  0.05290  0.21820  0.46000  1.0000 -0.0767021366
C   C75       1.0  0.43790  0.52110  0.75700  1.0000 -0.1610776913
C   C76       1.0  0.16880  0.53590  0.46020  1.0000 0.2706441003
C   C77       1.0  0.13890  0.16750  0.50350  1.0000 -0.1073851096
C   C78       1.0  0.07430  0.50570  0.32670  1.0000 -0.3759231822
C   C79       1.0  0.73890  0.65230  0.20160  1.0000 -0.0126481767
C   C80       1.0  0.31000  0.50970  0.57360  1.0000 -0.0442619147
C   C81       1.0  0.09760  0.28820  0.47340  1.0000 -0.1186926672
C   C82       1.0  0.62980  0.68180  0.22630  1.0000 0.0038683626
C   C83       1.0  0.01180  0.56290  0.34950  1.0000 0.2706441003
C   C84       1.0  0.05790  0.57870  0.41510  1.0000 -0.3720184383
C   C85       1.0  0.24850  0.39480  0.29220  1.0000 -0.0483350848
C   C86       1.0  0.11080  0.34850  0.25150  1.0000 -0.0126481767
C   C87       1.0  0.98880  0.32730  0.27130  1.0000 0.0203572139
C   C88       1.0  0.87060  0.26180  0.17820  1.0000 0.0591265205
C   C89       1.0  0.91710  0.19950  0.39790  1.0000 0.5084099713
C   C90       1.0  0.22790  0.30680  0.52880  1.0000 -0.1288056887
C   C91       1.0  0.86870  0.60280  0.23900  1.0000 -0.0483350848
C   C92       1.0  0.49520  0.73800  0.12980  1.0000 0.053258323
C   C93       1.0  0.11410  0.32440  0.19140  1.0000 -0.1073851096
C   C94       1.0  0.98940  0.28140  0.15380  1.0000 -0.1500545784
C   C95       1.0  0.72380  0.66840  0.13790  1.0000 -0.1186926672
C   C96       1.0  0.59940  0.71150  0.10110  1.0000 -0.1500545784
C   C97       1.0  0.65930  0.03860  0.85890  1.0000 -0.0126481767
C   C98       1.0  0.54920  0.77880  0.86650  1.0000 0.5084099713
C   C99       1.0  0.58960  0.09070  0.73590  1.0000 0.0203572139
C   C100      1.0  0.68450  0.75540  0.92700  1.0000 -0.0767021366
C   C101      1.0  0.73080  0.68570  0.94020  1.0000 -0.1186926672
C   C102      1.0  0.81510  0.96380  0.12680  1.0000 0.2706441003
C   C103      1.0  0.68840  0.10790  0.84820  1.0000 0.0055832276
C   C104      1.0  0.76550  0.97710  0.05930  1.0000 -0.3926646692
C   C105      1.0  0.59490  0.99430  0.80570  1.0000 -0.1073851096
C   C106      1.0  0.94710  0.71820  0.04000  1.0000 -0.0767021366
C   C107      1.0  0.56210  0.02110  0.74300  1.0000 -0.1610776913
C   C108      1.0  0.83120  0.03590  0.03980  1.0000 0.2706441003
C   C109      1.0  0.86110  0.66750  0.99650  1.0000 -0.1073851096
C   C110      1.0  0.92570  0.00570  0.17330  1.0000 -0.3759231822
C   C111      1.0  0.26110  0.15230  0.29840  1.0000 -0.0126481767
C   C112      1.0  0.69000  0.00970  0.92640  1.0000 -0.0442619147
C   C113      1.0  0.90240  0.78820  0.02660  1.0000 -0.1186926672
C   C114      1.0  0.37020  0.18180  0.27370  1.0000 0.0038683626
C   C115      1.0  0.98820  0.06290  0.15050  1.0000 0.2706441003
C   C116      1.0  0.94210  0.07870  0.08490  1.0000 -0.3720184383
C   C117      1.0  0.75150  0.89480  0.20780  1.0000 -0.0483350848
C   C118      1.0  0.88920  0.84850  0.24850  1.0000 -0.0126481767
C   C119      1.0  0.01120  0.82730  0.22870  1.0000 0.0203572139
C   C120      1.0  0.12940  0.76180  0.32180  1.0000 0.0591265205
C   C121      1.0  0.08290  0.69950  0.10210  1.0000 0.5084099713
C   C122      1.0  0.77210  0.80680  0.97120  1.0000 -0.1288056887
C   C123      1.0  0.13130  0.10280  0.26100  1.0000 -0.0483350848
C   C124      1.0  0.50480  0.23800  0.37020  1.0000 0.053258323
C   C125      1.0  0.88590  0.82440  0.30860  1.0000 -0.1073851096
C   C126      1.0  0.01060  0.78140  0.34620  1.0000 -0.1500545784
C   C127      1.0  0.27620  0.16840  0.36210  1.0000 -0.1186926672
C   C128      1.0  0.40060  0.21150  0.39890  1.0000 -0.1500545784
N   N1        1.0  0.65188  0.36460  0.28738  1.0000 -0.1983461623
N   N2        1.0  0.13400  0.71490  0.76440  1.0000 -0.1983461623
N   N3        1.0  0.49330  0.27560  0.80860  1.0000 -0.1983461623
N   N4        1.0  0.34812  0.86460  0.21262  1.0000 -0.1983461623
N   N5        1.0  0.86600  0.21490  0.73560  1.0000 -0.1983461623
N   N6        1.0  0.50670  0.77560  0.69140  1.0000 -0.1983461623
N   N7        1.0  0.34812  0.63540  0.71262  1.0000 -0.1983461623
N   N8        1.0  0.86600  0.28510  0.23560  1.0000 -0.1983461623
N   N9        1.0  0.50670  0.72440  0.19140  1.0000 -0.1983461623
N   N10       1.0  0.65188  0.13540  0.78738  1.0000 -0.1983461623
N   N11       1.0  0.13400  0.78510  0.26440  1.0000 -0.1983461623
N   N12       1.0  0.49330  0.22440  0.30860  1.0000 -0.1983461623
O   O1        1.0  0.49262  0.76735  0.32162  1.0000 -0.4753051755
O   O2        1.0  0.74495  0.59500  0.64195  1.0000 -0.1394280897
O   O3        1.0  0.15449  0.74886  0.63689  1.0000 -0.4703589198
O   O4        1.0  0.79169  0.44460  0.47499  1.0000 -0.1394280897
O   O5        1.0  0.50487  0.65950  0.36227  1.0000 -0.464627212
O   O6        1.0  0.10100  0.39200  0.69230  1.0000 -0.1500545784
O   O7        1.0  0.11650  0.86230  0.61520  1.0000 -0.4453782496
O   O8        1.0  0.50738  0.26735  0.17838  1.0000 -0.4753051755
O   O9        1.0  0.25505  0.09500  0.85805  1.0000 -0.1394280897
O   O10       1.0  0.84551  0.24886  0.86311  1.0000 -0.4703589198
O   O11       1.0  0.20831  0.94460  0.02501  1.0000 -0.1394280897
O   O12       1.0  0.49513  0.15950  0.13773  1.0000 -0.464627212
O   O13       1.0  0.89900  0.89200  0.80770  1.0000 -0.1500545784
O   O14       1.0  0.88350  0.36230  0.88480  1.0000 -0.4453782496
O   O15       1.0  0.50738  0.23265  0.67838  1.0000 -0.4753051755
O   O16       1.0  0.25505  0.40500  0.35805  1.0000 -0.1394280897
O   O17       1.0  0.84551  0.25114  0.36311  1.0000 -0.4703589198
O   O18       1.0  0.20831  0.55540  0.52501  1.0000 -0.1288056887
O   O19       1.0  0.49513  0.34050  0.63773  1.0000 -0.4703589198
O   O20       1.0  0.89900  0.60800  0.30770  1.0000 -0.1500545784
O   O21       1.0  0.88350  0.13770  0.38480  1.0000 -0.4453782496
O   O22       1.0  0.49262  0.73265  0.82162  1.0000 -0.4753051755
O   O23       1.0  0.74495  0.90500  0.14195  1.0000 -0.1394280897
O   O24       1.0  0.15449  0.75114  0.13689  1.0000 -0.4703589198
O   O25       1.0  0.79169  0.05540  0.97499  1.0000 -0.1288056887
O   O26       1.0  0.50487  0.84050  0.86227  1.0000 -0.464627212
O   O27       1.0  0.10100  0.10800  0.19230  1.0000 -0.1500545784
O   O28       1.0  0.11650  0.63770  0.11520  1.0000 -0.4453782496
