# DDEC6 charges by PACMAN v1.1 (https://github.com/mtap-research/PACMAN-charge/)
data_2019[Cu][sql]2[ASR]14
_chemical_formula_sum              "Cu4 H128 C200 O24"
_cell_length_a       16.6272
_cell_length_b       20.0062
_cell_length_c       20.7656
_cell_angle_alpha    110.938
_cell_angle_beta     106.381
_cell_angle_gamma    102.628

_symmetry_space_group_name_H-M    "P 1"
_symmetry_Int_Tables_number       1

loop_
  _symmetry_equiv_pos_as_xyz
  'x, y, z'

loop_
  _atom_site_type_symbol
  _atom_site_label
  _atom_site_symmetry_multiplicity
  _atom_site_fract_x
  _atom_site_fract_y
  _atom_site_fract_z
  _atom_site_occupancy
  _atom_site_charge
Cu  Cu1       1.0  0.36483  0.78814  0.79585  1.0000 0.7933949469
Cu  Cu2       1.0  0.23356  0.80892  0.71031  1.0000 0.8385765789
Cu  Cu3       1.0  0.63517  0.21186  0.20415  1.0000 0.7933949469
Cu  Cu4       1.0  0.76644  0.19108  0.28969  1.0000 0.8385765789
H   H1        1.0  0.41300  0.96680  0.01210  1.0000 0.12792612
H   H2        1.0  0.88350  0.45970  0.83870  1.0000 0.1109828241
H   H3        1.0  0.67950  0.25170  0.81610  1.0000 0.1109828241
H   H4        1.0  0.18070  0.38180  0.36500  1.0000 0.1109828241
H   H5        1.0  0.28430  0.39810  0.39710  1.0000 0.1030123654
H   H6        1.0  0.45880  0.41910  0.48670  1.0000 0.1109828241
H   H7        1.0  0.05210  0.20800  0.94310  1.0000 0.1109828241
H   H8        1.0  0.19990  0.98550  0.88020  1.0000 0.1109828241
H   H9        1.0  0.04980  0.06170  0.06880  1.0000 0.1109828241
H   H10       1.0  0.57430  0.90820  0.74810  1.0000 0.1109828241
H   H11       1.0  0.92080  0.50610  0.66950  1.0000 0.1199847995
H   H12       1.0  0.51550  0.22740  0.42950  1.0000 0.1109828241
H   H13       1.0  0.84490  0.07890  0.70590  1.0000 0.1030123654
H   H14       1.0  0.22450  0.59640  0.80990  1.0000 0.1199847995
H   H15       1.0  0.13360  0.47940  0.79160  1.0000 0.1199847995
H   H16       1.0  0.05180  0.28950  0.73240  1.0000 0.1109828241
H   H17       1.0  0.55030  0.26680  0.72500  1.0000 0.1199847995
H   H18       1.0  0.65440  0.60370  0.34140  1.0000 0.1109828241
H   H19       1.0  0.58630  0.37990  0.21000  1.0000 0.12792612
H   H20       1.0  0.70870  0.31820  0.95780  1.0000 0.12792612
H   H21       1.0  0.20100  0.07990  0.98320  1.0000 0.1109828241
H   H22       1.0  0.63970  0.13950  0.68080  1.0000 0.1030123654
H   H23       1.0  0.68020  0.07580  0.65220  1.0000 0.1109828241
H   H24       1.0  0.97070  0.04820  0.78380  1.0000 0.1199847995
H   H25       1.0  0.49030  0.32210  0.51430  1.0000 0.1109828241
H   H26       1.0  0.99500  0.24040  0.25020  1.0000 0.12792612
H   H27       1.0  0.92220  0.53030  0.98370  1.0000 0.1199847995
H   H28       1.0  0.50110  0.09400  0.68920  1.0000 0.1199847995
H   H29       1.0  0.39800  0.00960  0.70380  1.0000 0.12792612
H   H30       1.0  0.61380  0.43460  0.66340  1.0000 0.1109828241
H   H31       1.0  0.94110  0.36760  0.00240  1.0000 0.1030123654
H   H32       1.0  0.89150  0.52880  0.08440  1.0000 0.1109828241
H   H33       1.0  0.78730  0.42380  0.07210  1.0000 0.1109828241
H   H34       1.0  0.67230  0.50730  0.25080  1.0000 0.1199847995
H   H35       1.0  0.97450  0.28340  0.91220  1.0000 0.1030123654
H   H36       1.0  0.01230  0.23040  0.58890  1.0000 0.1199847995
H   H37       1.0  0.97590  0.02570  0.13670  1.0000 0.1030123654
H   H38       1.0  0.50710  0.33460  0.65610  1.0000 0.1109828241
H   H39       1.0  0.17940  0.26590  0.81590  1.0000 0.12792612
H   H40       1.0  0.94810  0.11550  0.22660  1.0000 0.1199847995
H   H41       1.0  0.12120  0.08180  0.85580  1.0000 0.1109828241
H   H42       1.0  0.29020  0.55340  0.62400  1.0000 0.1199847995
H   H43       1.0  0.22520  0.18730  0.86860  1.0000 0.1199847995
H   H44       1.0  0.81780  0.02430  0.45680  1.0000 0.1199847995
H   H45       1.0  0.50600  0.22450  0.31500  1.0000 0.1199847995
H   H46       1.0  0.07970  0.34830  0.22160  1.0000 0.1109828241
H   H47       1.0  0.26940  0.66760  0.50030  1.0000 0.12792612
H   H48       1.0  0.46900  0.28150  0.22130  1.0000 0.1199847995
H   H49       1.0  0.42200  0.47280  0.38930  1.0000 0.1030123654
H   H50       1.0  0.25170  0.56120  0.39780  1.0000 0.1199847995
H   H51       1.0  0.35910  0.15960  0.17170  1.0000 0.1109828241
H   H52       1.0  0.25350  0.12730  0.13620  1.0000 0.1030123654
H   H53       1.0  0.13060  0.17010  0.04410  1.0000 0.1030123654
H   H54       1.0  0.41400  0.06350  0.11560  1.0000 0.1199847995
H   H55       1.0  0.67300  0.98540  0.72300  1.0000 0.1199847995
H   H56       1.0  0.26300  0.44520  0.52060  1.0000 0.1109828241
H   H57       1.0  0.95940  0.36360  0.67550  1.0000 0.1109828241
H   H58       1.0  0.89620  0.40380  0.70370  1.0000 0.1109828241
H   H59       1.0  0.79530  0.01930  0.56300  1.0000 0.1199847995
H   H60       1.0  0.55100  0.57550  0.39080  1.0000 0.1109828241
H   H61       1.0  0.76010  0.47600  0.74300  1.0000 0.1199847995
H   H62       1.0  0.01380  0.61920  0.68170  1.0000 0.1199847995
H   H63       1.0  0.99260  0.38440  0.12220  1.0000 0.1199847995
H   H64       1.0  0.91890  0.12960  0.47050  1.0000 0.1199847995
H   H65       1.0  0.58700  0.03320  0.98790  1.0000 0.12792612
H   H66       1.0  0.11650  0.54030  0.16130  1.0000 0.1109828241
H   H67       1.0  0.32050  0.74830  0.18390  1.0000 0.1109828241
H   H68       1.0  0.81930  0.61820  0.63500  1.0000 0.1109828241
H   H69       1.0  0.71570  0.60190  0.60290  1.0000 0.1030123654
H   H70       1.0  0.54120  0.58090  0.51330  1.0000 0.1109828241
H   H71       1.0  0.94790  0.79200  0.05690  1.0000 0.1109828241
H   H72       1.0  0.80010  0.01450  0.11980  1.0000 0.1109828241
H   H73       1.0  0.95020  0.93830  0.93120  1.0000 0.1109828241
H   H74       1.0  0.42570  0.09180  0.25190  1.0000 0.1109828241
H   H75       1.0  0.07920  0.49390  0.33050  1.0000 0.1199847995
H   H76       1.0  0.48450  0.77260  0.57050  1.0000 0.1109828241
H   H77       1.0  0.15510  0.92110  0.29410  1.0000 0.1030123654
H   H78       1.0  0.77550  0.40360  0.19010  1.0000 0.1199847995
H   H79       1.0  0.86640  0.52060  0.20840  1.0000 0.1199847995
H   H80       1.0  0.94820  0.71050  0.26760  1.0000 0.1109828241
H   H81       1.0  0.44970  0.73320  0.27500  1.0000 0.1199847995
H   H82       1.0  0.34560  0.39630  0.65860  1.0000 0.1109828241
H   H83       1.0  0.41370  0.62010  0.79000  1.0000 0.12792612
H   H84       1.0  0.29130  0.68180  0.04220  1.0000 0.12792612
H   H85       1.0  0.79900  0.92010  0.01680  1.0000 0.1109828241
H   H86       1.0  0.36030  0.86050  0.31920  1.0000 0.1030123654
H   H87       1.0  0.31980  0.92420  0.34780  1.0000 0.1109828241
H   H88       1.0  0.02930  0.95180  0.21620  1.0000 0.1199847995
H   H89       1.0  0.50970  0.67790  0.48570  1.0000 0.1109828241
H   H90       1.0  0.00500  0.75960  0.74980  1.0000 0.12792612
H   H91       1.0  0.07780  0.46970  0.01630  1.0000 0.1199847995
H   H92       1.0  0.49890  0.90600  0.31080  1.0000 0.1199847995
H   H93       1.0  0.60200  0.99040  0.29620  1.0000 0.12792612
H   H94       1.0  0.38620  0.56540  0.33660  1.0000 0.1109828241
H   H95       1.0  0.05890  0.63240  0.99760  1.0000 0.1030123654
H   H96       1.0  0.10850  0.47120  0.91560  1.0000 0.1109828241
H   H97       1.0  0.21270  0.57620  0.92790  1.0000 0.1109828241
H   H98       1.0  0.32770  0.49270  0.74920  1.0000 0.1199847995
H   H99       1.0  0.02550  0.71660  0.08780  1.0000 0.1030123654
H   H100      1.0  0.98770  0.76960  0.41110  1.0000 0.12792612
H   H101      1.0  0.02410  0.97430  0.86330  1.0000 0.1030123654
H   H102      1.0  0.49290  0.66540  0.34390  1.0000 0.1109828241
H   H103      1.0  0.82060  0.73410  0.18410  1.0000 0.12792612
H   H104      1.0  0.05190  0.88450  0.77340  1.0000 0.1199847995
H   H105      1.0  0.87880  0.91820  0.14420  1.0000 0.1109828241
H   H106      1.0  0.70980  0.44660  0.37600  1.0000 0.1199847995
H   H107      1.0  0.77480  0.81270  0.13140  1.0000 0.1199847995
H   H108      1.0  0.18220  0.97570  0.54320  1.0000 0.1199847995
H   H109      1.0  0.49400  0.77550  0.68500  1.0000 0.1199847995
H   H110      1.0  0.92030  0.65170  0.77840  1.0000 0.1109828241
H   H111      1.0  0.73060  0.33240  0.49970  1.0000 0.12792612
H   H112      1.0  0.53100  0.71850  0.77870  1.0000 0.1199847995
H   H113      1.0  0.57800  0.52720  0.61070  1.0000 0.1030123654
H   H114      1.0  0.74830  0.43880  0.60220  1.0000 0.1199847995
H   H115      1.0  0.64090  0.84040  0.82830  1.0000 0.1109828241
H   H116      1.0  0.74650  0.87270  0.86380  1.0000 0.1030123654
H   H117      1.0  0.86940  0.82990  0.95590  1.0000 0.1030123654
H   H118      1.0  0.58600  0.93650  0.88440  1.0000 0.1199847995
H   H119      1.0  0.32700  0.01460  0.27700  1.0000 0.1199847995
H   H120      1.0  0.73700  0.55480  0.47940  1.0000 0.1109828241
H   H121      1.0  0.04060  0.63640  0.32450  1.0000 0.1109828241
H   H122      1.0  0.10380  0.59620  0.29630  1.0000 0.1109828241
H   H123      1.0  0.20470  0.98070  0.43700  1.0000 0.1199847995
H   H124      1.0  0.44900  0.42450  0.60920  1.0000 0.1109828241
H   H125      1.0  0.23990  0.52400  0.25700  1.0000 0.1199847995
H   H126      1.0  0.98620  0.38080  0.31830  1.0000 0.1199847995
H   H127      1.0  0.00740  0.61560  0.87780  1.0000 0.1199847995
H   H128      1.0  0.08110  0.87040  0.52950  1.0000 0.1199847995
C   C1        1.0  0.80430  0.20670  0.76920  1.0000 0.1350088952
C   C2        1.0  0.68210  0.33270  0.77360  1.0000 0.039056289
C   C3        1.0  0.37000  0.98958  0.00599  1.0000 -0.0887654404
C   C4        1.0  0.50490  0.46200  0.32845  1.0000 0.039056289
C   C5        1.0  0.83930  0.41484  0.83385  1.0000 -0.080257632
C   C6        1.0  0.18980  0.69183  0.75650  1.0000 0.5708342431
C   C7        1.0  0.72380  0.29670  0.82117  1.0000 -0.0887654404
C   C8        1.0  0.23950  0.41942  0.38181  1.0000 -0.080257632
C   C9        1.0  0.47390  0.31901  0.33268  1.0000 0.0451404726
C   C10       1.0  0.01780  0.48090  0.72830  1.0000 0.1030123654
C   C11       1.0  0.46720  0.37950  0.45200  1.0000 -0.1673543912
C   C12       1.0  0.04100  0.24380  0.97940  1.0000 -0.1483594278
C   C13       1.0  0.24300  0.00060  0.92740  1.0000 -0.1003813749
C   C14       1.0  0.03920  0.09790  0.10500  1.0000 -0.1483594278
C   C15       1.0  0.55850  0.94430  0.73420  1.0000 -0.1117030175
C   C16       1.0  0.95700  0.18370  0.64640  1.0000 0.039056289
C   C17       1.0  0.98240  0.52331  0.69660  1.0000 -0.1673543912
C   C18       1.0  0.50140  0.26530  0.41780  1.0000 -0.1003813749
C   C19       1.0  0.88950  0.12410  0.71170  1.0000 -0.0887654404
C   C20       1.0  0.04870  0.20260  0.76770  1.0000 0.039056289
C   C21       1.0  0.16350  0.57770  0.78022  1.0000 -0.1117030175
C   C22       1.0  0.10880  0.50760  0.77020  1.0000 -0.1483594278
C   C23       1.0  0.00740  0.24430  0.72680  1.0000 -0.0887654404
C   C24       1.0  0.59250  0.30830  0.72830  1.0000 -0.1585643092
C   C25       1.0  0.61950  0.55290  0.32460  1.0000 -0.1117030175
C   C26       1.0  0.57930  0.41920  0.24630  1.0000 -0.1298985803
C   C27       1.0  0.75140  0.36040  0.96250  1.0000 -0.1483594278
C   C28       1.0  0.29310  0.69164  0.63980  1.0000 0.5604911088
C   C29       1.0  0.98710  0.13820  0.76020  1.0000 0.039056289
C   C30       1.0  0.24420  0.05740  0.98940  1.0000 -0.1483594278
C   C31       1.0  0.66410  0.10350  0.69260  1.0000 -0.0887654404
C   C32       1.0  0.01310  0.09210  0.79110  1.0000 -0.1483594278
C   C33       1.0  0.48700  0.32190  0.46880  1.0000 -0.1117030175
C   C34       1.0  0.00580  0.20480  0.21360  1.0000 -0.1298985803
C   C35       1.0  0.87940  0.48760  0.97800  1.0000 -0.1483594278
C   C36       1.0  0.51550  0.05530  0.69900  1.0000 -0.1585643092
C   C37       1.0  0.45400  0.00560  0.70920  1.0000 -0.1003813749
C   C38       1.0  0.63060  0.40960  0.69220  1.0000 -0.1117030175
C   C39       1.0  0.89330  0.11960  0.63710  1.0000 0.039056289
C   C40       1.0  0.97500  0.33960  0.01540  1.0000 -0.1003813749
C   C41       1.0  0.86090  0.48630  0.03770  1.0000 -0.1174343624
C   C42       1.0  0.79800  0.42330  0.03040  1.0000 -0.1117030175
C   C43       1.0  0.63070  0.49540  0.27070  1.0000 -0.1117030175
C   C44       1.0  0.99360  0.28800  0.96080  1.0000 -0.1117030175
C   C45       1.0  0.96910  0.18830  0.58380  1.0000 -0.1673543912
C   C46       1.0  0.99490  0.07660  0.14560  1.0000 -0.1298985803
C   C47       1.0  0.56700  0.34910  0.68680  1.0000 -0.1174343624
C   C48       1.0  0.13720  0.22210  0.80900  1.0000 -0.1483594278
C   C49       1.0  0.97830  0.13070  0.19990  1.0000 -0.1003813749
C   C50       1.0  0.10290  0.11160  0.83320  1.0000 -0.1298985803
C   C51       1.0  0.28010  0.55440  0.57800  1.0000 -0.0887654404
C   C52       1.0  0.16460  0.17490  0.84150  1.0000 -0.1003813749
C   C53       1.0  0.85200  0.06480  0.50440  1.0000 -0.1174343624
C   C54       1.0  0.25280  0.49095  0.44705  1.0000 0.0764919738
C   C55       1.0  0.49560  0.26300  0.34910  1.0000 -0.1383813457
C   C56       1.0  0.09100  0.30980  0.18369  1.0000 -0.080257632
C   C57       1.0  0.26900  0.62290  0.50462  1.0000 -0.1003813749
C   C58       1.0  0.30350  0.90281  0.86770  1.0000 0.5708342431
C   C59       1.0  0.79670  0.27790  0.79749  1.0000 -0.0523987753
C   C60       1.0  0.12960  0.61894  0.74768  1.0000 -0.0225588547
C   C61       1.0  0.45880  0.32266  0.25741  1.0000 -0.080257632
C   C62       1.0  0.74440  0.39550  0.77990  1.0000 0.039056289
C   C63       1.0  0.04990  0.22820  0.17360  1.0000 0.039056289
C   C64       1.0  0.41000  0.89570  0.74008  1.0000 0.5708342431
C   C65       1.0  0.20770  0.26792  0.15057  1.0000 -0.041662579
C   C66       1.0  0.85940  0.34065  0.80393  1.0000 -0.0523987753
C   C67       1.0  0.26170  0.37945  0.26943  1.0000 0.1199847995
C   C68       1.0  0.92800  0.33350  0.78053  1.0000 0.12792612
C   C69       1.0  0.36280  0.32072  0.23084  1.0000 -0.041662579
C   C70       1.0  0.29090  0.26573  0.16382  1.0000 0.1199847995
C   C71       1.0  0.30620  0.96543  0.93520  1.0000 -0.0225588547
C   C72       1.0  0.46020  0.37731  0.38350  1.0000 0.039056289
C   C73       1.0  0.19100  0.32323  0.20377  1.0000 -0.041662579
C   C74       1.0  0.34880  0.37830  0.28145  1.0000 -0.041662579
C   C75       1.0  0.43280  0.43198  0.35345  1.0000 -0.1003813749
C   C76       1.0  0.51800  0.40280  0.27636  1.0000 0.0451404726
C   C77       1.0  0.25700  0.55870  0.44260  1.0000 -0.1585643092
C   C78       1.0  0.30650  0.14486  0.12722  1.0000 -0.080257632
C   C79       1.0  0.93780  0.26190  0.75370  1.0000 -0.0626948705
C   C80       1.0  0.11970  0.20820  0.08275  1.0000 -0.080257632
C   C81       1.0  0.37060  0.04773  0.06826  1.0000 -0.1483594278
C   C82       1.0  0.28020  0.62240  0.57207  1.0000 -0.0225588547
C   C83       1.0  0.30700  0.08240  0.06051  1.0000 0.0929084359
C   C84       1.0  0.07180  0.25410  0.05360  1.0000 0.039056289
C   C85       1.0  0.61860  0.99160  0.72050  1.0000 -0.1483594278
C   C86       1.0  0.87380  0.19830  0.74725  1.0000 -0.0626948705
C   C87       1.0  0.26510  0.49030  0.51660  1.0000 -0.1585643092
C   C88       1.0  0.06730  0.17340  0.11900  1.0000 0.039056289
C   C89       1.0  0.95760  0.40540  0.71650  1.0000 -0.080257632
C   C90       1.0  0.76840  0.36010  0.90070  1.0000 0.039056289
C   C91       1.0  0.59740  0.04930  0.70290  1.0000 0.0764919738
C   C92       1.0  0.83940  0.06090  0.56830  1.0000 -0.1585643092
C   C93       1.0  0.55730  0.53620  0.35390  1.0000 -0.1585643092
C   C94       1.0  0.05490  0.30750  0.10745  1.0000 0.039056289
C   C95       1.0  0.47580  0.94970  0.72763  1.0000 -0.0225588547
C   C96       1.0  0.83240  0.42320  0.90800  1.0000 0.039056289
C   C97       1.0  0.71810  0.43380  0.73880  1.0000 -0.1383813457
C   C98       1.0  0.03790  0.59180  0.70480  1.0000 -0.1117030175
C   C99       1.0  0.00520  0.34930  0.08650  1.0000 -0.1383813457
C   C100      1.0  0.91330  0.12700  0.51290  1.0000 -0.1117030175
C   C101      1.0  0.19570  0.79330  0.23080  1.0000 0.1350088952
C   C102      1.0  0.31790  0.66730  0.22640  1.0000 0.039056289
C   C103      1.0  0.63000  0.01042  0.99401  1.0000 -0.0887654404
C   C104      1.0  0.49510  0.53800  0.67155  1.0000 0.039056289
C   C105      1.0  0.16070  0.58516  0.16615  1.0000 -0.080257632
C   C106      1.0  0.81020  0.30817  0.24350  1.0000 0.5708342431
C   C107      1.0  0.27620  0.70330  0.17883  1.0000 -0.0887654404
C   C108      1.0  0.76050  0.58058  0.61819  1.0000 -0.080257632
C   C109      1.0  0.52610  0.68099  0.66732  1.0000 0.039056289
C   C110      1.0  0.98220  0.51910  0.27170  1.0000 0.1030123654
C   C111      1.0  0.53280  0.62050  0.54800  1.0000 -0.1673543912
C   C112      1.0  0.95900  0.75620  0.02060  1.0000 -0.1483594278
C   C113      1.0  0.75700  0.99940  0.07260  1.0000 -0.1003813749
C   C114      1.0  0.96080  0.90210  0.89500  1.0000 -0.1483594278
C   C115      1.0  0.44150  0.05570  0.26580  1.0000 -0.1117030175
C   C116      1.0  0.04300  0.81630  0.35360  1.0000 0.039056289
C   C117      1.0  0.01760  0.47669  0.30340  1.0000 -0.1673543912
C   C118      1.0  0.49860  0.73470  0.58220  1.0000 -0.1003813749
C   C119      1.0  0.11050  0.87590  0.28830  1.0000 -0.080257632
C   C120      1.0  0.95130  0.79740  0.23230  1.0000 0.039056289
C   C121      1.0  0.83650  0.42230  0.21978  1.0000 -0.1117030175
C   C122      1.0  0.89120  0.49240  0.22980  1.0000 -0.1483594278
C   C123      1.0  0.99260  0.75570  0.27320  1.0000 -0.0887654404
C   C124      1.0  0.40750  0.69170  0.27170  1.0000 -0.1585643092
C   C125      1.0  0.38050  0.44710  0.67540  1.0000 -0.1117030175
C   C126      1.0  0.42070  0.58080  0.75370  1.0000 -0.1298985803
C   C127      1.0  0.24860  0.63960  0.03750  1.0000 -0.1483594278
C   C128      1.0  0.70690  0.30836  0.36020  1.0000 0.5604911088
C   C129      1.0  0.01290  0.86180  0.23980  1.0000 0.039056289
C   C130      1.0  0.75580  0.94260  0.01060  1.0000 -0.1483594278
C   C131      1.0  0.33590  0.89650  0.30740  1.0000 -0.0887654404
C   C132      1.0  0.98690  0.90790  0.20890  1.0000 -0.1483594278
C   C133      1.0  0.51300  0.67810  0.53120  1.0000 -0.1117030175
C   C134      1.0  0.99420  0.79520  0.78640  1.0000 -0.1298985803
C   C135      1.0  0.12060  0.51240  0.02200  1.0000 -0.1483594278
C   C136      1.0  0.48450  0.94470  0.30100  1.0000 -0.1585643092
C   C137      1.0  0.54600  0.99440  0.29080  1.0000 -0.1003813749
C   C138      1.0  0.36940  0.59040  0.30780  1.0000 -0.1117030175
C   C139      1.0  0.10670  0.88040  0.36290  1.0000 0.039056289
C   C140      1.0  0.02500  0.66040  0.98460  1.0000 -0.1003813749
C   C141      1.0  0.13910  0.51370  0.96230  1.0000 -0.1174343624
C   C142      1.0  0.20200  0.57670  0.96960  1.0000 -0.1117030175
C   C143      1.0  0.36930  0.50460  0.72930  1.0000 -0.1117030175
C   C144      1.0  0.00640  0.71200  0.03920  1.0000 -0.1117030175
C   C145      1.0  0.03090  0.81170  0.41620  1.0000 -0.1673543912
C   C146      1.0  0.00510  0.92340  0.85440  1.0000 -0.1298985803
C   C147      1.0  0.43300  0.65090  0.31320  1.0000 -0.1174343624
C   C148      1.0  0.86280  0.77790  0.19100  1.0000 -0.1483594278
C   C149      1.0  0.02170  0.86930  0.80010  1.0000 -0.1003813749
C   C150      1.0  0.89710  0.88840  0.16680  1.0000 -0.1298985803
C   C151      1.0  0.71990  0.44560  0.42200  1.0000 -0.0887654404
C   C152      1.0  0.83540  0.82510  0.15850  1.0000 -0.1003813749
C   C153      1.0  0.14800  0.93520  0.49560  1.0000 -0.1174343624
C   C154      1.0  0.74720  0.50905  0.55295  1.0000 0.0764919738
C   C155      1.0  0.50440  0.73700  0.65090  1.0000 -0.1383813457
C   C156      1.0  0.90900  0.69020  0.81631  1.0000 -0.080257632
C   C157      1.0  0.73100  0.37710  0.49538  1.0000 -0.1003813749
C   C158      1.0  0.69650  0.09719  0.13230  1.0000 0.5708342431
C   C159      1.0  0.20330  0.72210  0.20251  1.0000 -0.0523987753
C   C160      1.0  0.87040  0.38106  0.25232  1.0000 -0.0225588547
C   C161      1.0  0.54120  0.67734  0.74259  1.0000 -0.080257632
C   C162      1.0  0.25560  0.60450  0.22010  1.0000 0.039056289
C   C163      1.0  0.95010  0.77180  0.82640  1.0000 0.039056289
C   C164      1.0  0.59000  0.10430  0.25992  1.0000 0.5708342431
C   C165      1.0  0.79230  0.73208  0.84943  1.0000 -0.041662579
C   C166      1.0  0.14060  0.65935  0.19607  1.0000 -0.0523987753
C   C167      1.0  0.73830  0.62055  0.73057  1.0000 0.1199847995
C   C168      1.0  0.07200  0.66650  0.21947  1.0000 0.1199847995
C   C169      1.0  0.63720  0.67928  0.76916  1.0000 -0.041662579
C   C170      1.0  0.70910  0.73427  0.83618  1.0000 0.1199847995
C   C171      1.0  0.69380  0.03457  0.06480  1.0000 -0.0225588547
C   C172      1.0  0.53980  0.62269  0.61650  1.0000 0.0345360985
C   C173      1.0  0.80900  0.67677  0.79623  1.0000 -0.041662579
C   C174      1.0  0.65120  0.62170  0.71855  1.0000 -0.041662579
C   C175      1.0  0.56720  0.56802  0.64655  1.0000 -0.1003813749
C   C176      1.0  0.48200  0.59720  0.72364  1.0000 0.0451404726
C   C177      1.0  0.74300  0.44130  0.55740  1.0000 -0.1585643092
C   C178      1.0  0.69350  0.85514  0.87278  1.0000 -0.080257632
C   C179      1.0  0.06220  0.73810  0.24630  1.0000 -0.0626948705
C   C180      1.0  0.88030  0.79180  0.91725  1.0000 -0.080257632
C   C181      1.0  0.62940  0.95227  0.93174  1.0000 -0.1483594278
C   C182      1.0  0.71980  0.37760  0.42793  1.0000 -0.0225588547
C   C183      1.0  0.69300  0.91760  0.93949  1.0000 0.0929084359
C   C184      1.0  0.92820  0.74590  0.94640  1.0000 0.039056289
C   C185      1.0  0.38140  0.00840  0.27950  1.0000 -0.1483594278
C   C186      1.0  0.12620  0.80170  0.25275  1.0000 -0.0626948705
C   C187      1.0  0.73490  0.50970  0.48340  1.0000 -0.1585643092
C   C188      1.0  0.93270  0.82660  0.88100  1.0000 0.039056289
C   C189      1.0  0.04240  0.59460  0.28350  1.0000 -0.080257632
C   C190      1.0  0.23160  0.63990  0.09930  1.0000 0.039056289
C   C191      1.0  0.40260  0.95070  0.29710  1.0000 0.0764919738
C   C192      1.0  0.16060  0.93910  0.43170  1.0000 -0.1585643092
C   C193      1.0  0.44270  0.46380  0.64610  1.0000 -0.1585643092
C   C194      1.0  0.94510  0.69250  0.89255  1.0000 0.039056289
C   C195      1.0  0.52420  0.05030  0.27237  1.0000 -0.0225588547
C   C196      1.0  0.16760  0.57680  0.09200  1.0000 0.039056289
C   C197      1.0  0.28190  0.56620  0.26120  1.0000 -0.1383813457
C   C198      1.0  0.96210  0.40820  0.29520  1.0000 -0.1117030175
C   C199      1.0  0.99480  0.65070  0.91350  1.0000 -0.1383813457
C   C200      1.0  0.08670  0.87300  0.48710  1.0000 -0.1117030175
O   O1        1.0  0.34174  0.70040  0.70380  1.0000 -0.5204377161
O   O2        1.0  0.25366  0.73584  0.62850  1.0000 -0.5204377161
O   O3        1.0  0.23759  0.87899  0.80588  1.0000 -0.5276222588
O   O4        1.0  0.43940  0.85654  0.76946  1.0000 -0.5204377161
O   O5        1.0  0.15815  0.71975  0.71256  1.0000 -0.5276222588
O   O6        1.0  0.36713  0.87698  0.87662  1.0000 -0.5079434873
O   O7        1.0  0.24657  0.43575  0.32233  1.0000 -0.2340370403
O   O8        1.0  0.26934  0.71936  0.80461  1.0000 -0.5042746426
O   O9        1.0  0.32866  0.89285  0.71804  1.0000 -0.5204377161
O   O10       1.0  0.74165  0.14315  0.76326  1.0000 -0.2016869099
O   O11       1.0  0.98803  0.39737  0.78412  1.0000 -0.2340370403
O   O12       1.0  0.30674  0.20883  0.11092  1.0000 -0.2050010325
O   O13       1.0  0.65826  0.29960  0.29620  1.0000 -0.5204377161
O   O14       1.0  0.74634  0.26416  0.37150  1.0000 -0.5204377161
O   O15       1.0  0.76241  0.12101  0.19412  1.0000 -0.5276222588
O   O16       1.0  0.56060  0.14346  0.23054  1.0000 -0.5204377161
O   O17       1.0  0.84185  0.28025  0.28744  1.0000 -0.5276222588
O   O18       1.0  0.63287  0.12302  0.12338  1.0000 -0.5079434873
O   O19       1.0  0.75343  0.56425  0.67767  1.0000 -0.2340370403
O   O20       1.0  0.73066  0.28064  0.19539  1.0000 -0.5042746426
O   O21       1.0  0.67134  0.10715  0.28196  1.0000 -0.5204377161
O   O22       1.0  0.25835  0.85685  0.23674  1.0000 -0.2016869099
O   O23       1.0  0.01197  0.60263  0.21588  1.0000 -0.2340370403
O   O24       1.0  0.69326  0.79117  0.88908  1.0000 -0.2050010325
