# DDEC6 charges by PACMAN v1.1 (https://github.com/mtap-research/PACMAN-charge/)
data_2020[Zn][pcu]3[ASR]7
_chemical_formula_sum              "Zn8 H64 C108 N16 O32"
_cell_length_a       10.9546
_cell_length_b       10.934
_cell_length_c       30.2273
_cell_angle_alpha    90
_cell_angle_beta     93.624
_cell_angle_gamma    90

_symmetry_space_group_name_H-M    "P 1"
_symmetry_Int_Tables_number       1

loop_
  _symmetry_equiv_pos_as_xyz
  'x, y, z'

loop_
  _atom_site_type_symbol
  _atom_site_label
  _atom_site_symmetry_multiplicity
  _atom_site_fract_x
  _atom_site_fract_y
  _atom_site_fract_z
  _atom_site_occupancy
  _atom_site_charge
Zn  Zn1       1.0  0.66832  0.10012  0.40008  1.0000 0.8376939797
Zn  Zn2       1.0  0.65020  0.10458  0.30180  1.0000 0.8376939797
Zn  Zn3       1.0  0.66832  0.39988  0.90008  1.0000 0.8376939797
Zn  Zn4       1.0  0.65020  0.39542  0.80180  1.0000 0.8376939797
Zn  Zn5       1.0  0.33168  0.60012  0.09992  1.0000 0.8376939797
Zn  Zn6       1.0  0.34980  0.60458  0.19820  1.0000 0.8376939797
Zn  Zn7       1.0  0.33168  0.89988  0.59992  1.0000 0.8376939797
Zn  Zn8       1.0  0.34980  0.89542  0.69820  1.0000 0.8376939797
H   H1        1.0  0.06510  0.13740  0.41860  1.0000 0.1203325487
H   H2        1.0  0.27790  0.13280  0.41890  1.0000 0.1111147513
H   H3        1.0  0.25500  0.07870  0.28700  1.0000 0.1203325487
H   H4        1.0  0.04400  0.07830  0.28670  1.0000 0.1203325487
H   H5        1.0  0.66740  0.69480  0.41900  1.0000 0.1111147513
H   H6        1.0  0.66570  0.48490  0.41580  1.0000 0.1111147513
H   H7        1.0  0.64420  0.50420  0.28070  1.0000 0.1203325487
H   H8        1.0  0.64520  0.71590  0.28620  1.0000 0.1203325487
H   H9        1.0  0.64330  0.26620  0.22240  1.0000 0.1310239823
H   H10       1.0  0.68040  0.87650  0.15970  1.0000 0.1471672261
H   H11       1.0  0.65980  0.90530  0.23500  1.0000 0.1203325487
H   H12       1.0  0.60160  0.42030  0.06370  1.0000 0.1471672261
H   H13       1.0  0.60910  0.49580  0.99270  1.0000 0.1111147513
H   H14       1.0  0.79020  0.21000  0.95430  1.0000 0.1203325487
H   H15       1.0  0.78930  0.12340  0.02420  1.0000 0.1310239823
H   H16       1.0  0.69500  0.02380  0.08080  1.0000 0.3092121982
H   H17       1.0  0.06510  0.36260  0.91860  1.0000 0.1203325487
H   H18       1.0  0.27790  0.36720  0.91890  1.0000 0.1111147513
H   H19       1.0  0.25500  0.42130  0.78700  1.0000 0.1203325487
H   H20       1.0  0.04400  0.42170  0.78670  1.0000 0.1203325487
H   H21       1.0  0.66740  0.80520  0.91900  1.0000 0.1111147513
H   H22       1.0  0.66570  0.01510  0.91580  1.0000 0.1111147513
H   H23       1.0  0.64420  0.99580  0.78070  1.0000 0.1203325487
H   H24       1.0  0.64520  0.78410  0.78620  1.0000 0.1203325487
H   H25       1.0  0.64330  0.23380  0.72240  1.0000 0.1310239823
H   H26       1.0  0.68040  0.62350  0.65970  1.0000 0.1471672261
H   H27       1.0  0.65980  0.59470  0.73500  1.0000 0.1203325487
H   H28       1.0  0.60160  0.07970  0.56370  1.0000 0.1471672261
H   H29       1.0  0.60910  0.00420  0.49270  1.0000 0.1111147513
H   H30       1.0  0.79020  0.29000  0.45430  1.0000 0.1203325487
H   H31       1.0  0.78930  0.37660  0.52420  1.0000 0.1310239823
H   H32       1.0  0.69500  0.47620  0.58080  1.0000 0.3092121982
H   H33       1.0  0.93490  0.63740  0.08140  1.0000 0.1203325487
H   H34       1.0  0.72210  0.63280  0.08110  1.0000 0.1111147513
H   H35       1.0  0.74500  0.57870  0.21300  1.0000 0.1203325487
H   H36       1.0  0.95600  0.57830  0.21330  1.0000 0.1203325487
H   H37       1.0  0.33260  0.19480  0.08100  1.0000 0.1111147513
H   H38       1.0  0.33430  0.98490  0.08420  1.0000 0.1111147513
H   H39       1.0  0.35580  0.00420  0.21930  1.0000 0.1203325487
H   H40       1.0  0.35480  0.21590  0.21380  1.0000 0.1203325487
H   H41       1.0  0.35670  0.76620  0.27760  1.0000 0.1310239823
H   H42       1.0  0.31960  0.37650  0.34030  1.0000 0.1471672261
H   H43       1.0  0.34020  0.40530  0.26500  1.0000 0.1203325487
H   H44       1.0  0.39840  0.92030  0.43630  1.0000 0.1471672261
H   H45       1.0  0.39090  0.99580  0.50730  1.0000 0.1111147513
H   H46       1.0  0.20980  0.71000  0.54570  1.0000 0.1203325487
H   H47       1.0  0.21070  0.62340  0.47580  1.0000 0.1310239823
H   H48       1.0  0.30500  0.52380  0.41920  1.0000 0.3092121982
H   H49       1.0  0.93490  0.86260  0.58140  1.0000 0.1203325487
H   H50       1.0  0.72210  0.86720  0.58110  1.0000 0.1111147513
H   H51       1.0  0.74500  0.92130  0.71300  1.0000 0.1203325487
H   H52       1.0  0.95600  0.92170  0.71330  1.0000 0.1203325487
H   H53       1.0  0.33260  0.30520  0.58100  1.0000 0.1111147513
H   H54       1.0  0.33430  0.51510  0.58420  1.0000 0.1111147513
H   H55       1.0  0.35580  0.49580  0.71930  1.0000 0.1203325487
H   H56       1.0  0.35480  0.28410  0.71380  1.0000 0.1203325487
H   H57       1.0  0.35670  0.73380  0.77760  1.0000 0.1310239823
H   H58       1.0  0.31960  0.12350  0.84030  1.0000 0.1471672261
H   H59       1.0  0.34020  0.09470  0.76500  1.0000 0.1203325487
H   H60       1.0  0.39840  0.57970  0.93630  1.0000 0.1471672261
H   H61       1.0  0.39090  0.50420  0.00730  1.0000 0.1111147513
H   H62       1.0  0.20980  0.79000  0.04570  1.0000 0.1203325487
H   H63       1.0  0.21070  0.87660  0.97580  1.0000 0.1310239823
H   H64       1.0  0.30500  0.97620  0.91920  1.0000 0.3092121982
C   C1        1.0  0.89620  0.10520  0.35262  1.0000 0.5953176001
C   C2        1.0  0.03290  0.10750  0.35260  1.0000 -0.0206851406
C   C3        1.0  0.10350  0.12430  0.39170  1.0000 -0.10940169
C   C4        1.0  0.23020  0.12220  0.39181  1.0000 -0.1179122163
C   C5        1.0  0.28740  0.10480  0.35294  1.0000 -0.0206851406
C   C6        1.0  0.21660  0.08960  0.31402  1.0000 -0.10940169
C   C7        1.0  0.09130  0.09010  0.31383  1.0000 -0.1005344412
C   C8        1.0  0.42520  0.10070  0.35306  1.0000 0.5826776603
C   C9        1.0  0.65960  0.86780  0.35492  1.0000 0.5899297932
C   C10       1.0  0.65740  0.73050  0.35323  1.0000 -0.0206851406
C   C11       1.0  0.66270  0.65630  0.39073  1.0000 -0.10940169
C   C12       1.0  0.66170  0.53190  0.38935  1.0000 -0.1302376708
C   C13       1.0  0.65430  0.47500  0.34734  1.0000 -0.0206851406
C   C14       1.0  0.64870  0.54280  0.30894  1.0000 -0.10940169
C   C15       1.0  0.64980  0.66870  0.31265  1.0000 -0.10940169
C   C16       1.0  0.65440  0.33830  0.34493  1.0000 0.5734338144
C   C17       1.0  0.65180  0.18760  0.20960  1.0000 0.0324856432
C   C18       1.0  0.66350  0.17650  0.16440  1.0000 0.0883053744
C   C19       1.0  0.67610  0.06000  0.14588  1.0000 0.1708762364
C   C20       1.0  0.67390  0.95620  0.17185  1.0000 -0.22759554
C   C21       1.0  0.66180  0.97490  0.21626  1.0000 0.0622142533
C   C22       1.0  0.68100  0.20610  0.09513  1.0000 0.2988115528
C   C23       1.0  0.68900  0.26030  0.05091  1.0000 0.0716515461
C   C24       1.0  0.63840  0.37390  0.04149  1.0000 -0.1745242795
C   C25       1.0  0.64310  0.41730  0.99910  1.0000 0.0788392516
C   C26       1.0  0.74870  0.25090  0.97660  1.0000 0.0788392516
C   C27       1.0  0.74910  0.19900  0.01804  1.0000 -0.2008409074
C   C28       1.0  0.89620  0.39480  0.85262  1.0000 0.5953176001
C   C29       1.0  0.03290  0.39250  0.85260  1.0000 -0.0206851406
C   C30       1.0  0.10350  0.37570  0.89170  1.0000 -0.10940169
C   C31       1.0  0.23020  0.37780  0.89181  1.0000 -0.1179122163
C   C32       1.0  0.28740  0.39520  0.85294  1.0000 -0.0206851406
C   C33       1.0  0.21660  0.41040  0.81402  1.0000 -0.10940169
C   C34       1.0  0.09130  0.40990  0.81383  1.0000 -0.1005344412
C   C35       1.0  0.42520  0.39930  0.85306  1.0000 0.5826776603
C   C36       1.0  0.65960  0.63220  0.85492  1.0000 0.5899297932
C   C37       1.0  0.65740  0.76950  0.85323  1.0000 -0.0206851406
C   C38       1.0  0.66270  0.84370  0.89073  1.0000 -0.10940169
C   C39       1.0  0.66170  0.96810  0.88935  1.0000 -0.1302376708
C   C40       1.0  0.65430  0.02500  0.84734  1.0000 -0.0206851406
C   C41       1.0  0.64870  0.95720  0.80894  1.0000 -0.10940169
C   C42       1.0  0.64980  0.83130  0.81265  1.0000 -0.10940169
C   C43       1.0  0.65440  0.16170  0.84493  1.0000 0.5734338144
C   C44       1.0  0.65180  0.31240  0.70960  1.0000 0.0324856432
C   C45       1.0  0.66350  0.32350  0.66440  1.0000 0.0883053744
C   C46       1.0  0.67610  0.44000  0.64588  1.0000 0.1708762364
C   C47       1.0  0.67390  0.54380  0.67185  1.0000 -0.22759554
C   C48       1.0  0.66180  0.52510  0.71626  1.0000 0.0622142533
C   C49       1.0  0.68100  0.29390  0.59513  1.0000 0.2988115528
C   C50       1.0  0.68900  0.23970  0.55091  1.0000 0.0716515461
C   C51       1.0  0.63840  0.12610  0.54149  1.0000 -0.1745242795
C   C52       1.0  0.64310  0.08270  0.49910  1.0000 0.0788392516
C   C53       1.0  0.74870  0.24910  0.47660  1.0000 0.0788392516
C   C54       1.0  0.74910  0.30100  0.51804  1.0000 -0.2008409074
C   C55       1.0  0.10380  0.60520  0.14738  1.0000 0.5953176001
C   C56       1.0  0.96710  0.60750  0.14740  1.0000 -0.0206851406
C   C57       1.0  0.89650  0.62430  0.10830  1.0000 -0.10940169
C   C58       1.0  0.76980  0.62220  0.10819  1.0000 -0.1179122163
C   C59       1.0  0.71260  0.60480  0.14706  1.0000 -0.0206851406
C   C60       1.0  0.78340  0.58960  0.18598  1.0000 -0.10940169
C   C61       1.0  0.90870  0.59010  0.18617  1.0000 -0.1005344412
C   C62       1.0  0.57480  0.60070  0.14694  1.0000 0.5826776603
C   C63       1.0  0.34040  0.36780  0.14508  1.0000 0.5899297932
C   C64       1.0  0.34260  0.23050  0.14677  1.0000 -0.0206851406
C   C65       1.0  0.33730  0.15630  0.10927  1.0000 -0.10940169
C   C66       1.0  0.33830  0.03190  0.11065  1.0000 -0.1302376708
C   C67       1.0  0.34570  0.97500  0.15266  1.0000 -0.0206851406
C   C68       1.0  0.35130  0.04280  0.19106  1.0000 -0.10940169
C   C69       1.0  0.35020  0.16870  0.18735  1.0000 -0.10940169
C   C70       1.0  0.34560  0.83830  0.15507  1.0000 0.5734338144
C   C71       1.0  0.34820  0.68760  0.29040  1.0000 0.0324856432
C   C72       1.0  0.33650  0.67650  0.33560  1.0000 0.0883053744
C   C73       1.0  0.32390  0.56000  0.35412  1.0000 0.1708762364
C   C74       1.0  0.32610  0.45620  0.32815  1.0000 -0.22759554
C   C75       1.0  0.33820  0.47490  0.28374  1.0000 0.0622142533
C   C76       1.0  0.31900  0.70610  0.40487  1.0000 0.2988115528
C   C77       1.0  0.31100  0.76030  0.44909  1.0000 0.0716515461
C   C78       1.0  0.36160  0.87390  0.45851  1.0000 -0.1745242795
C   C79       1.0  0.35690  0.91730  0.50090  1.0000 0.0788392516
C   C80       1.0  0.25130  0.75090  0.52340  1.0000 0.0788392516
C   C81       1.0  0.25090  0.69900  0.48196  1.0000 -0.2008409074
C   C82       1.0  0.10380  0.89480  0.64738  1.0000 0.5899297932
C   C83       1.0  0.96710  0.89250  0.64740  1.0000 -0.0206851406
C   C84       1.0  0.89650  0.87570  0.60830  1.0000 -0.10940169
C   C85       1.0  0.76980  0.87780  0.60819  1.0000 -0.1179122163
C   C86       1.0  0.71260  0.89520  0.64706  1.0000 -0.0206851406
C   C87       1.0  0.78340  0.91040  0.68598  1.0000 -0.10940169
C   C88       1.0  0.90870  0.90990  0.68617  1.0000 -0.1005344412
C   C89       1.0  0.57480  0.89930  0.64694  1.0000 0.5826776603
C   C90       1.0  0.34040  0.13220  0.64508  1.0000 0.5899297932
C   C91       1.0  0.34260  0.26950  0.64677  1.0000 -0.0206851406
C   C92       1.0  0.33730  0.34370  0.60927  1.0000 -0.10940169
C   C93       1.0  0.33830  0.46810  0.61065  1.0000 -0.1302376708
C   C94       1.0  0.34570  0.52500  0.65266  1.0000 -0.0206851406
C   C95       1.0  0.35130  0.45720  0.69106  1.0000 -0.10940169
C   C96       1.0  0.35020  0.33130  0.68735  1.0000 -0.10940169
C   C97       1.0  0.34560  0.66170  0.65507  1.0000 0.5734338144
C   C98       1.0  0.34820  0.81240  0.79040  1.0000 0.0324856432
C   C99       1.0  0.33650  0.82350  0.83560  1.0000 0.0883053744
C   C100      1.0  0.32390  0.94000  0.85412  1.0000 0.1708762364
C   C101      1.0  0.32610  0.04380  0.82815  1.0000 -0.22759554
C   C102      1.0  0.33820  0.02510  0.78374  1.0000 0.0622142533
C   C103      1.0  0.31900  0.79390  0.90487  1.0000 0.2988115528
C   C104      1.0  0.31100  0.73970  0.94909  1.0000 0.0716515461
C   C105      1.0  0.36160  0.62610  0.95851  1.0000 -0.1745242795
C   C106      1.0  0.35690  0.58270  0.00090  1.0000 0.0788392516
C   C107      1.0  0.25130  0.74910  0.02340  1.0000 0.0788392516
C   C108      1.0  0.25090  0.80100  0.98196  1.0000 -0.2008409074
N   N1        1.0  0.65220  0.08810  0.23511  1.0000 -0.217157556
N   N2        1.0  0.66550  0.26680  0.13179  1.0000 -0.3508079371
N   N3        1.0  0.68650  0.07970  0.10128  1.0000 -0.3237888387
N   N4        1.0  0.69160  0.35750  0.96636  1.0000 -0.2008409074
N   N5        1.0  0.65220  0.41190  0.73511  1.0000 -0.217157556
N   N6        1.0  0.66550  0.23320  0.63179  1.0000 -0.3508079371
N   N7        1.0  0.68650  0.42030  0.60128  1.0000 -0.3237888387
N   N8        1.0  0.69160  0.14250  0.46636  1.0000 -0.2008409074
N   N9        1.0  0.34780  0.58810  0.26489  1.0000 -0.217157556
N   N10       1.0  0.33450  0.76680  0.36821  1.0000 -0.3508079371
N   N11       1.0  0.31350  0.57970  0.39872  1.0000 -0.3237888387
N   N12       1.0  0.30840  0.85750  0.53364  1.0000 -0.2008409074
N   N13       1.0  0.34780  0.91190  0.76489  1.0000 -0.217157556
N   N14       1.0  0.33450  0.73320  0.86821  1.0000 -0.3508079371
N   N15       1.0  0.31350  0.92030  0.89872  1.0000 -0.3237888387
N   N16       1.0  0.30840  0.64250  0.03364  1.0000 -0.2008409074
O   O1        1.0  0.85000  0.10470  0.38992  1.0000 -0.5500646073
O   O2        1.0  0.83570  0.10680  0.31564  1.0000 -0.5448158404
O   O3        1.0  0.47140  0.10620  0.31581  1.0000 -0.5448158404
O   O4        1.0  0.48350  0.09490  0.39061  1.0000 -0.5500646073
O   O5        1.0  0.66920  0.91870  0.39338  1.0000 -0.5500646073
O   O6        1.0  0.65280  0.92530  0.31903  1.0000 -0.5500646073
O   O7        1.0  0.65830  0.28150  0.38032  1.0000 -0.5500646073
O   O8        1.0  0.65060  0.29310  0.30709  1.0000 -0.5293517729
O   O9        1.0  0.85000  0.39530  0.88992  1.0000 -0.5500646073
O   O10       1.0  0.83570  0.39320  0.81564  1.0000 -0.5448158404
O   O11       1.0  0.47140  0.39380  0.81581  1.0000 -0.5500646073
O   O12       1.0  0.48350  0.40510  0.89061  1.0000 -0.5500646073
O   O13       1.0  0.66920  0.58130  0.89338  1.0000 -0.5500646073
O   O14       1.0  0.65280  0.57470  0.81903  1.0000 -0.5500646073
O   O15       1.0  0.65830  0.21850  0.88032  1.0000 -0.5500646073
O   O16       1.0  0.65060  0.20690  0.80709  1.0000 -0.5293517729
O   O17       1.0  0.15000  0.60470  0.11008  1.0000 -0.5500646073
O   O18       1.0  0.16430  0.60680  0.18436  1.0000 -0.5500646073
O   O19       1.0  0.52860  0.60620  0.18419  1.0000 -0.5500646073
O   O20       1.0  0.51650  0.59490  0.10939  1.0000 -0.5500646073
O   O21       1.0  0.33080  0.41870  0.10662  1.0000 -0.5500646073
O   O22       1.0  0.34720  0.42530  0.18097  1.0000 -0.5500646073
O   O23       1.0  0.34170  0.78150  0.11968  1.0000 -0.5500646073
O   O24       1.0  0.34940  0.79310  0.19291  1.0000 -0.5293517729
O   O25       1.0  0.15000  0.89530  0.61008  1.0000 -0.5500646073
O   O26       1.0  0.16430  0.89320  0.68436  1.0000 -0.5448158404
O   O27       1.0  0.52860  0.89380  0.68419  1.0000 -0.5500646073
O   O28       1.0  0.51650  0.90510  0.60939  1.0000 -0.5551041385
O   O29       1.0  0.33080  0.08130  0.60662  1.0000 -0.5500646073
O   O30       1.0  0.34720  0.07470  0.68097  1.0000 -0.5500646073
O   O31       1.0  0.34170  0.71850  0.61968  1.0000 -0.5500646073
O   O32       1.0  0.34940  0.70690  0.69291  1.0000 -0.5293517729
