# DDEC6 charges by PACMAN v1.1 (https://github.com/mtap-research/PACMAN-charge/)
data_2020[Zn][nan]3[ASR]68
_chemical_formula_sum              "Zn12 H36 C96 S6 O52"
_cell_length_a       11.557
_cell_length_b       11.677
_cell_length_c       25.55
_cell_angle_alpha    84.208
_cell_angle_beta     85.113
_cell_angle_gamma    82.663

_symmetry_space_group_name_H-M    "P 1"
_symmetry_Int_Tables_number       1

loop_
  _symmetry_equiv_pos_as_xyz
  'x, y, z'

loop_
  _atom_site_type_symbol
  _atom_site_label
  _atom_site_symmetry_multiplicity
  _atom_site_fract_x
  _atom_site_fract_y
  _atom_site_fract_z
  _atom_site_occupancy
  _atom_site_charge
Zn  Zn1       1.0  0.04090  0.23323  0.63853  1.0000 0.9789904707
Zn  Zn2       1.0  0.68988  0.23774  0.12866  1.0000 0.9387705976
Zn  Zn3       1.0  0.68383  0.51101  0.12568  1.0000 0.9666143411
Zn  Zn4       1.0  0.24470  0.76691  0.37075  1.0000 0.9789904707
Zn  Zn5       1.0  0.07630  0.88533  0.46423  1.0000 1.0238135809
Zn  Zn6       1.0  0.42045  0.62259  0.97819  1.0000 0.9935934895
Zn  Zn7       1.0  0.95910  0.76677  0.36147  1.0000 0.9789904707
Zn  Zn8       1.0  0.31012  0.76226  0.87134  1.0000 0.9387705976
Zn  Zn9       1.0  0.31617  0.48899  0.87432  1.0000 0.9666143411
Zn  Zn10      1.0  0.75530  0.23309  0.62925  1.0000 0.9789904707
Zn  Zn11      1.0  0.92370  0.11467  0.53577  1.0000 1.0238135809
Zn  Zn12      1.0  0.57955  0.37741  0.02181  1.0000 0.9935934895
H   H1        1.0  0.41316  0.16385  0.58409  1.0000 0.1394879827
H   H2        1.0  0.60671  0.12836  0.44728  1.0000 0.1394879827
H   H3        1.0  0.25810  0.11836  0.45442  1.0000 0.1394879827
H   H4        1.0  0.35436  0.33303  0.39901  1.0000 0.1314987191
H   H5        1.0  0.45822  0.53469  0.26839  1.0000 0.1468652739
H   H6        1.0  0.53684  0.18858  0.27593  1.0000 0.1394879827
H   H7        1.0  0.93983  0.02261  0.22969  1.0000 0.1314987191
H   H8        1.0  0.29597  0.94130  0.22183  1.0000 0.1394879827
H   H9        1.0  0.13629  0.14185  0.10213  1.0000 0.1314987191
H   H10       1.0  0.34479  0.90873  0.05688  1.0000 0.1394879827
H   H11       1.0  0.36414  0.09844  0.91539  1.0000 0.1394879827
H   H12       1.0  0.97546  0.35774  0.42463  1.0000 0.1468652739
H   H13       1.0  0.13739  0.45416  0.28127  1.0000 0.1394879827
H   H14       1.0  0.14502  0.11846  0.33324  1.0000 0.1394879827
H   H15       1.0  0.01327  0.35525  0.20728  1.0000 0.1394879827
H   H16       1.0  0.11715  0.51939  0.06681  1.0000 0.1468652739
H   H17       1.0  0.35942  0.34032  0.16036  1.0000 0.1314987191
H   H18       1.0  0.37930  0.24556  0.04821  1.0000 0.1314987191
H   H19       1.0  0.58684  0.83615  0.41591  1.0000 0.1394879827
H   H20       1.0  0.39329  0.87164  0.55272  1.0000 0.1394879827
H   H21       1.0  0.74190  0.88164  0.54558  1.0000 0.1394879827
H   H22       1.0  0.64564  0.66697  0.60099  1.0000 0.1314987191
H   H23       1.0  0.54178  0.46531  0.73161  1.0000 0.1468652739
H   H24       1.0  0.46316  0.81142  0.72407  1.0000 0.1394879827
H   H25       1.0  0.06017  0.97739  0.77031  1.0000 0.1314987191
H   H26       1.0  0.70403  0.05870  0.77817  1.0000 0.1394879827
H   H27       1.0  0.86371  0.85815  0.89787  1.0000 0.1314987191
H   H28       1.0  0.65521  0.09127  0.94312  1.0000 0.1394879827
H   H29       1.0  0.63586  0.90156  0.08461  1.0000 0.1394879827
H   H30       1.0  0.02454  0.64226  0.57537  1.0000 0.1468652739
H   H31       1.0  0.86261  0.54584  0.71873  1.0000 0.1394879827
H   H32       1.0  0.85498  0.88154  0.66676  1.0000 0.1394879827
H   H33       1.0  0.98673  0.64475  0.79272  1.0000 0.1394879827
H   H34       1.0  0.88285  0.48061  0.93319  1.0000 0.1468652739
H   H35       1.0  0.64058  0.65968  0.83964  1.0000 0.1314987191
H   H36       1.0  0.62070  0.75444  0.95179  1.0000 0.1314987191
C   C1        1.0  0.19710  0.14240  0.55350  1.0000 0.6003200614
C   C2        1.0  0.32000  0.14370  0.52380  1.0000 0.0089462065
C   C3        1.0  0.41880  0.15320  0.54750  1.0000 -0.1012737726
C   C4        1.0  0.52760  0.14790  0.51980  1.0000 0.0089462065
C   C5        1.0  0.63950  0.15650  0.54720  1.0000 0.5876722985
C   C6        1.0  0.53310  0.13300  0.46710  1.0000 -0.1409103196
C   C7        1.0  0.43290  0.12470  0.44230  1.0000 0.0622654061
C   C8        1.0  0.32650  0.12750  0.47090  1.0000 -0.1474939271
C   C9        1.0  0.45030  0.24450  0.34300  1.0000 0.0622654061
C   C10       1.0  0.39560  0.34020  0.36530  1.0000 -0.1409103196
C   C11       1.0  0.40120  0.44810  0.33780  1.0000 0.0185512709
C   C12       1.0  0.33840  0.55290  0.36190  1.0000 0.5529906207
C   C13       1.0  0.45560  0.46030  0.28700  1.0000 -0.1012737726
C   C14       1.0  0.50370  0.36480  0.26540  1.0000 -0.0102475805
C   C15       1.0  0.56160  0.37480  0.20970  1.0000 0.6003200614
C   C16       1.0  0.50230  0.25550  0.29230  1.0000 -0.1588656476
C   C17       1.0  0.91280  0.15110  0.13750  1.0000 0.5603811496
C   C18       1.0  0.02270  0.08810  0.16100  1.0000 -0.0001772623
C   C19       1.0  0.01420  0.02660  0.21110  1.0000 -0.0864160883
C   C20       1.0  0.11680  0.97030  0.23390  1.0000 -0.0399193226
C   C21       1.0  0.10900  0.90690  0.28680  1.0000 0.6094696277
C   C22       1.0  0.22680  0.97820  0.20680  1.0000 -0.1712428464
C   C23       1.0  0.23270  0.04080  0.15770  1.0000 0.0622654061
C   C24       1.0  0.13020  0.09730  0.13530  1.0000 -0.1474939271
C   C25       1.0  0.36200  0.07560  0.06150  1.0000 0.0698094254
C   C26       1.0  0.35200  0.98060  0.03660  1.0000 -0.1409103196
C   C27       1.0  0.35220  0.98580  0.98300  1.0000 0.0185512709
C   C28       1.0  0.35540  0.87720  0.95630  1.0000 0.5876722985
C   C29       1.0  0.36380  0.09350  0.95270  1.0000 -0.1012737726
C   C30       1.0  0.37410  0.18770  0.97680  1.0000 0.0089462065
C   C31       1.0  0.39240  0.30420  0.94700  1.0000 0.6003200614
C   C32       1.0  0.02930  0.12870  0.42570  1.0000 0.6094696277
C   C33       1.0  0.05780  0.22520  0.38570  1.0000 -0.0102475805
C   C34       1.0  0.02070  0.33820  0.39330  1.0000 -0.0864160883
C   C35       1.0  0.05040  0.42610  0.35400  1.0000 0.0089462065
C   C36       1.0  0.01500  0.54750  0.36290  1.0000 0.5363850945
C   C37       1.0  0.11610  0.39550  0.30750  1.0000 -0.1328213534
C   C38       1.0  0.14900  0.28300  0.30020  1.0000 0.0622654061
C   C39       1.0  0.12090  0.19750  0.33870  1.0000 -0.1474939271
C   C40       1.0  0.18980  0.33920  0.19070  1.0000 0.0698094254
C   C41       1.0  0.07370  0.37600  0.18180  1.0000 -0.1474939271
C   C42       1.0  0.04600  0.44370  0.13540  1.0000 0.027618583
C   C43       1.0  0.91830  0.47940  0.12170  1.0000 0.5603811496
C   C44       1.0  0.13530  0.47380  0.09870  1.0000 -0.1012737726
C   C45       1.0  0.25110  0.43720  0.10860  1.0000 0.002292224
C   C46       1.0  0.34910  0.46840  0.06840  1.0000 0.6003200614
C   C47       1.0  0.28020  0.36750  0.15430  1.0000 -0.1712428464
C   C48       1.0  0.37270  0.17840  0.03110  1.0000 -0.1588656476
C   C49       1.0  0.80290  0.85760  0.44650  1.0000 0.6003200614
C   C50       1.0  0.68000  0.85630  0.47620  1.0000 0.0089462065
C   C51       1.0  0.58120  0.84680  0.45250  1.0000 -0.1012737726
C   C52       1.0  0.47240  0.85210  0.48020  1.0000 0.0089462065
C   C53       1.0  0.36050  0.84350  0.45280  1.0000 0.5876722985
C   C54       1.0  0.46690  0.86700  0.53290  1.0000 -0.1409103196
C   C55       1.0  0.56710  0.87530  0.55770  1.0000 0.0622654061
C   C56       1.0  0.67350  0.87250  0.52910  1.0000 -0.1474939271
C   C57       1.0  0.54970  0.75550  0.65700  1.0000 0.0622654061
C   C58       1.0  0.60440  0.65980  0.63470  1.0000 -0.1409103196
C   C59       1.0  0.59880  0.55190  0.66220  1.0000 0.0185512709
C   C60       1.0  0.66160  0.44710  0.63810  1.0000 0.5529906207
C   C61       1.0  0.54440  0.53970  0.71300  1.0000 -0.1012737726
C   C62       1.0  0.49630  0.63520  0.73460  1.0000 -0.0102475805
C   C63       1.0  0.43840  0.62520  0.79030  1.0000 0.6003200614
C   C64       1.0  0.49770  0.74450  0.70770  1.0000 -0.1588656476
C   C65       1.0  0.08720  0.84890  0.86250  1.0000 0.5603811496
C   C66       1.0  0.97730  0.91190  0.83900  1.0000 0.002292224
C   C67       1.0  0.98580  0.97340  0.78890  1.0000 -0.0864160883
C   C68       1.0  0.88320  0.02970  0.76610  1.0000 -0.0399193226
C   C69       1.0  0.89100  0.09310  0.71320  1.0000 0.6094696277
C   C70       1.0  0.77320  0.02180  0.79320  1.0000 -0.1712428464
C   C71       1.0  0.76730  0.95920  0.84230  1.0000 0.0622654061
C   C72       1.0  0.86980  0.90270  0.86470  1.0000 -0.1474939271
C   C73       1.0  0.63800  0.92440  0.93850  1.0000 0.0698094254
C   C74       1.0  0.64800  0.01940  0.96340  1.0000 -0.1409103196
C   C75       1.0  0.64780  0.01420  0.01700  1.0000 0.0185512709
C   C76       1.0  0.64460  0.12280  0.04370  1.0000 0.5876722985
C   C77       1.0  0.63620  0.90650  0.04730  1.0000 -0.1012737726
C   C78       1.0  0.62590  0.81230  0.02320  1.0000 0.0089462065
C   C79       1.0  0.60760  0.69580  0.05300  1.0000 0.6003200614
C   C80       1.0  0.97070  0.87130  0.57430  1.0000 0.6094696277
C   C81       1.0  0.94220  0.77480  0.61430  1.0000 -0.0102475805
C   C82       1.0  0.97930  0.66180  0.60670  1.0000 -0.0864160883
C   C83       1.0  0.94960  0.57390  0.64600  1.0000 0.0089462065
C   C84       1.0  0.98500  0.45250  0.63710  1.0000 0.5363850945
C   C85       1.0  0.88390  0.60450  0.69250  1.0000 -0.1328213534
C   C86       1.0  0.85100  0.71700  0.69980  1.0000 0.0622654061
C   C87       1.0  0.87910  0.80250  0.66130  1.0000 -0.1474939271
C   C88       1.0  0.81020  0.66080  0.80930  1.0000 0.0698094254
C   C89       1.0  0.92630  0.62400  0.81820  1.0000 -0.1474939271
C   C90       1.0  0.95400  0.55630  0.86460  1.0000 0.027618583
C   C91       1.0  0.08170  0.52060  0.87830  1.0000 0.5603811496
C   C92       1.0  0.86470  0.52620  0.90130  1.0000 -0.1012737726
C   C93       1.0  0.74890  0.56280  0.89140  1.0000 0.002292224
C   C94       1.0  0.65090  0.53160  0.93160  1.0000 0.6003200614
C   C95       1.0  0.71980  0.63250  0.84570  1.0000 -0.1712428464
C   C96       1.0  0.62730  0.82160  0.96890  1.0000 -0.1588656476
S   S1        1.0  0.44050  0.10360  0.37397  1.0000 0.0185512709
S   S2        1.0  0.37740  0.06050  0.13089  1.0000 0.0185512709
S   S3        1.0  0.23660  0.23880  0.24546  1.0000 0.002292224
S   S4        1.0  0.55950  0.89640  0.62603  1.0000 0.0185512709
S   S5        1.0  0.62260  0.93950  0.86911  1.0000 0.0185512709
S   S6        1.0  0.76340  0.76120  0.75454  1.0000 0.002292224
O   O1        1.0  0.18820  0.18510  0.59760  1.0000 -0.5019096125
O   O2        1.0  0.11690  0.10790  0.53430  1.0000 -0.5019096125
O   O3        1.0  0.62950  0.17680  0.59430  1.0000 -0.5068954871
O   O4        1.0  0.73900  0.14050  0.52080  1.0000 -0.5433449394
O   O5        1.0  0.33620  0.64810  0.33290  1.0000 -0.4915704972
O   O6        1.0  0.29580  0.54380  0.40790  1.0000 -0.470830157
O   O7        1.0  0.57710  0.47390  0.18900  1.0000 -0.5019096125
O   O8        1.0  0.58600  0.28350  0.18970  1.0000 -0.4915704972
O   O9        1.0  0.82130  0.15500  0.16850  1.0000 -0.5019096125
O   O10       1.0  0.91330  0.19280  0.09110  1.0000 -0.470830157
O   O11       1.0  0.00900  0.89050  0.30850  1.0000 -0.526769439
O   O12       1.0  0.20600  0.87310  0.30800  1.0000 -0.526769439
O   O13       1.0  0.35610  0.78660  0.98700  1.0000 -0.5019096125
O   O14       1.0  0.36120  0.88580  0.90690  1.0000 -0.5068954871
O   O15       1.0  0.34390  0.32470  0.90260  1.0000 -0.5019096125
O   O16       1.0  0.44510  0.37030  0.96610  1.0000 -0.5019096125
O   O17       1.0  0.09670  0.76340  0.41380  1.0000 -0.7692700869
O   O18       1.0  0.07950  0.03310  0.42260  1.0000 -0.4778124562
O   O19       1.0  0.94580  0.15820  0.46120  1.0000 -0.5068954871
O   O20       1.0  0.95600  0.57320  0.40300  1.0000 -0.4390262312
O   O21       1.0  0.04400  0.62490  0.32890  1.0000 -0.4778124562
O   O22       1.0  0.83840  0.47760  0.15950  1.0000 -0.5220987445
O   O23       1.0  0.89580  0.50200  0.07520  1.0000 -0.4507565892
O   O24       1.0  0.32260  0.54640  0.03300  1.0000 -0.470830157
O   O25       1.0  0.69490  0.38120  0.08130  1.0000 -0.763488635
O   O26       1.0  0.44850  0.41100  0.07390  1.0000 -0.5433449394
O   O27       1.0  0.81180  0.81490  0.40240  1.0000 -0.5019096125
O   O28       1.0  0.88310  0.89210  0.46570  1.0000 -0.5019096125
O   O29       1.0  0.37050  0.82320  0.40570  1.0000 -0.5068954871
O   O30       1.0  0.26100  0.85950  0.47920  1.0000 -0.5433449394
O   O31       1.0  0.66380  0.35190  0.66710  1.0000 -0.4915704972
O   O32       1.0  0.70420  0.45620  0.59210  1.0000 -0.470830157
O   O33       1.0  0.42290  0.52610  0.81100  1.0000 -0.5019096125
O   O34       1.0  0.41400  0.71650  0.81030  1.0000 -0.4915704972
O   O35       1.0  0.17870  0.84500  0.83150  1.0000 -0.5019096125
O   O36       1.0  0.08670  0.80720  0.90890  1.0000 -0.470830157
O   O37       1.0  0.99100  0.10950  0.69150  1.0000 -0.526769439
O   O38       1.0  0.79400  0.12690  0.69200  1.0000 -0.526769439
O   O39       1.0  0.64390  0.21340  0.01300  1.0000 -0.5019096125
O   O40       1.0  0.63880  0.11420  0.09310  1.0000 -0.5068954871
O   O41       1.0  0.65610  0.67530  0.09740  1.0000 -0.5019096125
O   O42       1.0  0.55490  0.62970  0.03390  1.0000 -0.5019096125
O   O43       1.0  0.90330  0.23660  0.58620  1.0000 -0.763488635
O   O44       1.0  0.92050  0.96690  0.57740  1.0000 -0.4778124562
O   O45       1.0  0.05420  0.84180  0.53880  1.0000 -0.5068954871
O   O46       1.0  0.04400  0.42680  0.59700  1.0000 -0.4390262312
O   O47       1.0  0.95600  0.37510  0.67110  1.0000 -0.4778124562
O   O48       1.0  0.16160  0.52240  0.84050  1.0000 -0.5220987445
O   O49       1.0  0.10420  0.49800  0.92480  1.0000 -0.4507565892
O   O50       1.0  0.67740  0.45360  0.96700  1.0000 -0.470830157
O   O51       1.0  0.30510  0.61880  0.91870  1.0000 -0.763488635
O   O52       1.0  0.55150  0.58900  0.92610  1.0000 -0.5433449394
