# DDEC6 charges by PACMAN v1.1 (https://github.com/mtap-research/PACMAN-charge/)
data_2020[Cu][pts]3[ASR]3
_chemical_formula_sum              "Cu4 H48 C80 N4 O18"
_cell_length_a       17.2103
_cell_length_b       17.2103
_cell_length_c       21.721
_cell_angle_alpha    73.2958
_cell_angle_beta     106.704
_cell_angle_gamma    87.6787

_symmetry_space_group_name_H-M    "P 1"
_symmetry_Int_Tables_number       1

loop_
  _symmetry_equiv_pos_as_xyz
  'x, y, z'

loop_
  _atom_site_type_symbol
  _atom_site_label
  _atom_site_symmetry_multiplicity
  _atom_site_fract_x
  _atom_site_fract_y
  _atom_site_fract_z
  _atom_site_occupancy
  _atom_site_charge
Cu  Cu1       1.0  0.00122  0.96162  0.95585  1.0000 0.8515226553
Cu  Cu2       1.0  0.96162  0.00122  0.54415  1.0000 0.8515226553
Cu  Cu3       1.0  0.99878  0.03838  0.04415  1.0000 0.8515226553
Cu  Cu4       1.0  0.03838  0.99878  0.45585  1.0000 0.8515226553
H   H1        1.0  0.94801  0.46739  0.27586  1.0000 0.2827150161
H   H2        1.0  0.94956  0.55044  0.23066  1.0000 0.2853562171
H   H3        1.0  0.70248  0.69660  0.18877  1.0000 0.1395854537
H   H4        1.0  0.85516  0.25470  0.46137  1.0000 0.1395854537
H   H5        1.0  0.69633  0.47087  0.30519  1.0000 0.1395854537
H   H6        1.0  0.92559  0.73247  0.05355  1.0000 0.1316225141
H   H7        1.0  0.84111  0.75953  0.23139  1.0000 0.1122578262
H   H8        1.0  0.80321  0.38989  0.40366  1.0000 0.1214802859
H   H9        1.0  0.89560  0.86464  0.17024  1.0000 0.1214802859
H   H10       1.0  0.86608  0.62980  0.11083  1.0000 0.1214802859
H   H11       1.0  0.88281  0.37335  0.25338  1.0000 0.1122578262
H   H12       1.0  0.93881  0.24029  0.31310  1.0000 0.1316225141
H   H13       1.0  0.46739  0.94801  0.22414  1.0000 0.2827150161
H   H14       1.0  0.55044  0.94956  0.26934  1.0000 0.2853562171
H   H15       1.0  0.69660  0.70248  0.31123  1.0000 0.1395854537
H   H16       1.0  0.25470  0.85516  0.03863  1.0000 0.1395854537
H   H17       1.0  0.47087  0.69633  0.19481  1.0000 0.1395854537
H   H18       1.0  0.73247  0.92559  0.44645  1.0000 0.1316225141
H   H19       1.0  0.75953  0.84111  0.26861  1.0000 0.1122578262
H   H20       1.0  0.38989  0.80321  0.09634  1.0000 0.1214802859
H   H21       1.0  0.86464  0.89560  0.32976  1.0000 0.1214802859
H   H22       1.0  0.62980  0.86608  0.38917  1.0000 0.1214802859
H   H23       1.0  0.37335  0.88281  0.24662  1.0000 0.1122578262
H   H24       1.0  0.24029  0.93881  0.18690  1.0000 0.1316225141
H   H25       1.0  0.05199  0.53261  0.72414  1.0000 0.2827150161
H   H26       1.0  0.05044  0.44956  0.76934  1.0000 0.2853562171
H   H27       1.0  0.29752  0.30340  0.81123  1.0000 0.1395854537
H   H28       1.0  0.14484  0.74530  0.53863  1.0000 0.1395854537
H   H29       1.0  0.30367  0.52913  0.69481  1.0000 0.1395854537
H   H30       1.0  0.07441  0.26753  0.94645  1.0000 0.1316225141
H   H31       1.0  0.15889  0.24047  0.76861  1.0000 0.1122578262
H   H32       1.0  0.19679  0.61011  0.59634  1.0000 0.1214802859
H   H33       1.0  0.10440  0.13536  0.82976  1.0000 0.1214802859
H   H34       1.0  0.13392  0.37020  0.88917  1.0000 0.1214802859
H   H35       1.0  0.11719  0.62665  0.74662  1.0000 0.1122578262
H   H36       1.0  0.06119  0.75971  0.68690  1.0000 0.1316225141
H   H37       1.0  0.53261  0.05199  0.77586  1.0000 0.2827150161
H   H38       1.0  0.44956  0.05044  0.73066  1.0000 0.2853562171
H   H39       1.0  0.30340  0.29752  0.68877  1.0000 0.1395854537
H   H40       1.0  0.74530  0.14484  0.96137  1.0000 0.1395854537
H   H41       1.0  0.52913  0.30367  0.80519  1.0000 0.1395854537
H   H42       1.0  0.26753  0.07441  0.55355  1.0000 0.1316225141
H   H43       1.0  0.24047  0.15889  0.73139  1.0000 0.1122578262
H   H44       1.0  0.61011  0.19679  0.90366  1.0000 0.1214802859
H   H45       1.0  0.13536  0.10440  0.67024  1.0000 0.1214802859
H   H46       1.0  0.37020  0.13392  0.61083  1.0000 0.1214802859
H   H47       1.0  0.62665  0.11719  0.75338  1.0000 0.1122578262
H   H48       1.0  0.75971  0.06119  0.81310  1.0000 0.1316225141
C   C1        1.0  0.91460  0.81000  0.10440  1.0000 -0.0599519219
C   C2        1.0  0.72750  0.64330  0.21310  1.0000 -0.2319384096
C   C3        1.0  0.68670  0.58930  0.24820  1.0000 0.2347070287
C   C4        1.0  0.80130  0.48270  0.28240  1.0000 -0.0097716619
C   C5        1.0  0.94910  0.87730  0.06690  1.0000 0.5721050362
C   C6        1.0  0.93990  0.14610  0.43410  1.0000 0.576463745
C   C7        1.0  0.90390  0.23250  0.39400  1.0000 -0.0503324661
C   C8        1.0  0.80320  0.62000  0.21330  1.0000 -0.0097716619
C   C9        1.0  0.86210  0.27870  0.41940  1.0000 -0.0951461186
C   C10       1.0  0.84550  0.68310  0.17700  1.0000 0.0781279095
C   C11       1.0  0.72400  0.50820  0.28230  1.0000 -0.2319384096
C   C12       1.0  0.84010  0.53990  0.24740  1.0000 0.1316225141
C   C13       1.0  0.83730  0.39710  0.32170  1.0000 0.0781279095
C   C14       1.0  0.90720  0.73940  0.08820  1.0000 -0.0782203897
C   C15       1.0  0.85620  0.75380  0.19490  1.0000 -0.1687800577
C   C16       1.0  0.82990  0.36010  0.38440  1.0000 -0.160590629
C   C17       1.0  0.88980  0.81700  0.15820  1.0000 -0.0782203897
C   C18       1.0  0.87200  0.67700  0.12350  1.0000 -0.1687800577
C   C19       1.0  0.87770  0.35030  0.29610  1.0000 -0.1687800577
C   C20       1.0  0.91090  0.26970  0.33200  1.0000 -0.0922465488
C   C21       1.0  0.81000  0.91460  0.39560  1.0000 -0.0599519219
C   C22       1.0  0.64330  0.72750  0.28690  1.0000 -0.2319384096
C   C23       1.0  0.58930  0.68670  0.25180  1.0000 0.2360619266
C   C24       1.0  0.48270  0.80130  0.21760  1.0000 -0.0097716619
C   C25       1.0  0.87730  0.94910  0.43310  1.0000 0.5721050362
C   C26       1.0  0.14610  0.93990  0.06590  1.0000 0.576463745
C   C27       1.0  0.23250  0.90390  0.10600  1.0000 -0.0503324661
C   C28       1.0  0.62000  0.80320  0.28670  1.0000 -0.0097716619
C   C29       1.0  0.27870  0.86210  0.08060  1.0000 -0.0922465488
C   C30       1.0  0.68310  0.84550  0.32300  1.0000 0.0781279095
C   C31       1.0  0.50820  0.72400  0.21770  1.0000 -0.2319384096
C   C32       1.0  0.53990  0.84010  0.25260  1.0000 0.1316225141
C   C33       1.0  0.39710  0.83730  0.17830  1.0000 0.0781279095
C   C34       1.0  0.73940  0.90720  0.41180  1.0000 -0.0782203897
C   C35       1.0  0.75380  0.85620  0.30510  1.0000 -0.1687800577
C   C36       1.0  0.36010  0.82990  0.11560  1.0000 -0.160590629
C   C37       1.0  0.81700  0.88980  0.34180  1.0000 -0.0782203897
C   C38       1.0  0.67700  0.87200  0.37650  1.0000 -0.1687800577
C   C39       1.0  0.35030  0.87770  0.20390  1.0000 -0.1687800577
C   C40       1.0  0.26970  0.91090  0.16800  1.0000 -0.0922465488
C   C41       1.0  0.08540  0.19000  0.89560  1.0000 -0.0599519219
C   C42       1.0  0.27250  0.35670  0.78690  1.0000 -0.2319384096
C   C43       1.0  0.31330  0.41070  0.75180  1.0000 0.2360619266
C   C44       1.0  0.19870  0.51730  0.71760  1.0000 -0.0097716619
C   C45       1.0  0.05090  0.12270  0.93310  1.0000 0.5721050362
C   C46       1.0  0.06010  0.85390  0.56590  1.0000 0.576463745
C   C47       1.0  0.09610  0.76750  0.60600  1.0000 -0.0503324661
C   C48       1.0  0.19680  0.38000  0.78670  1.0000 -0.0097716619
C   C49       1.0  0.13790  0.72130  0.58060  1.0000 -0.0951461186
C   C50       1.0  0.15450  0.31690  0.82300  1.0000 0.0781279095
C   C51       1.0  0.27600  0.49180  0.71770  1.0000 -0.2319384096
C   C52       1.0  0.15990  0.46010  0.75260  1.0000 0.1316225141
C   C53       1.0  0.16270  0.60290  0.67830  1.0000 0.0781279095
C   C54       1.0  0.09280  0.26060  0.91180  1.0000 -0.0782203897
C   C55       1.0  0.14380  0.24620  0.80510  1.0000 -0.1687800577
C   C56       1.0  0.17010  0.63990  0.61560  1.0000 -0.160590629
C   C57       1.0  0.11020  0.18300  0.84180  1.0000 -0.0782203897
C   C58       1.0  0.12800  0.32300  0.87650  1.0000 -0.1687800577
C   C59       1.0  0.12230  0.64970  0.70390  1.0000 -0.1687800577
C   C60       1.0  0.08910  0.73030  0.66800  1.0000 -0.0922465488
C   C61       1.0  0.19000  0.08540  0.60440  1.0000 -0.0599519219
C   C62       1.0  0.35670  0.27250  0.71310  1.0000 -0.2319384096
C   C63       1.0  0.41070  0.31330  0.74820  1.0000 0.2360619266
C   C64       1.0  0.51730  0.19870  0.78240  1.0000 -0.0097716619
C   C65       1.0  0.12270  0.05090  0.56690  1.0000 0.5721050362
C   C66       1.0  0.85390  0.06010  0.93410  1.0000 0.576463745
C   C67       1.0  0.76750  0.09610  0.89400  1.0000 -0.0503324661
C   C68       1.0  0.38000  0.19680  0.71330  1.0000 -0.0097716619
C   C69       1.0  0.72130  0.13790  0.91940  1.0000 -0.0922465488
C   C70       1.0  0.31690  0.15450  0.67700  1.0000 0.0781279095
C   C71       1.0  0.49180  0.27600  0.78230  1.0000 -0.2319384096
C   C72       1.0  0.46010  0.15990  0.74740  1.0000 0.1316225141
C   C73       1.0  0.60290  0.16270  0.82170  1.0000 0.0781279095
C   C74       1.0  0.26060  0.09280  0.58820  1.0000 -0.0782203897
C   C75       1.0  0.24620  0.14380  0.69490  1.0000 -0.1687800577
C   C76       1.0  0.63990  0.17010  0.88440  1.0000 -0.160590629
C   C77       1.0  0.18300  0.11020  0.65820  1.0000 -0.0782203897
C   C78       1.0  0.32300  0.12800  0.62350  1.0000 -0.1687800577
C   C79       1.0  0.64970  0.12230  0.79610  1.0000 -0.1687800577
C   C80       1.0  0.73030  0.08910  0.83200  1.0000 -0.0922465488
N   N1        1.0  0.92400  0.51600  0.25190  1.0000 -0.5991512527
N   N2        1.0  0.51600  0.92400  0.24810  1.0000 -0.5991512527
N   N3        1.0  0.07600  0.48400  0.74810  1.0000 -0.5991512527
N   N4        1.0  0.48400  0.07600  0.75190  1.0000 -0.5991512527
O   O1        1.0  0.96242  0.87242  0.01440  1.0000 -0.5089739303
O   O2        1.0  0.92090  0.11420  0.48610  1.0000 -0.5089739303
O   O3        1.0  0.98434  0.11116  0.41101  1.0000 -0.5089739303
O   O4        1.0  0.96069  0.93769  0.08929  1.0000 -0.5271894177
O   O5        1.0  0.87242  0.96242  0.48560  1.0000 -0.5089739303
O   O6        1.0  0.11420  0.92090  0.01390  1.0000 -0.5089739303
O   O7        1.0  0.11116  0.98434  0.08899  1.0000 -0.5089739303
O   O8        1.0  0.93769  0.96069  0.41071  1.0000 -0.5271894177
O   O9        1.0  0.03758  0.12758  0.98560  1.0000 -0.5089739303
O   O10       1.0  0.07910  0.88580  0.51390  1.0000 -0.5089739303
O   O11       1.0  0.01566  0.88884  0.58899  1.0000 -0.5089739303
O   O12       1.0  0.03931  0.06231  0.91071  1.0000 -0.5271894177
O   O13       1.0  0.12758  0.03758  0.51440  1.0000 -0.5089739303
O   O14       1.0  0.88580  0.07910  0.98610  1.0000 -0.5089739303
O   O15       1.0  0.88884  0.01566  0.91101  1.0000 -0.5089739303
O   O16       1.0  0.06231  0.03931  0.58929  1.0000 -0.5271894177
O   O17       1.0  0.60830  0.60830  0.25000  1.0000 -0.2128812959
O   O18       1.0  0.39170  0.39170  0.75000  1.0000 -0.2128812959
