# DDEC6 charges by PACMAN v1.1 (https://github.com/mtap-research/PACMAN-charge/)
data_2020[Ni][nan]3[ASR]5
_chemical_formula_sum              "Ni8 H48 C72 O32"
_cell_length_a       7.0945
_cell_length_b       13.5908
_cell_length_c       20.76
_cell_angle_alpha    98.708
_cell_angle_beta     95.197
_cell_angle_gamma    101.254

_symmetry_space_group_name_H-M    "P 1"
_symmetry_Int_Tables_number       1

loop_
  _symmetry_equiv_pos_as_xyz
  'x, y, z'

loop_
  _atom_site_type_symbol
  _atom_site_label
  _atom_site_symmetry_multiplicity
  _atom_site_fract_x
  _atom_site_fract_y
  _atom_site_fract_z
  _atom_site_occupancy
  _atom_site_charge
Ni  Ni1       1.0  0.41549  0.64835  0.78388  1.0000 0.9709232787
Ni  Ni2       1.0  0.16596  0.43515  0.73483  1.0000 0.9709232787
Ni  Ni3       1.0  0.63009  0.44052  0.73098  1.0000 0.9613563259
Ni  Ni4       1.0  0.94539  0.64025  0.78740  1.0000 0.9709232787
Ni  Ni5       1.0  0.58451  0.35165  0.21612  1.0000 0.9709232787
Ni  Ni6       1.0  0.83404  0.56485  0.26517  1.0000 0.9709232787
Ni  Ni7       1.0  0.36991  0.55948  0.26902  1.0000 0.9613563259
Ni  Ni8       1.0  0.05461  0.35975  0.21260  1.0000 0.9709232787
H   H1        1.0  0.17404  0.48773  0.52329  1.0000 0.1210425055
H   H2        1.0  0.18223  0.47482  0.41111  1.0000 0.1284741436
H   H3        1.0  0.31599  0.51560  0.96446  1.0000 0.1284741436
H   H4        1.0  0.25738  0.47349  0.06632  1.0000 0.1284741436
H   H5        1.0  0.43378  0.98743  0.84195  1.0000 0.1210425055
H   H6        1.0  0.02717  0.82408  0.65164  1.0000 0.1210425055
H   H7        1.0  0.48504  0.15934  0.83397  1.0000 0.1210425055
H   H8        1.0  0.46458  0.23061  0.57976  1.0000 0.1210425055
H   H9        1.0  0.13957  0.16634  0.63486  1.0000 0.1210425055
H   H10       1.0  0.49428  0.20735  0.35632  1.0000 0.1284741436
H   H11       1.0  0.04038  0.74956  0.17247  1.0000 0.1284741436
H   H12       1.0  0.59191  0.08960  0.41114  1.0000 0.1104042011
H   H13       1.0  0.89982  0.87462  0.56076  1.0000 0.1104042011
H   H14       1.0  0.95530  0.04704  0.55239  1.0000 0.1104042011
H   H15       1.0  0.58129  0.10283  0.52430  1.0000 0.1104042011
H   H16       1.0  0.19335  0.83809  0.97361  1.0000 0.1210425055
H   H17       1.0  0.03651  0.90918  0.15187  1.0000 0.1104042011
H   H18       1.0  0.11899  0.95430  0.05261  1.0000 0.1104042011
H   H19       1.0  0.44800  0.48760  0.81450  1.0000 0.3795960684
H   H20       1.0  0.12600  0.59570  0.70300  1.0000 0.3795960684
H   H21       1.0  0.86400  0.38200  0.65250  1.0000 0.3424871851
H   H22       1.0  0.74000  0.76970  0.82230  1.0000 0.3697846372
H   H23       1.0  0.82400  0.30910  0.68880  1.0000 0.3469956358
H   H24       1.0  0.72700  0.70900  0.86980  1.0000 0.3697846372
H   H25       1.0  0.82596  0.51227  0.47671  1.0000 0.1210425055
H   H26       1.0  0.81777  0.52518  0.58889  1.0000 0.1284741436
H   H27       1.0  0.68401  0.48440  0.03554  1.0000 0.1284741436
H   H28       1.0  0.74262  0.52651  0.93368  1.0000 0.1284741436
H   H29       1.0  0.56622  0.01257  0.15805  1.0000 0.1210425055
H   H30       1.0  0.97283  0.17592  0.34836  1.0000 0.1210425055
H   H31       1.0  0.51496  0.84066  0.16603  1.0000 0.1210425055
H   H32       1.0  0.53542  0.76939  0.42024  1.0000 0.1210425055
H   H33       1.0  0.86043  0.83366  0.36514  1.0000 0.1210425055
H   H34       1.0  0.50572  0.79265  0.64368  1.0000 0.1284741436
H   H35       1.0  0.95962  0.25044  0.82753  1.0000 0.1284741436
H   H36       1.0  0.40809  0.91040  0.58886  1.0000 0.1104042011
H   H37       1.0  0.10018  0.12538  0.43924  1.0000 0.1104042011
H   H38       1.0  0.04470  0.95296  0.44761  1.0000 0.1104042011
H   H39       1.0  0.41871  0.89717  0.47570  1.0000 0.1104042011
H   H40       1.0  0.80665  0.16191  0.02639  1.0000 0.1210425055
H   H41       1.0  0.96349  0.09082  0.84813  1.0000 0.1104042011
H   H42       1.0  0.88101  0.04570  0.94739  1.0000 0.1104042011
H   H43       1.0  0.55200  0.51240  0.18550  1.0000 0.3795960684
H   H44       1.0  0.87400  0.40430  0.29700  1.0000 0.3795960684
H   H45       1.0  0.13600  0.61800  0.34750  1.0000 0.3424871851
H   H46       1.0  0.26000  0.23030  0.17770  1.0000 0.3697846372
H   H47       1.0  0.17600  0.69090  0.31120  1.0000 0.3469956358
H   H48       1.0  0.27300  0.29100  0.13020  1.0000 0.3697846372
C   C1        1.0  0.35830  0.37404  0.33002  1.0000 0.6066531975
C   C2        1.0  0.08080  0.55504  0.15760  1.0000 0.5993026782
C   C3        1.0  0.40980  0.29343  0.43348  1.0000 0.0585215677
C   C4        1.0  0.33210  0.36487  0.40003  1.0000 -0.0687743361
C   C5        1.0  0.33670  0.40102  0.61022  1.0000 0.5870949466
C   C6        1.0  0.31910  0.37838  0.53635  1.0000 -0.0599427508
C   C7        1.0  0.15270  0.59567  0.09929  1.0000 -0.0599427508
C   C8        1.0  0.40130  0.30030  0.50235  1.0000 0.051132691
C   C9        1.0  0.23140  0.66043  0.90655  1.0000 0.5993026782
C   C10       1.0  0.23060  0.64805  0.97744  1.0000 -0.0599427508
C   C11       1.0  0.25340  0.93546  0.75871  1.0000 -0.0599427508
C   C12       1.0  0.23540  0.44027  0.50162  1.0000 -0.117903571
C   C13       1.0  0.24140  0.43268  0.43376  1.0000 -0.1016045223
C   C14       1.0  0.19870  0.06998  0.69660  1.0000 0.051132691
C   C15       1.0  0.16480  0.96453  0.70205  1.0000 0.051132691
C   C16       1.0  0.35300  0.25517  0.74618  1.0000 0.5993026782
C   C17       1.0  0.12980  0.69350  0.08632  1.0000 0.0585215677
C   C18       1.0  0.22050  0.82583  0.76839  1.0000 0.5993026782
C   C19       1.0  0.31810  0.14283  0.74828  1.0000 -0.0547139879
C   C20       1.0  0.26650  0.55933  0.99408  1.0000 -0.117903571
C   C21       1.0  0.17490  0.72037  0.02487  1.0000 0.051132691
C   C22       1.0  0.22950  0.53343  0.05540  1.0000 -0.1090433012
C   C23       1.0  0.37290  0.00748  0.80607  1.0000 -0.117903571
C   C24       1.0  0.05050  0.89303  0.64904  1.0000 -0.1288961917
C   C25       1.0  0.40460  0.11144  0.80110  1.0000 -0.1090433012
C   C26       1.0  0.46860  0.22641  0.53480  1.0000 -0.1394116442
C   C27       1.0  0.11760  0.09799  0.63901  1.0000 -0.1288961917
C   C28       1.0  0.48560  0.21254  0.40109  1.0000 -0.1288961917
C   C29       1.0  0.07470  0.76677  0.13279  1.0000 -0.1288961917
C   C30       1.0  0.54570  0.14260  0.43379  1.0000 -0.0902019986
C   C31       1.0  0.97440  0.92294  0.59472  1.0000 -0.0902019986
C   C32       1.0  0.00810  0.02690  0.58964  1.0000 -0.1090433012
C   C33       1.0  0.53830  0.15020  0.50193  1.0000 -0.1016045223
C   C34       1.0  0.16630  0.81980  0.01373  1.0000 -0.1394116442
C   C35       1.0  0.07110  0.86180  0.12042  1.0000 -0.0902019986
C   C36       1.0  0.11930  0.88870  0.06037  1.0000 -0.1016045223
C   C37       1.0  0.64170  0.62596  0.66998  1.0000 0.6066531975
C   C38       1.0  0.91920  0.44496  0.84240  1.0000 0.5993026782
C   C39       1.0  0.59020  0.70657  0.56652  1.0000 0.0585215677
C   C40       1.0  0.66790  0.63513  0.59997  1.0000 -0.0687743361
C   C41       1.0  0.66330  0.59898  0.38978  1.0000 0.5870949466
C   C42       1.0  0.68090  0.62162  0.46365  1.0000 -0.0599427508
C   C43       1.0  0.84730  0.40433  0.90071  1.0000 -0.0599427508
C   C44       1.0  0.59870  0.69970  0.49765  1.0000 0.051132691
C   C45       1.0  0.76860  0.33957  0.09345  1.0000 0.5993026782
C   C46       1.0  0.76940  0.35195  0.02256  1.0000 -0.0599427508
C   C47       1.0  0.74660  0.06454  0.24129  1.0000 -0.0599427508
C   C48       1.0  0.76460  0.55973  0.49838  1.0000 -0.117903571
C   C49       1.0  0.75860  0.56732  0.56624  1.0000 -0.1016045223
C   C50       1.0  0.80130  0.93002  0.30340  1.0000 0.051132691
C   C51       1.0  0.83520  0.03547  0.29795  1.0000 0.051132691
C   C52       1.0  0.64700  0.74483  0.25382  1.0000 0.5993026782
C   C53       1.0  0.87020  0.30650  0.91368  1.0000 0.0585215677
C   C54       1.0  0.77950  0.17417  0.23161  1.0000 0.5993026782
C   C55       1.0  0.68190  0.85717  0.25172  1.0000 -0.0547139879
C   C56       1.0  0.73350  0.44067  0.00592  1.0000 -0.117903571
C   C57       1.0  0.82510  0.27963  0.97513  1.0000 0.051132691
C   C58       1.0  0.77050  0.46657  0.94460  1.0000 -0.1090433012
C   C59       1.0  0.62710  0.99252  0.19393  1.0000 -0.117903571
C   C60       1.0  0.94950  0.10697  0.35096  1.0000 -0.117903571
C   C61       1.0  0.59540  0.88856  0.19890  1.0000 -0.1090433012
C   C62       1.0  0.53140  0.77359  0.46520  1.0000 -0.1394116442
C   C63       1.0  0.88240  0.90201  0.36099  1.0000 -0.1288961917
C   C64       1.0  0.51440  0.78746  0.59891  1.0000 -0.1288961917
C   C65       1.0  0.92530  0.23323  0.86721  1.0000 -0.1288961917
C   C66       1.0  0.45430  0.85740  0.56621  1.0000 -0.0902019986
C   C67       1.0  0.02560  0.07706  0.40528  1.0000 -0.0902019986
C   C68       1.0  0.99190  0.97310  0.41036  1.0000 -0.1090433012
C   C69       1.0  0.46170  0.84980  0.49807  1.0000 -0.1016045223
C   C70       1.0  0.83370  0.18020  0.98627  1.0000 -0.1394116442
C   C71       1.0  0.92890  0.13820  0.87958  1.0000 -0.0902019986
C   C72       1.0  0.88070  0.11130  0.93963  1.0000 -0.1016045223
O   O1        1.0  0.24380  0.42005  0.29994  1.0000 -0.6160684537
O   O2        1.0  0.14139  0.58153  0.74080  1.0000 -0.8370887797
O   O3        1.0  0.17940  0.49836  0.18439  1.0000 -0.6160684537
O   O4        1.0  0.43790  0.50110  0.77645  1.0000 -0.8290048997
O   O5        1.0  0.36960  0.79394  0.78469  1.0000 -0.5703257581
O   O6        1.0  0.71830  0.70638  0.82616  1.0000 -0.6468571584
O   O7        1.0  0.86120  0.37407  0.69191  1.0000 -0.6329253475
O   O8        1.0  0.92760  0.57445  0.17537  1.0000 -0.5116256039
O   O9        1.0  0.49370  0.34207  0.30574  1.0000 -0.5158453743
O   O10       1.0  0.37390  0.64338  0.87869  1.0000 -0.5604208033
O   O11       1.0  0.19760  0.42706  0.63658  1.0000 -0.5604208033
O   O12       1.0  0.49540  0.39555  0.64004  1.0000 -0.5604208033
O   O13       1.0  0.20590  0.29056  0.73341  1.0000 -0.5604208033
O   O14       1.0  0.08240  0.68252  0.88007  1.0000 -0.5604208033
O   O15       1.0  0.52730  0.30312  0.75708  1.0000 -0.5703257581
O   O16       1.0  0.04720  0.77677  0.76029  1.0000 -0.5703257581
O   O17       1.0  0.75620  0.57995  0.70006  1.0000 -0.6160684537
O   O18       1.0  0.85861  0.41847  0.25920  1.0000 -0.8370887797
O   O19       1.0  0.82060  0.50164  0.81561  1.0000 -0.6160684537
O   O20       1.0  0.56210  0.49890  0.22355  1.0000 -0.8290048997
O   O21       1.0  0.63040  0.20606  0.21531  1.0000 -0.5703257581
O   O22       1.0  0.28170  0.29362  0.17384  1.0000 -0.6468571584
O   O23       1.0  0.13880  0.62593  0.30809  1.0000 -0.6329253475
O   O24       1.0  0.07240  0.42555  0.82463  1.0000 -0.5116256039
O   O25       1.0  0.50630  0.65793  0.69426  1.0000 -0.5158453743
O   O26       1.0  0.62610  0.35662  0.12131  1.0000 -0.5604208033
O   O27       1.0  0.80240  0.57294  0.36342  1.0000 -0.5604208033
O   O28       1.0  0.50460  0.60445  0.35996  1.0000 -0.5604208033
O   O29       1.0  0.79410  0.70944  0.26659  1.0000 -0.5604208033
O   O30       1.0  0.91760  0.31748  0.11993  1.0000 -0.5604208033
O   O31       1.0  0.47270  0.69688  0.24292  1.0000 -0.5703257581
O   O32       1.0  0.95280  0.22323  0.23971  1.0000 -0.5703257581
