# DDEC6 charges by PACMAN v1.1 (https://github.com/mtap-research/PACMAN-charge/)
data_2020[Gd][nan]3[ASR]3
_chemical_formula_sum              "Gd4 H60 C108 O24"
_cell_length_a       17.7156
_cell_length_b       17.7156
_cell_length_c       27.6641
_cell_angle_alpha    71.6557
_cell_angle_beta     108.344
_cell_angle_gamma    145.033

_symmetry_space_group_name_H-M    "P 1"
_symmetry_Int_Tables_number       1

loop_
  _symmetry_equiv_pos_as_xyz
  'x, y, z'

loop_
  _atom_site_type_symbol
  _atom_site_label
  _atom_site_symmetry_multiplicity
  _atom_site_fract_x
  _atom_site_fract_y
  _atom_site_fract_z
  _atom_site_occupancy
  _atom_site_charge
Gd  Gd1       1.0  0.04846  0.15976  0.48364  1.0000 2.0518541871
Gd  Gd2       1.0  0.15976  0.04846  0.01636  1.0000 2.0518541871
Gd  Gd3       1.0  0.95154  0.84024  0.51636  1.0000 2.0518541871
Gd  Gd4       1.0  0.84024  0.95154  0.98364  1.0000 2.0518541871
H   H1        1.0  0.79903  0.97957  0.57312  1.0000 0.1367535977
H   H2        1.0  0.64534  0.90228  0.61234  1.0000 0.1192340162
H   H3        1.0  0.49640  0.56338  0.66330  1.0000 0.1103302712
H   H4        1.0  0.65150  0.64134  0.62443  1.0000 0.1192340162
H   H5        1.0  0.43074  0.76436  0.61354  1.0000 0.1103302712
H   H6        1.0  0.19699  0.54413  0.72630  1.0000 0.1103302712
H   H7        1.0  0.44443  0.56951  0.72865  1.0000 0.1103302712
H   H8        1.0  0.27153  0.72353  0.56795  1.0000 0.1103302712
H   H9        1.0  0.17854  0.77318  0.52952  1.0000 0.12638609
H   H10       1.0  0.10651  0.72617  0.66646  1.0000 0.12638609
H   H11       1.0  0.20291  0.68017  0.70529  1.0000 0.1103302712
H   H12       1.0  0.08125  0.35149  0.77283  1.0000 0.1103302712
H   H13       1.0  0.01265  0.22339  0.85033  1.0000 0.1367535977
H   H14       1.0  0.36620  0.39860  0.89130  1.0000 0.1192340162
H   H15       1.0  0.43821  0.53269  0.81480  1.0000 0.1039227484
H   H16       1.0  0.97957  0.79903  0.92688  1.0000 0.1367535977
H   H17       1.0  0.90228  0.64534  0.88766  1.0000 0.1192340162
H   H18       1.0  0.56338  0.49640  0.83670  1.0000 0.1103302712
H   H19       1.0  0.64134  0.65150  0.87557  1.0000 0.1192340162
H   H20       1.0  0.76436  0.43074  0.88646  1.0000 0.1103302712
H   H21       1.0  0.54413  0.19699  0.77370  1.0000 0.1103302712
H   H22       1.0  0.56951  0.44443  0.77135  1.0000 0.1103302712
H   H23       1.0  0.72353  0.27153  0.93205  1.0000 0.1103302712
H   H24       1.0  0.77318  0.17854  0.97048  1.0000 0.12638609
H   H25       1.0  0.72617  0.10651  0.83354  1.0000 0.12638609
H   H26       1.0  0.68017  0.20291  0.79471  1.0000 0.1103302712
H   H27       1.0  0.35149  0.08125  0.72717  1.0000 0.1103302712
H   H28       1.0  0.22339  0.01265  0.64967  1.0000 0.1367535977
H   H29       1.0  0.39860  0.36620  0.60870  1.0000 0.1192340162
H   H30       1.0  0.53269  0.43821  0.68520  1.0000 0.1039227484
H   H31       1.0  0.20097  0.02043  0.42688  1.0000 0.1367535977
H   H32       1.0  0.35466  0.09772  0.38766  1.0000 0.1192340162
H   H33       1.0  0.50360  0.43662  0.33670  1.0000 0.1103302712
H   H34       1.0  0.34850  0.35866  0.37557  1.0000 0.1192340162
H   H35       1.0  0.56926  0.23564  0.38646  1.0000 0.1103302712
H   H36       1.0  0.80301  0.45587  0.27370  1.0000 0.1103302712
H   H37       1.0  0.55557  0.43049  0.27135  1.0000 0.1103302712
H   H38       1.0  0.72847  0.27647  0.43205  1.0000 0.1103302712
H   H39       1.0  0.82146  0.22682  0.47048  1.0000 0.1192340162
H   H40       1.0  0.89349  0.27383  0.33354  1.0000 0.12638609
H   H41       1.0  0.79709  0.31983  0.29471  1.0000 0.1103302712
H   H42       1.0  0.91875  0.64851  0.22717  1.0000 0.1103302712
H   H43       1.0  0.98735  0.77661  0.14967  1.0000 0.1367535977
H   H44       1.0  0.63380  0.60140  0.10870  1.0000 0.1192340162
H   H45       1.0  0.56179  0.46731  0.18520  1.0000 0.1039227484
H   H46       1.0  0.02043  0.20097  0.07312  1.0000 0.1367535977
H   H47       1.0  0.09772  0.35466  0.11234  1.0000 0.1192340162
H   H48       1.0  0.43662  0.50360  0.16330  1.0000 0.1103302712
H   H49       1.0  0.35866  0.34850  0.12443  1.0000 0.1192340162
H   H50       1.0  0.23564  0.56926  0.11354  1.0000 0.1103302712
H   H51       1.0  0.45587  0.80301  0.22630  1.0000 0.1103302712
H   H52       1.0  0.43049  0.55557  0.22865  1.0000 0.1103302712
H   H53       1.0  0.27647  0.72847  0.06795  1.0000 0.1103302712
H   H54       1.0  0.22682  0.82146  0.02952  1.0000 0.1192340162
H   H55       1.0  0.27383  0.89349  0.16646  1.0000 0.12638609
H   H56       1.0  0.31983  0.79709  0.20529  1.0000 0.1103302712
H   H57       1.0  0.64851  0.91875  0.27283  1.0000 0.1103302712
H   H58       1.0  0.77661  0.98735  0.35033  1.0000 0.1367535977
H   H59       1.0  0.60140  0.63380  0.39130  1.0000 0.1192340162
H   H60       1.0  0.46731  0.56179  0.31480  1.0000 0.1039227484
C   C1        1.0  0.84036  0.86764  0.56850  1.0000 0.6516820579
C   C2        1.0  0.74231  0.81909  0.59513  1.0000 -0.0304063864
C   C3        1.0  0.73883  0.89617  0.59148  1.0000 -0.0908076874
C   C4        1.0  0.64623  0.84937  0.61496  1.0000 -0.1429059566
C   C5        1.0  0.55415  0.72465  0.64252  1.0000 0.0721093641
C   C6        1.0  0.55753  0.64747  0.64543  1.0000 -0.1585392889
C   C7        1.0  0.65052  0.69408  0.62206  1.0000 -0.0908076874
C   C8        1.0  0.45418  0.67502  0.66716  1.0000 0.0774828464
C   C9        1.0  0.40109  0.70871  0.64400  1.0000 -0.2005678029
C   C10       1.0  0.30432  0.66048  0.66573  1.0000 0.0774828464
C   C11       1.0  0.26169  0.57731  0.71154  1.0000 -0.1912543536
C   C12       1.0  0.31338  0.54282  0.73566  1.0000 0.0774828464
C   C13       1.0  0.40950  0.59230  0.71292  1.0000 -0.2005678029
C   C14       1.0  0.24626  0.69454  0.64087  1.0000 0.0721093641
C   C15       1.0  0.23850  0.72390  0.58804  1.0000 -0.1516421722
C   C16       1.0  0.18267  0.75373  0.56488  1.0000 -0.0908076874
C   C17       1.0  0.13286  0.75474  0.59414  1.0000 -0.0198855736
C   C18       1.0  0.14020  0.72620  0.64658  1.0000 -0.0908076874
C   C19       1.0  0.19723  0.69757  0.66985  1.0000 -0.1585392889
C   C20       1.0  0.07188  0.78632  0.56914  1.0000 0.5611112057
C   C21       1.0  0.26666  0.45534  0.78473  1.0000 0.0721093641
C   C22       1.0  0.13924  0.36176  0.79661  1.0000 -0.1516421722
C   C23       1.0  0.09765  0.28415  0.84303  1.0000 -0.0908076874
C   C24       1.0  0.18137  0.29583  0.87892  1.0000 -0.0304063864
C   C25       1.0  0.30893  0.38947  0.86758  1.0000 -0.0908076874
C   C26       1.0  0.35191  0.46929  0.82142  1.0000 -0.1585392889
C   C27       1.0  0.13200  0.20500  0.92784  1.0000 0.6516820579
C   C28       1.0  0.86764  0.84036  0.93150  1.0000 0.6516820579
C   C29       1.0  0.81909  0.74231  0.90487  1.0000 -0.0304063864
C   C30       1.0  0.89617  0.73883  0.90852  1.0000 -0.0908076874
C   C31       1.0  0.84937  0.64623  0.88504  1.0000 -0.1429059566
C   C32       1.0  0.72465  0.55415  0.85748  1.0000 0.0721093641
C   C33       1.0  0.64747  0.55753  0.85457  1.0000 -0.1585392889
C   C34       1.0  0.69408  0.65052  0.87794  1.0000 -0.0908076874
C   C35       1.0  0.67502  0.45418  0.83284  1.0000 0.0774828464
C   C36       1.0  0.70871  0.40109  0.85600  1.0000 -0.2005678029
C   C37       1.0  0.66048  0.30432  0.83427  1.0000 0.0774828464
C   C38       1.0  0.57731  0.26169  0.78846  1.0000 -0.1912543536
C   C39       1.0  0.54282  0.31338  0.76434  1.0000 0.0774828464
C   C40       1.0  0.59230  0.40950  0.78708  1.0000 -0.2005678029
C   C41       1.0  0.69454  0.24626  0.85913  1.0000 0.0721093641
C   C42       1.0  0.72390  0.23850  0.91196  1.0000 -0.1516421722
C   C43       1.0  0.75373  0.18267  0.93512  1.0000 -0.0908076874
C   C44       1.0  0.75474  0.13286  0.90586  1.0000 -0.0198855736
C   C45       1.0  0.72620  0.14020  0.85342  1.0000 -0.0908076874
C   C46       1.0  0.69757  0.19723  0.83015  1.0000 -0.1585392889
C   C47       1.0  0.78632  0.07188  0.93086  1.0000 0.5611112057
C   C48       1.0  0.45534  0.26666  0.71527  1.0000 0.0721093641
C   C49       1.0  0.36176  0.13924  0.70339  1.0000 -0.1516421722
C   C50       1.0  0.28415  0.09765  0.65697  1.0000 -0.0908076874
C   C51       1.0  0.29583  0.18137  0.62108  1.0000 -0.0304063864
C   C52       1.0  0.38947  0.30893  0.63242  1.0000 -0.0908076874
C   C53       1.0  0.46929  0.35191  0.67858  1.0000 -0.1585392889
C   C54       1.0  0.20500  0.13200  0.57216  1.0000 0.6516820579
C   C55       1.0  0.15964  0.13236  0.43150  1.0000 0.6516820579
C   C56       1.0  0.25769  0.18091  0.40487  1.0000 -0.0304063864
C   C57       1.0  0.26117  0.10383  0.40852  1.0000 -0.0908076874
C   C58       1.0  0.35377  0.15063  0.38504  1.0000 -0.1429059566
C   C59       1.0  0.44585  0.27535  0.35748  1.0000 0.0721093641
C   C60       1.0  0.44247  0.35253  0.35457  1.0000 -0.1585392889
C   C61       1.0  0.34948  0.30592  0.37794  1.0000 -0.0908076874
C   C62       1.0  0.54582  0.32498  0.33284  1.0000 0.0774828464
C   C63       1.0  0.59891  0.29129  0.35600  1.0000 -0.2005678029
C   C64       1.0  0.69568  0.33952  0.33427  1.0000 0.0774828464
C   C65       1.0  0.73831  0.42269  0.28846  1.0000 -0.1912543536
C   C66       1.0  0.68662  0.45718  0.26434  1.0000 0.0774828464
C   C67       1.0  0.59050  0.40770  0.28708  1.0000 -0.2005678029
C   C68       1.0  0.75374  0.30546  0.35913  1.0000 0.0721093641
C   C69       1.0  0.76150  0.27610  0.41196  1.0000 -0.1516421722
C   C70       1.0  0.81733  0.24627  0.43512  1.0000 -0.0908076874
C   C71       1.0  0.86714  0.24526  0.40586  1.0000 -0.0198855736
C   C72       1.0  0.85980  0.27380  0.35342  1.0000 -0.0908076874
C   C73       1.0  0.80277  0.30243  0.33015  1.0000 -0.1585392889
C   C74       1.0  0.92812  0.21368  0.43086  1.0000 0.5611112057
C   C75       1.0  0.73334  0.54466  0.21527  1.0000 0.0721093641
C   C76       1.0  0.86076  0.63824  0.20339  1.0000 -0.1516421722
C   C77       1.0  0.90235  0.71585  0.15697  1.0000 -0.0908076874
C   C78       1.0  0.81863  0.70417  0.12108  1.0000 -0.0304063864
C   C79       1.0  0.69107  0.61053  0.13242  1.0000 -0.0908076874
C   C80       1.0  0.64809  0.53071  0.17858  1.0000 -0.1585392889
C   C81       1.0  0.86800  0.79500  0.07216  1.0000 0.6516820579
C   C82       1.0  0.13236  0.15964  0.06850  1.0000 0.6516820579
C   C83       1.0  0.18091  0.25769  0.09513  1.0000 -0.0304063864
C   C84       1.0  0.10383  0.26117  0.09148  1.0000 -0.0908076874
C   C85       1.0  0.15063  0.35377  0.11496  1.0000 -0.1429059566
C   C86       1.0  0.27535  0.44585  0.14252  1.0000 0.0721093641
C   C87       1.0  0.35253  0.44247  0.14543  1.0000 -0.1585392889
C   C88       1.0  0.30592  0.34948  0.12206  1.0000 -0.0908076874
C   C89       1.0  0.32498  0.54582  0.16716  1.0000 0.0774828464
C   C90       1.0  0.29129  0.59891  0.14400  1.0000 -0.2005678029
C   C91       1.0  0.33952  0.69568  0.16573  1.0000 0.0774828464
C   C92       1.0  0.42269  0.73831  0.21154  1.0000 -0.1912543536
C   C93       1.0  0.45718  0.68662  0.23566  1.0000 0.0774828464
C   C94       1.0  0.40770  0.59050  0.21292  1.0000 -0.2005678029
C   C95       1.0  0.30546  0.75374  0.14087  1.0000 0.0721093641
C   C96       1.0  0.27610  0.76150  0.08804  1.0000 -0.1516421722
C   C97       1.0  0.24627  0.81733  0.06488  1.0000 -0.0908076874
C   C98       1.0  0.24526  0.86714  0.09414  1.0000 -0.0198855736
C   C99       1.0  0.27380  0.85980  0.14658  1.0000 -0.0908076874
C   C100      1.0  0.30243  0.80277  0.16985  1.0000 -0.1585392889
C   C101      1.0  0.21368  0.92812  0.06914  1.0000 0.5611112057
C   C102      1.0  0.54466  0.73334  0.28473  1.0000 0.0721093641
C   C103      1.0  0.63824  0.86076  0.29661  1.0000 -0.1516421722
C   C104      1.0  0.71585  0.90235  0.34303  1.0000 -0.0908076874
C   C105      1.0  0.70417  0.81863  0.37892  1.0000 -0.0304063864
C   C106      1.0  0.61053  0.69107  0.36758  1.0000 -0.0908076874
C   C107      1.0  0.53071  0.64809  0.32142  1.0000 -0.1585392889
C   C108      1.0  0.79500  0.86800  0.42784  1.0000 0.6516820579
O   O1        1.0  0.92037  0.98063  0.54376  1.0000 -0.7079602243
O   O2        1.0  0.83681  0.79259  0.57183  1.0000 -0.6358214379
O   O3        1.0  0.08317  0.83025  0.52227  1.0000 -0.6604404808
O   O4        1.0  0.00964  0.76872  0.59436  1.0000 -0.6336845518
O   O5        1.0  0.01804  0.12878  0.93587  1.0000 -0.6604404808
O   O6        1.0  0.20630  0.20970  0.95710  1.0000 -0.6836564005
O   O7        1.0  0.98063  0.92037  0.95624  1.0000 -0.7079602243
O   O8        1.0  0.79259  0.83681  0.92817  1.0000 -0.6358214379
O   O9        1.0  0.83025  0.08317  0.97773  1.0000 -0.6604404808
O   O10       1.0  0.76872  0.00964  0.90564  1.0000 -0.6336845518
O   O11       1.0  0.12878  0.01804  0.56413  1.0000 -0.6604404808
O   O12       1.0  0.20970  0.20630  0.54290  1.0000 -0.6836564005
O   O13       1.0  0.07963  0.01937  0.45624  1.0000 -0.7079602243
O   O14       1.0  0.16319  0.20741  0.42817  1.0000 -0.6358214379
O   O15       1.0  0.91683  0.16975  0.47773  1.0000 -0.6604404808
O   O16       1.0  0.99036  0.23128  0.40564  1.0000 -0.6336845518
O   O17       1.0  0.98196  0.87122  0.06413  1.0000 -0.6604404808
O   O18       1.0  0.79370  0.79030  0.04290  1.0000 -0.6836564005
O   O19       1.0  0.01937  0.07963  0.04376  1.0000 -0.7079602243
O   O20       1.0  0.20741  0.16319  0.07183  1.0000 -0.6358214379
O   O21       1.0  0.16975  0.91683  0.02227  1.0000 -0.6604404808
O   O22       1.0  0.23128  0.99036  0.09436  1.0000 -0.6336845518
O   O23       1.0  0.87122  0.98196  0.43587  1.0000 -0.6604404808
O   O24       1.0  0.79030  0.79370  0.45710  1.0000 -0.6836564005
