# DDEC6 charges by PACMAN v1.1 (https://github.com/mtap-research/PACMAN-charge/)
data_2020[Cu][sql]2[ASR]16
_chemical_formula_sum              "Cu4 H32 C68 O16 F24"
_cell_length_a       16.0771
_cell_length_b       16.0771
_cell_length_c       23.509
_cell_angle_alpha    60.3254
_cell_angle_beta     119.675
_cell_angle_gamma    154.784

_symmetry_space_group_name_H-M    "P 1"
_symmetry_Int_Tables_number       1

loop_
  _symmetry_equiv_pos_as_xyz
  'x, y, z'

loop_
  _atom_site_type_symbol
  _atom_site_label
  _atom_site_symmetry_multiplicity
  _atom_site_fract_x
  _atom_site_fract_y
  _atom_site_fract_z
  _atom_site_occupancy
  _atom_site_charge
Cu  Cu1       1.0  0.31999  0.37667  0.97948  1.0000 0.8267300624
Cu  Cu2       1.0  0.37667  0.31999  0.52052  1.0000 0.8267300624
Cu  Cu3       1.0  0.68001  0.62333  0.02052  1.0000 0.8267300624
Cu  Cu4       1.0  0.62333  0.68001  0.47948  1.0000 0.8267300624
H   H1        1.0  0.59615  0.33333  0.21455  1.0000 0.128350809
H   H2        1.0  0.51019  0.14457  0.31713  1.0000 0.1195201668
H   H3        1.0  0.94955  0.75497  0.25669  1.0000 0.1195201668
H   H4        1.0  0.03815  0.94409  0.15338  1.0000 0.128350809
H   H5        1.0  0.62427  0.36801  0.45446  1.0000 0.1195201668
H   H6        1.0  0.80491  0.44501  0.42050  1.0000 0.1195201668
H   H7        1.0  0.03084  0.93574  0.40160  1.0000 0.128350809
H   H8        1.0  0.20239  0.00743  0.36342  1.0000 0.1195201668
H   H9        1.0  0.33333  0.59615  0.28545  1.0000 0.128350809
H   H10       1.0  0.14457  0.51019  0.18287  1.0000 0.1195201668
H   H11       1.0  0.75497  0.94955  0.24331  1.0000 0.1195201668
H   H12       1.0  0.94409  0.03815  0.34662  1.0000 0.128350809
H   H13       1.0  0.36801  0.62427  0.04554  1.0000 0.1195201668
H   H14       1.0  0.44501  0.80491  0.07950  1.0000 0.1195201668
H   H15       1.0  0.93574  0.03084  0.09840  1.0000 0.128350809
H   H16       1.0  0.00743  0.20239  0.13658  1.0000 0.1195201668
H   H17       1.0  0.40385  0.66667  0.78545  1.0000 0.128350809
H   H18       1.0  0.48981  0.85543  0.68287  1.0000 0.1195201668
H   H19       1.0  0.05045  0.24503  0.74331  1.0000 0.1195201668
H   H20       1.0  0.96185  0.05591  0.84662  1.0000 0.128350809
H   H21       1.0  0.37573  0.63199  0.54554  1.0000 0.1195201668
H   H22       1.0  0.19509  0.55499  0.57950  1.0000 0.1195201668
H   H23       1.0  0.96916  0.06426  0.59840  1.0000 0.128350809
H   H24       1.0  0.79761  0.99257  0.63658  1.0000 0.1195201668
H   H25       1.0  0.66667  0.40385  0.71455  1.0000 0.128350809
H   H26       1.0  0.85543  0.48981  0.81713  1.0000 0.1195201668
H   H27       1.0  0.24503  0.05045  0.75669  1.0000 0.1195201668
H   H28       1.0  0.05591  0.96185  0.65338  1.0000 0.128350809
H   H29       1.0  0.63199  0.37573  0.95446  1.0000 0.1195201668
H   H30       1.0  0.55499  0.19509  0.92050  1.0000 0.1195201668
H   H31       1.0  0.06426  0.96916  0.90160  1.0000 0.128350809
H   H32       1.0  0.99257  0.79761  0.86342  1.0000 0.1195201668
C   C1        1.0  0.38673  0.28267  0.10873  1.0000 0.5698625047
C   C2        1.0  0.32663  0.15817  0.17473  1.0000 -0.0096916802
C   C3        1.0  0.46441  0.21539  0.22331  1.0000 -0.0901120653
C   C4        1.0  0.41405  0.10415  0.28445  1.0000 -0.1497887027
C   C5        1.0  0.22032  0.93108  0.29822  1.0000 0.0732825893
C   C6        1.0  0.08184  0.87316  0.24844  1.0000 -0.1379256711
C   C7        1.0  0.13420  0.98560  0.18690  1.0000 -0.0901120653
C   C8        1.0  0.15090  0.79830  0.36470  1.0000 -0.2784500968
C   C9        1.0  0.32230  0.90270  0.42110  1.0000 0.6621106836
C   C10       1.0  0.04347  0.62353  0.35517  1.0000 0.6621106836
C   C11       1.0  0.02003  0.73337  0.38723  1.0000 0.0795841377
C   C12       1.0  0.69859  0.59541  0.45719  1.0000 0.5698625047
C   C13       1.0  0.81006  0.64394  0.43216  1.0000 -0.0096916802
C   C14       1.0  0.74351  0.49909  0.43671  1.0000 -0.0901120653
C   C15       1.0  0.84931  0.54409  0.41561  1.0000 -0.1497887027
C   C16       1.0  0.98323  0.83517  0.40483  1.0000 -0.0901120653
C   C17       1.0  0.08525  0.87735  0.38245  1.0000 -0.1379256711
C   C18       1.0  0.28267  0.38673  0.39127  1.0000 0.5698625047
C   C19       1.0  0.15817  0.32663  0.32527  1.0000 -0.0096916802
C   C20       1.0  0.21539  0.46441  0.27669  1.0000 -0.0901120653
C   C21       1.0  0.10415  0.41405  0.21555  1.0000 -0.1497887027
C   C22       1.0  0.93108  0.22032  0.20178  1.0000 0.0732825893
C   C23       1.0  0.87316  0.08184  0.25156  1.0000 -0.1379256711
C   C24       1.0  0.98560  0.13420  0.31310  1.0000 -0.0901120653
C   C25       1.0  0.79830  0.15090  0.13530  1.0000 -0.2784500968
C   C26       1.0  0.90270  0.32230  0.07890  1.0000 0.6621106836
C   C27       1.0  0.62353  0.04347  0.14483  1.0000 0.6621106836
C   C28       1.0  0.73337  0.02003  0.11277  1.0000 0.0795841377
C   C29       1.0  0.59541  0.69859  0.04281  1.0000 0.5698625047
C   C30       1.0  0.64394  0.81006  0.06784  1.0000 -0.0096916802
C   C31       1.0  0.49909  0.74351  0.06329  1.0000 -0.0901120653
C   C32       1.0  0.54409  0.84931  0.08439  1.0000 -0.1497887027
C   C33       1.0  0.83517  0.98323  0.09517  1.0000 -0.0901120653
C   C34       1.0  0.87735  0.08525  0.11755  1.0000 -0.1379256711
C   C35       1.0  0.61327  0.71733  0.89127  1.0000 0.5698625047
C   C36       1.0  0.67337  0.84183  0.82527  1.0000 -0.0096916802
C   C37       1.0  0.53559  0.78461  0.77669  1.0000 -0.0901120653
C   C38       1.0  0.58595  0.89585  0.71555  1.0000 -0.1497887027
C   C39       1.0  0.77968  0.06892  0.70178  1.0000 0.0732825893
C   C40       1.0  0.91816  0.12684  0.75156  1.0000 -0.1379256711
C   C41       1.0  0.86580  0.01440  0.81310  1.0000 -0.0901120653
C   C42       1.0  0.84910  0.20170  0.63530  1.0000 -0.2784500968
C   C43       1.0  0.67770  0.09730  0.57890  1.0000 0.6621106836
C   C44       1.0  0.95653  0.37647  0.64483  1.0000 0.6621106836
C   C45       1.0  0.97997  0.26663  0.61277  1.0000 0.0795841377
C   C46       1.0  0.30141  0.40459  0.54281  1.0000 0.5698625047
C   C47       1.0  0.18994  0.35606  0.56784  1.0000 -0.0096916802
C   C48       1.0  0.25649  0.50091  0.56329  1.0000 -0.0901120653
C   C49       1.0  0.15069  0.45591  0.58439  1.0000 -0.1497887027
C   C50       1.0  0.01677  0.16483  0.59517  1.0000 -0.0901120653
C   C51       1.0  0.91475  0.12265  0.61755  1.0000 -0.1379256711
C   C52       1.0  0.71733  0.61327  0.60873  1.0000 0.5698625047
C   C53       1.0  0.84183  0.67337  0.67473  1.0000 -0.0096916802
C   C54       1.0  0.78461  0.53559  0.72331  1.0000 -0.0901120653
C   C55       1.0  0.89585  0.58595  0.78445  1.0000 -0.1497887027
C   C56       1.0  0.06892  0.77968  0.79822  1.0000 0.0732825893
C   C57       1.0  0.12684  0.91816  0.74844  1.0000 -0.1339553547
C   C58       1.0  0.01440  0.86580  0.68690  1.0000 -0.0901120653
C   C59       1.0  0.20170  0.84910  0.86470  1.0000 -0.2784500968
C   C60       1.0  0.09730  0.67770  0.92110  1.0000 0.6621106836
C   C61       1.0  0.37647  0.95653  0.85517  1.0000 0.6621106836
C   C62       1.0  0.26663  0.97997  0.88723  1.0000 0.0795841377
C   C63       1.0  0.40459  0.30141  0.95719  1.0000 0.5698625047
C   C64       1.0  0.35606  0.18994  0.93216  1.0000 -0.0096916802
C   C65       1.0  0.50091  0.25649  0.93671  1.0000 -0.0901120653
C   C66       1.0  0.45591  0.15069  0.91561  1.0000 -0.1497887027
C   C67       1.0  0.16483  0.01677  0.90483  1.0000 -0.0901120653
C   C68       1.0  0.12265  0.91475  0.88245  1.0000 -0.1379256711
O   O1        1.0  0.25670  0.22310  0.06640  1.0000 -0.4900252771
O   O2        1.0  0.56192  0.43768  0.10122  1.0000 -0.5083849233
O   O3        1.0  0.54638  0.42362  0.48131  1.0000 -0.5083849233
O   O4        1.0  0.76318  0.73042  0.45073  1.0000 -0.5034047764
O   O5        1.0  0.22310  0.25670  0.43360  1.0000 -0.4900252771
O   O6        1.0  0.43768  0.56192  0.39878  1.0000 -0.5083849233
O   O7        1.0  0.42362  0.54638  0.01869  1.0000 -0.5083849233
O   O8        1.0  0.73042  0.76318  0.04927  1.0000 -0.5034047764
O   O9        1.0  0.74330  0.77690  0.93360  1.0000 -0.4900252771
O   O10       1.0  0.43808  0.56232  0.89878  1.0000 -0.5083849233
O   O11       1.0  0.45362  0.57638  0.51869  1.0000 -0.5083849233
O   O12       1.0  0.23682  0.26958  0.54927  1.0000 -0.5034047764
O   O13       1.0  0.77690  0.74330  0.56640  1.0000 -0.4900252771
O   O14       1.0  0.56232  0.43808  0.60122  1.0000 -0.5083849233
O   O15       1.0  0.57638  0.45362  0.98131  1.0000 -0.5083849233
O   O16       1.0  0.26958  0.23682  0.95073  1.0000 -0.5034047764
F   F1        1.0  0.44294  0.07486  0.42425  1.0000 -0.1934618091
F   F2        1.0  0.25532  0.79428  0.47975  1.0000 -0.1990024474
F   F3        1.0  0.43223  0.93857  0.41511  1.0000 -0.1990024474
F   F4        1.0  0.00430  0.51250  0.41223  1.0000 -0.1990024474
F   F5        1.0  0.15028  0.68452  0.32681  1.0000 -0.1934618091
F   F6        1.0  0.87223  0.50457  0.31593  1.0000 -0.1990024474
F   F7        1.0  0.07486  0.44294  0.07575  1.0000 -0.1934618091
F   F8        1.0  0.79428  0.25532  0.02025  1.0000 -0.1934618091
F   F9        1.0  0.93857  0.43223  0.08489  1.0000 -0.1990024474
F   F10       1.0  0.51250  0.00430  0.08777  1.0000 -0.1990024474
F   F11       1.0  0.68452  0.15028  0.17319  1.0000 -0.1934618091
F   F12       1.0  0.50457  0.87223  0.18407  1.0000 -0.1990024474
F   F13       1.0  0.55706  0.92514  0.57575  1.0000 -0.1934618091
F   F14       1.0  0.74468  0.20572  0.52025  1.0000 -0.1990024474
F   F15       1.0  0.56777  0.06143  0.58489  1.0000 -0.1990024474
F   F16       1.0  0.99570  0.48750  0.58777  1.0000 -0.1990024474
F   F17       1.0  0.84972  0.31548  0.67319  1.0000 -0.1934618091
F   F18       1.0  0.12777  0.49543  0.68407  1.0000 -0.1990024474
F   F19       1.0  0.92514  0.55706  0.92425  1.0000 -0.1934618091
F   F20       1.0  0.20572  0.74468  0.97975  1.0000 -0.1990024474
F   F21       1.0  0.06143  0.56777  0.91511  1.0000 -0.2059240144
F   F22       1.0  0.48750  0.99570  0.91223  1.0000 -0.1990024474
F   F23       1.0  0.31548  0.84972  0.82681  1.0000 -0.1934618091
F   F24       1.0  0.49543  0.12777  0.81593  1.0000 -0.1990024474
