# DDEC6 charges by PACMAN v1.1 (https://github.com/mtap-research/PACMAN-charge/)
data_2020[Ru][sql]2[ASR]1
_chemical_formula_sum              "H28 Ru4 C72 N4 O18 F24"
_cell_length_a       13.0324
_cell_length_b       13.4765
_cell_length_c       15.0217
_cell_angle_alpha    110.805
_cell_angle_beta     113.76
_cell_angle_gamma    95.127

_symmetry_space_group_name_H-M    "P 1"
_symmetry_Int_Tables_number       1

loop_
  _symmetry_equiv_pos_as_xyz
  'x, y, z'

loop_
  _atom_site_type_symbol
  _atom_site_label
  _atom_site_symmetry_multiplicity
  _atom_site_fract_x
  _atom_site_fract_y
  _atom_site_fract_z
  _atom_site_occupancy
  _atom_site_charge
H   H1        1.0  0.37950  0.64290  0.70870  1.0000 0.1838485773
H   H2        1.0  0.71720  0.81470  0.90590  1.0000 0.1714573156
H   H3        1.0  0.90120  0.86910  0.14450  1.0000 0.1714573156
H   H4        1.0  0.94580  0.64170  0.26620  1.0000 0.1883169835
H   H5        1.0  0.66110  0.46030  0.11310  1.0000 0.1397694871
H   H6        1.0  0.24980  0.63190  0.98200  1.0000 0.0889681529
H   H7        1.0  0.33780  0.71850  0.97660  1.0000 0.0889681529
H   H8        1.0  0.23470  0.81210  0.06210  1.0000 0.1397694871
H   H9        1.0  0.37070  0.85160  0.14540  1.0000 0.1464825894
H   H10       1.0  0.28320  0.76540  0.15080  1.0000 0.1397694871
H   H11       1.0  0.70200  0.94140  0.29720  1.0000 0.1883169835
H   H12       1.0  0.63510  0.01320  0.04270  1.0000 0.1838485773
H   H13       1.0  0.03530  0.36730  0.01970  1.0000 0.1838485773
H   H14       1.0  0.36010  0.54680  0.25910  1.0000 0.1883169835
H   H15       1.0  0.62050  0.35710  0.29130  1.0000 0.1838485773
H   H16       1.0  0.28280  0.18530  0.09410  1.0000 0.1714573156
H   H17       1.0  0.09880  0.13090  0.85550  1.0000 0.1714573156
H   H18       1.0  0.05420  0.35830  0.73380  1.0000 0.1883169835
H   H19       1.0  0.33890  0.53970  0.88690  1.0000 0.1397694871
H   H20       1.0  0.75020  0.36810  0.01800  1.0000 0.0889681529
H   H21       1.0  0.66220  0.28150  0.02340  1.0000 0.0889681529
H   H22       1.0  0.76530  0.18790  0.93790  1.0000 0.1397694871
H   H23       1.0  0.62930  0.14840  0.85460  1.0000 0.1464825894
H   H24       1.0  0.71680  0.23460  0.84920  1.0000 0.1397694871
H   H25       1.0  0.29800  0.05860  0.70280  1.0000 0.1883169835
H   H26       1.0  0.36490  0.98680  0.95730  1.0000 0.1838485773
H   H27       1.0  0.96470  0.63270  0.98030  1.0000 0.1838485773
H   H28       1.0  0.63990  0.45320  0.74090  1.0000 0.1883169835
Ru  Ru1       1.0  0.51823  0.92876  0.44495  1.0000 0.7342990066
Ru  Ru2       1.0  0.92599  0.52766  0.45139  1.0000 0.752318951
Ru  Ru3       1.0  0.48177  0.07124  0.55505  1.0000 0.7342990066
Ru  Ru4       1.0  0.07401  0.47234  0.54861  1.0000 0.752318951
C   C1        1.0  0.51970  0.89810  0.62520  1.0000 0.5868405526
C   C2        1.0  0.27360  0.90210  0.38230  1.0000 0.5868405526
C   C3        1.0  0.57200  0.71370  0.28080  1.0000 0.2868946816
C   C4        1.0  0.53090  0.83980  0.69630  1.0000 -0.2591640924
C   C5        1.0  0.14590  0.84760  0.31460  1.0000 -0.2762001951
C   C6        1.0  0.60400  0.62340  0.22400  1.0000 -0.1149331455
C   C7        1.0  0.44050  0.76010  0.67240  1.0000 0.303076985
C   C8        1.0  0.63500  0.85710  0.78330  1.0000 0.3126789655
C   C9        1.0  0.07040  0.88890  0.25090  1.0000 0.3287957411
C   C10       1.0  0.09620  0.75500  0.31730  1.0000 0.3287957411
C   C11       1.0  0.55260  0.56200  0.11340  1.0000 0.0544446285
C   C12       1.0  0.70010  0.59740  0.29170  1.0000 0.2868946816
C   C13       1.0  0.44550  0.69810  0.72850  1.0000 -0.3340187047
C   C14       1.0  0.64570  0.79970  0.84440  1.0000 -0.3615732963
C   C15       1.0  0.95050  0.84100  0.19030  1.0000 -0.3775921637
C   C16       1.0  0.97770  0.70510  0.26190  1.0000 -0.3615732963
C   C17       1.0  0.45330  0.58500  0.04090  1.0000 0.2397398974
C   C18       1.0  0.59600  0.47580  0.06720  1.0000 -0.2884932731
C   C19       1.0  0.54970  0.72020  0.81380  1.0000 0.3287957411
C   C20       1.0  0.90770  0.75100  0.20040  1.0000 0.3477687712
C   C21       1.0  0.32010  0.69550  0.02570  1.0000 0.0331062327
C   C22       1.0  0.30050  0.78930  0.10270  1.0000 -0.4200297867
C   C23       1.0  0.87800  0.29050  0.37550  1.0000 0.583140793
C   C24       1.0  0.08730  0.48140  0.36440  1.0000 0.5868405526
C   C25       1.0  0.80690  0.17420  0.30150  1.0000 -0.2715175424
C   C26       1.0  0.13030  0.46820  0.28360  1.0000 -0.2762001951
C   C27       1.0  0.78770  0.09660  0.33620  1.0000 0.3126789655
C   C28       1.0  0.74790  0.13930  0.19070  1.0000 0.3216789688
C   C29       1.0  0.05340  0.41770  0.17370  1.0000 0.3287957411
C   C30       1.0  0.24300  0.51380  0.31040  1.0000 0.3216789688
C   C31       1.0  0.71370  0.99220  0.26930  1.0000 -0.3405646358
C   C32       1.0  0.67330  0.03490  0.11810  1.0000 -0.3722297225
C   C33       1.0  0.08730  0.40810  0.09440  1.0000 -0.3775921637
C   C34       1.0  0.28140  0.51310  0.23680  1.0000 -0.3517193769
C   C35       1.0  0.65810  0.96450  0.16220  1.0000 0.3360878552
C   C36       1.0  0.20230  0.46250  0.13260  1.0000 0.3360878552
C   C37       1.0  0.48030  0.10190  0.37480  1.0000 0.5868405526
C   C38       1.0  0.72640  0.09790  0.61770  1.0000 0.5868405526
C   C39       1.0  0.42800  0.28630  0.71920  1.0000 0.2868946816
C   C40       1.0  0.46910  0.16020  0.30370  1.0000 -0.2591640924
C   C41       1.0  0.85410  0.15240  0.68540  1.0000 -0.2762001951
C   C42       1.0  0.39600  0.37660  0.77600  1.0000 -0.1149331455
C   C43       1.0  0.55950  0.23990  0.32760  1.0000 0.303076985
C   C44       1.0  0.36500  0.14290  0.21670  1.0000 0.3126789655
C   C45       1.0  0.92960  0.11110  0.74910  1.0000 0.3287957411
C   C46       1.0  0.90380  0.24500  0.68270  1.0000 0.3287957411
C   C47       1.0  0.44740  0.43800  0.88660  1.0000 0.0544446285
C   C48       1.0  0.29990  0.40260  0.70830  1.0000 0.2868946816
C   C49       1.0  0.55450  0.30190  0.27150  1.0000 -0.3340187047
C   C50       1.0  0.35430  0.20030  0.15560  1.0000 -0.3615732963
C   C51       1.0  0.04950  0.15900  0.80970  1.0000 -0.3775921637
C   C52       1.0  0.02230  0.29490  0.73810  1.0000 -0.3615732963
C   C53       1.0  0.54670  0.41500  0.95910  1.0000 0.2397398974
C   C54       1.0  0.40400  0.52420  0.93280  1.0000 -0.2884932731
C   C55       1.0  0.45030  0.27980  0.18620  1.0000 0.3287957411
C   C56       1.0  0.09230  0.24900  0.79960  1.0000 0.3477687712
C   C57       1.0  0.67990  0.30450  0.97430  1.0000 0.0331062327
C   C58       1.0  0.69950  0.21070  0.89730  1.0000 -0.4200297867
C   C59       1.0  0.12200  0.70950  0.62450  1.0000 0.583140793
C   C60       1.0  0.91270  0.51860  0.63560  1.0000 0.5868405526
C   C61       1.0  0.19310  0.82580  0.69850  1.0000 -0.2715175424
C   C62       1.0  0.86970  0.53180  0.71640  1.0000 -0.2762001951
C   C63       1.0  0.21230  0.90340  0.66380  1.0000 0.3126789655
C   C64       1.0  0.25210  0.86070  0.80930  1.0000 0.3216789688
C   C65       1.0  0.94660  0.58230  0.82630  1.0000 0.3287957411
C   C66       1.0  0.75700  0.48620  0.68960  1.0000 0.3216789688
C   C67       1.0  0.28630  0.00780  0.73070  1.0000 -0.3405646358
C   C68       1.0  0.32670  0.96510  0.88190  1.0000 -0.3722297225
C   C69       1.0  0.91270  0.59190  0.90560  1.0000 -0.3775921637
C   C70       1.0  0.71860  0.48690  0.76320  1.0000 -0.3517193769
C   C71       1.0  0.34190  0.03550  0.83780  1.0000 0.3360878552
C   C72       1.0  0.79770  0.53750  0.86740  1.0000 0.3360878552
N   N1        1.0  0.55430  0.78650  0.33480  1.0000 -0.3615732963
N   N2        1.0  0.77780  0.57550  0.34570  1.0000 -0.3775921637
N   N3        1.0  0.44570  0.21350  0.66520  1.0000 -0.3615732963
N   N4        1.0  0.22220  0.42450  0.65430  1.0000 -0.3775921637
O   O1        1.0  0.53250  0.84990  0.54300  1.0000 -0.4388390108
O   O2        1.0  0.34120  0.85370  0.35550  1.0000 -0.4492027436
O   O3        1.0  0.69580  0.00630  0.53830  1.0000 -0.4492027436
O   O4        1.0  0.50250  0.00970  0.34790  1.0000 -0.4648666655
O   O5        1.0  0.41760  0.66580  0.09040  1.0000 -0.1318272141
O   O6        1.0  0.83240  0.36410  0.35590  1.0000 -0.4728057508
O   O7        1.0  0.99550  0.51370  0.34760  1.0000 -0.4728057508
O   O8        1.0  0.85770  0.54030  0.55730  1.0000 -0.4388390108
O   O9        1.0  0.02270  0.69140  0.54830  1.0000 -0.4388390108
O   O10       1.0  0.46750  0.15010  0.45700  1.0000 -0.4388390108
O   O11       1.0  0.65880  0.14630  0.64450  1.0000 -0.4492027436
O   O12       1.0  0.30420  0.99370  0.46170  1.0000 -0.4492027436
O   O13       1.0  0.49750  0.99030  0.65210  1.0000 -0.4648666655
O   O14       1.0  0.58240  0.33420  0.90960  1.0000 -0.1318272141
O   O15       1.0  0.16760  0.63590  0.64410  1.0000 -0.4728057508
O   O16       1.0  0.00450  0.48630  0.65240  1.0000 -0.4728057508
O   O17       1.0  0.14230  0.45970  0.44270  1.0000 -0.4388390108
O   O18       1.0  0.97730  0.30860  0.45170  1.0000 -0.4388390108
F   F1        1.0  0.33800  0.74190  0.58740  1.0000 -0.1182202457
F   F2        1.0  0.72800  0.93310  0.80870  1.0000 -0.1386523847
F   F3        1.0  0.11560  0.97880  0.24490  1.0000 -0.1318272141
F   F4        1.0  0.16580  0.71490  0.38010  1.0000 -0.1182202457
F   F5        1.0  0.55970  0.66030  0.87160  1.0000 -0.1386523847
F   F6        1.0  0.79240  0.70610  0.14850  1.0000 -0.1386523847
F   F7        1.0  0.84050  0.12510  0.44310  1.0000 -0.1182202457
F   F8        1.0  0.76500  0.20980  0.15010  1.0000 -0.1318272141
F   F9        1.0  0.94290  0.36730  0.14080  1.0000 -0.1318272141
F   F10       1.0  0.32050  0.56810  0.41580  1.0000 -0.1182202457
F   F11       1.0  0.58590  0.86250  0.09500  1.0000 -0.1386523847
F   F12       1.0  0.23670  0.45910  0.05850  1.0000 -0.1386523847
F   F13       1.0  0.66200  0.25810  0.41260  1.0000 -0.1182202457
F   F14       1.0  0.27200  0.06690  0.19130  1.0000 -0.1386523847
F   F15       1.0  0.88440  0.02120  0.75510  1.0000 -0.1318272141
F   F16       1.0  0.83420  0.28510  0.61990  1.0000 -0.1182202457
F   F17       1.0  0.44030  0.33970  0.12840  1.0000 -0.1386523847
F   F18       1.0  0.20760  0.29390  0.85150  1.0000 -0.1386523847
F   F19       1.0  0.15950  0.87490  0.55690  1.0000 -0.1182202457
F   F20       1.0  0.23500  0.79020  0.84990  1.0000 -0.1318272141
F   F21       1.0  0.05710  0.63270  0.85920  1.0000 -0.1318272141
F   F22       1.0  0.67950  0.43190  0.58420  1.0000 -0.1182202457
F   F23       1.0  0.41410  0.13750  0.90500  1.0000 -0.1386523847
F   F24       1.0  0.76330  0.54090  0.94150  1.0000 -0.1386523847
