# DDEC6 charges by PACMAN v1.1 (https://github.com/mtap-research/PACMAN-charge/)
data_2020[Cu][sql]2[ASR]8
_chemical_formula_sum              "Cu4 H56 C96 N8 O24"
_cell_length_a       9.7184
_cell_length_b       18.8253
_cell_length_c       17.556
_cell_angle_alpha    90
_cell_angle_beta     110.46
_cell_angle_gamma    90

_symmetry_space_group_name_H-M    "P 1"
_symmetry_Int_Tables_number       1

loop_
  _symmetry_equiv_pos_as_xyz
  'x, y, z'

loop_
  _atom_site_type_symbol
  _atom_site_label
  _atom_site_symmetry_multiplicity
  _atom_site_fract_x
  _atom_site_fract_y
  _atom_site_fract_z
  _atom_site_occupancy
  _atom_site_charge
Cu  Cu1       1.0  0.63671  0.98574  0.54499  1.0000 0.8398551129
Cu  Cu2       1.0  0.36329  0.48574  0.95501  1.0000 0.8398551129
Cu  Cu3       1.0  0.36329  0.01426  0.45501  1.0000 0.8398551129
Cu  Cu4       1.0  0.63671  0.51426  0.04499  1.0000 0.8398551129
H   H1        1.0  0.75660  0.42680  0.43290  1.0000 0.2984703116
H   H2        1.0  0.83830  0.77860  0.20330  1.0000 0.3572067551
H   H3        1.0  0.43000  0.43840  0.72930  1.0000 0.1106090078
H   H4        1.0  0.89120  0.48660  0.37020  1.0000 0.1210342645
H   H5        1.0  0.78330  0.65810  0.47170  1.0000 0.1268130012
H   H6        1.0  0.92690  0.55710  0.27210  1.0000 0.1268130012
H   H7        1.0  0.81640  0.72910  0.37070  1.0000 0.1210342645
H   H8        1.0  0.49440  0.43220  0.61500  1.0000 0.1106090078
H   H9        1.0  0.47600  0.35870  0.43630  1.0000 0.1268130012
H   H10       1.0  0.86240  0.54230  0.73060  1.0000 0.1210342645
H   H11       1.0  0.82100  0.32330  0.63630  1.0000 0.1210342645
H   H12       1.0  0.80370  0.54420  0.84590  1.0000 0.1268130012
H   H13       1.0  0.40900  0.24110  0.43410  1.0000 0.1210342645
H   H14       1.0  0.76330  0.20310  0.62860  1.0000 0.1268130012
H   H15       1.0  0.24340  0.92680  0.06710  1.0000 0.2984703116
H   H16       1.0  0.16170  0.27860  0.29670  1.0000 0.3572067551
H   H17       1.0  0.57000  0.93840  0.77070  1.0000 0.1106090078
H   H18       1.0  0.10880  0.98660  0.12980  1.0000 0.1210342645
H   H19       1.0  0.21670  0.15810  0.02830  1.0000 0.1268130012
H   H20       1.0  0.07310  0.05710  0.22790  1.0000 0.1268130012
H   H21       1.0  0.18360  0.22910  0.12930  1.0000 0.1210342645
H   H22       1.0  0.50560  0.93220  0.88500  1.0000 0.1106090078
H   H23       1.0  0.52400  0.85870  0.06370  1.0000 0.1268130012
H   H24       1.0  0.13760  0.04230  0.76940  1.0000 0.1210342645
H   H25       1.0  0.17900  0.82330  0.86370  1.0000 0.1210342645
H   H26       1.0  0.19630  0.04420  0.65410  1.0000 0.1268130012
H   H27       1.0  0.59100  0.74110  0.06590  1.0000 0.1210342645
H   H28       1.0  0.23670  0.70310  0.87140  1.0000 0.1268130012
H   H29       1.0  0.24340  0.57320  0.56710  1.0000 0.2984703116
H   H30       1.0  0.16170  0.22140  0.79670  1.0000 0.3572067551
H   H31       1.0  0.57000  0.56160  0.27070  1.0000 0.1106090078
H   H32       1.0  0.10880  0.51340  0.62980  1.0000 0.1210342645
H   H33       1.0  0.21670  0.34190  0.52830  1.0000 0.1268130012
H   H34       1.0  0.07310  0.44290  0.72790  1.0000 0.1268130012
H   H35       1.0  0.18360  0.27090  0.62930  1.0000 0.1210342645
H   H36       1.0  0.50560  0.56780  0.38500  1.0000 0.1106090078
H   H37       1.0  0.52400  0.64130  0.56370  1.0000 0.1268130012
H   H38       1.0  0.13760  0.45770  0.26940  1.0000 0.1210342645
H   H39       1.0  0.17900  0.67670  0.36370  1.0000 0.1210342645
H   H40       1.0  0.19630  0.45580  0.15410  1.0000 0.1268130012
H   H41       1.0  0.59100  0.75890  0.56590  1.0000 0.1210342645
H   H42       1.0  0.23670  0.79690  0.37140  1.0000 0.1268130012
H   H43       1.0  0.75660  0.07320  0.93290  1.0000 0.2984703116
H   H44       1.0  0.83830  0.72140  0.70330  1.0000 0.3572067551
H   H45       1.0  0.43000  0.06160  0.22930  1.0000 0.1106090078
H   H46       1.0  0.89120  0.01340  0.87020  1.0000 0.1210342645
H   H47       1.0  0.78330  0.84190  0.97170  1.0000 0.1268130012
H   H48       1.0  0.92690  0.94290  0.77210  1.0000 0.1268130012
H   H49       1.0  0.81640  0.77090  0.87070  1.0000 0.1210342645
H   H50       1.0  0.49440  0.06780  0.11500  1.0000 0.1106090078
H   H51       1.0  0.47600  0.14130  0.93630  1.0000 0.1268130012
H   H52       1.0  0.86240  0.95770  0.23060  1.0000 0.1210342645
H   H53       1.0  0.82100  0.17670  0.13630  1.0000 0.1210342645
H   H54       1.0  0.80370  0.95580  0.34590  1.0000 0.1268130012
H   H55       1.0  0.40900  0.25890  0.93410  1.0000 0.1210342645
H   H56       1.0  0.76330  0.29690  0.12860  1.0000 0.1268130012
C   C1        1.0  0.72130  0.48360  0.58540  1.0000 0.0703571111
C   C2        1.0  0.66010  0.35260  0.53490  1.0000 0.0563135843
C   C3        1.0  0.70680  0.42720  0.53400  1.0000 0.0563135843
C   C4        1.0  0.82950  0.56510  0.42990  1.0000 0.011254166
C   C5        1.0  0.61020  0.49160  0.80010  1.0000 -0.0266633111
C   C6        1.0  0.68390  0.48680  0.65940  1.0000 0.0703571111
C   C7        1.0  0.51770  0.45850  0.72990  1.0000 -0.0992265852
C   C8        1.0  0.87510  0.53530  0.37040  1.0000 -0.1430329002
C   C9        1.0  0.78920  0.52010  0.48740  1.0000 0.2793922208
C   C10       1.0  0.81010  0.63750  0.43080  1.0000 -0.1250064589
C   C11       1.0  0.56820  0.49440  0.87370  1.0000 0.5787403069
C   C12       1.0  0.58320  0.20960  0.52790  1.0000 -0.0139363587
C   C13       1.0  0.55020  0.13150  0.51970  1.0000 0.5787403069
C   C14       1.0  0.87260  0.65000  0.31040  1.0000 -0.0420836725
C   C15       1.0  0.89610  0.57760  0.31160  1.0000 -0.091172823
C   C16       1.0  0.83080  0.68020  0.37030  1.0000 -0.1143154644
C   C17       1.0  0.89240  0.69350  0.24350  1.0000 0.5347723149
C   C18       1.0  0.55580  0.45560  0.66100  1.0000 -0.1511462361
C   C19       1.0  0.53480  0.32760  0.47540  1.0000 -0.1596711941
C   C20       1.0  0.77620  0.52080  0.73050  1.0000 -0.1430329002
C   C21       1.0  0.74090  0.30650  0.59330  1.0000 -0.1430329002
C   C22       1.0  0.74060  0.52240  0.79920  1.0000 -0.0992265852
C   C23       1.0  0.49580  0.25670  0.47320  1.0000 -0.0992265852
C   C24       1.0  0.70490  0.23430  0.58950  1.0000 -0.091172823
C   C25       1.0  0.27870  0.98360  0.91460  1.0000 0.0703571111
C   C26       1.0  0.33990  0.85260  0.96510  1.0000 0.0563135843
C   C27       1.0  0.29320  0.92720  0.96600  1.0000 0.0563135843
C   C28       1.0  0.17050  0.06510  0.07010  1.0000 0.011254166
C   C29       1.0  0.38980  0.99160  0.69990  1.0000 -0.0266633111
C   C30       1.0  0.31610  0.98680  0.84060  1.0000 0.0703571111
C   C31       1.0  0.48230  0.95850  0.77010  1.0000 -0.0992265852
C   C32       1.0  0.12490  0.03530  0.12960  1.0000 -0.1430329002
C   C33       1.0  0.21080  0.02010  0.01260  1.0000 0.2793922208
C   C34       1.0  0.18990  0.13750  0.06920  1.0000 -0.1250064589
C   C35       1.0  0.43180  0.99440  0.62630  1.0000 0.5787403069
C   C36       1.0  0.41680  0.70960  0.97210  1.0000 -0.0139363587
C   C37       1.0  0.44980  0.63150  0.98030  1.0000 0.5787403069
C   C38       1.0  0.12740  0.15000  0.18960  1.0000 -0.0420836725
C   C39       1.0  0.10390  0.07760  0.18840  1.0000 -0.091172823
C   C40       1.0  0.16920  0.18020  0.12970  1.0000 -0.1143154644
C   C41       1.0  0.10760  0.19350  0.25650  1.0000 0.535759487
C   C42       1.0  0.44420  0.95560  0.83900  1.0000 -0.1511462361
C   C43       1.0  0.46520  0.82760  0.02460  1.0000 -0.1596711941
C   C44       1.0  0.22380  0.02080  0.76950  1.0000 -0.1430329002
C   C45       1.0  0.25910  0.80650  0.90670  1.0000 -0.1430329002
C   C46       1.0  0.25940  0.02240  0.70080  1.0000 -0.0992265852
C   C47       1.0  0.50420  0.75670  0.02680  1.0000 -0.0992265852
C   C48       1.0  0.29510  0.73430  0.91050  1.0000 -0.091172823
C   C49       1.0  0.27870  0.51640  0.41460  1.0000 0.0703571111
C   C50       1.0  0.33990  0.64740  0.46510  1.0000 0.0563135843
C   C51       1.0  0.29320  0.57280  0.46600  1.0000 0.0563135843
C   C52       1.0  0.17050  0.43490  0.57010  1.0000 0.011254166
C   C53       1.0  0.38980  0.50840  0.19990  1.0000 -0.0266633111
C   C54       1.0  0.31610  0.51320  0.34060  1.0000 0.0703571111
C   C55       1.0  0.48230  0.54150  0.27010  1.0000 -0.0992265852
C   C56       1.0  0.12490  0.46470  0.62960  1.0000 -0.1430329002
C   C57       1.0  0.21080  0.47990  0.51260  1.0000 0.2793922208
C   C58       1.0  0.18990  0.36250  0.56920  1.0000 -0.1250064589
C   C59       1.0  0.43180  0.50560  0.12630  1.0000 0.5787403069
C   C60       1.0  0.41680  0.79040  0.47210  1.0000 -0.0139363587
C   C61       1.0  0.44980  0.86850  0.48030  1.0000 0.5787403069
C   C62       1.0  0.12740  0.35000  0.68960  1.0000 -0.0420836725
C   C63       1.0  0.10390  0.42240  0.68840  1.0000 -0.091172823
C   C64       1.0  0.16920  0.31980  0.62970  1.0000 -0.1150116764
C   C65       1.0  0.10760  0.30650  0.75650  1.0000 0.535759487
C   C66       1.0  0.44420  0.54440  0.33900  1.0000 -0.1511462361
C   C67       1.0  0.46520  0.67240  0.52460  1.0000 -0.1596711941
C   C68       1.0  0.22380  0.47920  0.26950  1.0000 -0.1430329002
C   C69       1.0  0.25910  0.69350  0.40670  1.0000 -0.1430329002
C   C70       1.0  0.25940  0.47760  0.20080  1.0000 -0.0992265852
C   C71       1.0  0.50420  0.74330  0.52680  1.0000 -0.0992265852
C   C72       1.0  0.29510  0.76570  0.41050  1.0000 -0.091172823
C   C73       1.0  0.72130  0.01640  0.08540  1.0000 0.0703571111
C   C74       1.0  0.66010  0.14740  0.03490  1.0000 0.0563135843
C   C75       1.0  0.70680  0.07280  0.03400  1.0000 0.0563135843
C   C76       1.0  0.82950  0.93490  0.92990  1.0000 0.011254166
C   C77       1.0  0.61020  0.00840  0.30010  1.0000 -0.0266633111
C   C78       1.0  0.68390  0.01320  0.15940  1.0000 0.0703571111
C   C79       1.0  0.51770  0.04150  0.22990  1.0000 -0.0992265852
C   C80       1.0  0.87510  0.96470  0.87040  1.0000 -0.1430329002
C   C81       1.0  0.78920  0.97990  0.98740  1.0000 0.2793922208
C   C82       1.0  0.81010  0.86250  0.93080  1.0000 -0.1250064589
C   C83       1.0  0.56820  0.00560  0.37370  1.0000 0.5787403069
C   C84       1.0  0.58320  0.29040  0.02790  1.0000 -0.0139363587
C   C85       1.0  0.55020  0.36850  0.01970  1.0000 0.5787403069
C   C86       1.0  0.87260  0.85000  0.81040  1.0000 -0.0420836725
C   C87       1.0  0.89610  0.92240  0.81160  1.0000 -0.091172823
C   C88       1.0  0.83080  0.81980  0.87030  1.0000 -0.1150116764
C   C89       1.0  0.89240  0.80650  0.74350  1.0000 0.5347723149
C   C90       1.0  0.55580  0.04440  0.16100  1.0000 -0.1511462361
C   C91       1.0  0.53480  0.17240  0.97540  1.0000 -0.1596711941
C   C92       1.0  0.77620  0.97920  0.23050  1.0000 -0.1430329002
C   C93       1.0  0.74090  0.19350  0.09330  1.0000 -0.1430329002
C   C94       1.0  0.74060  0.97760  0.29920  1.0000 -0.0992265852
C   C95       1.0  0.49580  0.24330  0.97320  1.0000 -0.0992265852
C   C96       1.0  0.70490  0.26570  0.08950  1.0000 -0.091172823
N   N1        1.0  0.75240  0.45139  0.47330  1.0000 -0.2764759876
N   N2        1.0  0.77260  0.54143  0.55550  1.0000 -0.3932115279
N   N3        1.0  0.24760  0.95139  0.02670  1.0000 -0.2764759876
N   N4        1.0  0.22740  0.04143  0.94450  1.0000 -0.3932115279
N   N5        1.0  0.24760  0.54861  0.52670  1.0000 -0.2764759876
N   N6        1.0  0.22740  0.45857  0.44450  1.0000 -0.3932115279
N   N7        1.0  0.75240  0.04861  0.97330  1.0000 -0.2764759876
N   N8        1.0  0.77260  0.95857  0.05550  1.0000 -0.3932115279
O   O1        1.0  0.65240  0.08954  0.55470  1.0000 -0.5090629153
O   O2        1.0  0.43600  0.48240  0.86450  1.0000 -0.5188136317
O   O3        1.0  0.42170  0.11383  0.47800  1.0000 -0.5090629153
O   O4        1.0  0.66830  0.50840  0.94110  1.0000 -0.5188136317
O   O5        1.0  0.92650  0.66920  0.18980  1.0000 -0.4761118608
O   O6        1.0  0.86530  0.76070  0.24870  1.0000 -0.4492916979
O   O7        1.0  0.34760  0.58954  0.94530  1.0000 -0.5090629153
O   O8        1.0  0.56400  0.98240  0.63550  1.0000 -0.5188136317
O   O9        1.0  0.57830  0.61383  0.02200  1.0000 -0.5090629153
O   O10       1.0  0.33170  0.00840  0.55890  1.0000 -0.5188136317
O   O11       1.0  0.07350  0.16920  0.31020  1.0000 -0.4761118608
O   O12       1.0  0.13470  0.26070  0.25130  1.0000 -0.4492916979
O   O13       1.0  0.34760  0.91046  0.44530  1.0000 -0.5090629153
O   O14       1.0  0.56400  0.51760  0.13550  1.0000 -0.5188136317
O   O15       1.0  0.57830  0.88617  0.52200  1.0000 -0.5090629153
O   O16       1.0  0.33170  0.49160  0.05890  1.0000 -0.5188136317
O   O17       1.0  0.07350  0.33080  0.81020  1.0000 -0.4744388379
O   O18       1.0  0.13470  0.23930  0.75130  1.0000 -0.4492916979
O   O19       1.0  0.65240  0.41046  0.05470  1.0000 -0.5090629153
O   O20       1.0  0.43600  0.01760  0.36450  1.0000 -0.5188136317
O   O21       1.0  0.42170  0.38617  0.97800  1.0000 -0.5090629153
O   O22       1.0  0.66830  0.99160  0.44110  1.0000 -0.5188136317
O   O23       1.0  0.92650  0.83080  0.68980  1.0000 -0.4761118608
O   O24       1.0  0.86530  0.73930  0.74870  1.0000 -0.4492916979
