# DDEC6 charges by PACMAN v1.1 (https://github.com/mtap-research/PACMAN-charge/)
data_2020[Cd][sql]2[ASR]5
_chemical_formula_sum              "Cd4 H92 C100 N12 O20"
_cell_length_a       13.7613
_cell_length_b       13.9582
_cell_length_c       14.9985
_cell_angle_alpha    90
_cell_angle_beta     91.072
_cell_angle_gamma    90

_symmetry_space_group_name_H-M    "P 1"
_symmetry_Int_Tables_number       1

loop_
  _symmetry_equiv_pos_as_xyz
  'x, y, z'

loop_
  _atom_site_type_symbol
  _atom_site_label
  _atom_site_symmetry_multiplicity
  _atom_site_fract_x
  _atom_site_fract_y
  _atom_site_fract_z
  _atom_site_occupancy
  _atom_site_charge
Cd  Cd1       1.0  0.58218  0.71096  0.64017  1.0000 0.8581619142
Cd  Cd2       1.0  0.42061  0.77608  0.85342  1.0000 0.8682285725
Cd  Cd3       1.0  0.41782  0.21096  0.35983  1.0000 0.8581619142
Cd  Cd4       1.0  0.57939  0.27608  0.14658  1.0000 0.8682285725
H   H1        1.0  0.28390  0.94090  0.77180  1.0000 0.1092156311
H   H2        1.0  0.55460  0.43750  0.93920  1.0000 0.137893015
H   H3        1.0  0.27020  0.10670  0.75950  1.0000 0.1485593347
H   H4        1.0  0.53400  0.13170  0.88270  1.0000 0.130194234
H   H5        1.0  0.45890  0.53280  0.57350  1.0000 0.1024202725
H   H6        1.0  0.71560  0.87980  0.70580  1.0000 0.1092156311
H   H7        1.0  0.82130  0.72990  0.78660  1.0000 0.1204952267
H   H8        1.0  0.02950  0.76360  0.62930  1.0000 0.1204952267
H   H9        1.0  0.50460  0.28310  0.88420  1.0000 0.1204952267
H   H10       1.0  0.09020  0.84220  0.93730  1.0000 0.2771413802
H   H11       1.0  0.90640  0.76270  0.55050  1.0000 0.2736014901
H   H12       1.0  0.54050  0.60290  0.93690  1.0000 0.1024202725
H   H13       1.0  0.69880  0.79940  0.02100  1.0000 0.1092156311
H   H14       1.0  0.45680  0.89940  0.59520  1.0000 0.1024202725
H   H15       1.0  0.14990  0.63560  0.41620  1.0000 0.1204952267
H   H16       1.0  0.31310  0.58920  0.77140  1.0000 0.1092156311
H   H17       1.0  0.32230  0.42380  0.76880  1.0000 0.130194234
H   H18       1.0  0.30220  0.64500  0.48570  1.0000 0.1092156311
H   H19       1.0  0.44930  0.36820  0.57200  1.0000 0.137893015
H   H20       1.0  0.97620  0.74520  0.85380  1.0000 0.1204952267
H   H21       1.0  0.18120  0.77160  0.69830  1.0000 0.130194234
H   H22       1.0  0.84980  0.79580  0.09140  1.0000 0.1204952267
H   H23       1.0  0.33240  0.26680  0.78520  1.0000 0.1204952267
H   H24       1.0  0.27560  0.92380  0.10830  1.0000 0.0642004861
H   H25       1.0  0.66940  0.20600  0.70820  1.0000 0.130194234
H   H26       1.0  0.73060  0.04530  0.72130  1.0000 0.1485593347
H   H27       1.0  0.68580  0.35990  0.73510  1.0000 0.130194234
H   H28       1.0  0.54110  0.96510  0.88920  1.0000 0.1024202725
H   H29       1.0  0.80620  0.68210  0.40880  1.0000 0.1092156311
H   H30       1.0  0.83520  0.92950  0.48850  1.0000 0.137893015
H   H31       1.0  0.75120  0.97100  0.42410  1.0000 0.1204952267
H   H32       1.0  0.72420  0.90090  0.50430  1.0000 0.1204952267
H   H33       1.0  0.06990  0.95070  0.11540  1.0000 0.130194234
H   H34       1.0  0.13590  0.90440  0.19310  1.0000 0.130194234
H   H35       1.0  0.14760  0.01530  0.16850  1.0000 0.130194234
H   H36       1.0  0.71930  0.82020  0.36740  1.0000 0.0642004861
H   H37       1.0  0.23420  0.06360  0.03290  1.0000 0.130194234
H   H38       1.0  0.26530  0.98470  0.96150  1.0000 0.1204952267
H   H39       1.0  0.15280  0.00860  0.97520  1.0000 0.130194234
H   H40       1.0  0.46590  0.06810  0.60260  1.0000 0.137893015
H   H41       1.0  0.49960  0.21510  0.61070  1.0000 0.130194234
H   H42       1.0  0.68730  0.53070  0.73560  1.0000 0.1092156311
H   H43       1.0  0.19490  0.77700  0.08440  1.0000 0.1092156311
H   H44       1.0  0.85450  0.79940  0.28120  1.0000 0.130194234
H   H45       1.0  0.84340  0.91200  0.29790  1.0000 0.1204952267
H   H46       1.0  0.92320  0.85200  0.35320  1.0000 0.137893015
H   H47       1.0  0.71610  0.44090  0.22820  1.0000 0.1092156311
H   H48       1.0  0.44540  0.93750  0.06080  1.0000 0.137893015
H   H49       1.0  0.72980  0.60670  0.24050  1.0000 0.1485593347
H   H50       1.0  0.46600  0.63170  0.11730  1.0000 0.130194234
H   H51       1.0  0.54110  0.03280  0.42650  1.0000 0.1024202725
H   H52       1.0  0.28440  0.37980  0.29420  1.0000 0.1092156311
H   H53       1.0  0.17870  0.22990  0.21340  1.0000 0.1204952267
H   H54       1.0  0.97050  0.26360  0.37070  1.0000 0.1204952267
H   H55       1.0  0.49540  0.78310  0.11580  1.0000 0.1204952267
H   H56       1.0  0.90980  0.34220  0.06270  1.0000 0.2771413802
H   H57       1.0  0.09360  0.26270  0.44950  1.0000 0.2736014901
H   H58       1.0  0.45950  0.10290  0.06310  1.0000 0.1024202725
H   H59       1.0  0.30120  0.29940  0.97900  1.0000 0.1092156311
H   H60       1.0  0.54320  0.39940  0.40480  1.0000 0.1024202725
H   H61       1.0  0.85010  0.13560  0.58380  1.0000 0.1204952267
H   H62       1.0  0.68690  0.08920  0.22860  1.0000 0.1092156311
H   H63       1.0  0.67770  0.92380  0.23120  1.0000 0.130194234
H   H64       1.0  0.69780  0.14500  0.51430  1.0000 0.1092156311
H   H65       1.0  0.55070  0.86820  0.42800  1.0000 0.137893015
H   H66       1.0  0.02380  0.24520  0.14620  1.0000 0.1204952267
H   H67       1.0  0.81880  0.27160  0.30170  1.0000 0.130194234
H   H68       1.0  0.15020  0.29580  0.90860  1.0000 0.1204952267
H   H69       1.0  0.66760  0.76680  0.21480  1.0000 0.1204952267
H   H70       1.0  0.72440  0.42380  0.89170  1.0000 0.0642004861
H   H71       1.0  0.33060  0.70600  0.29180  1.0000 0.130194234
H   H72       1.0  0.26940  0.54530  0.27870  1.0000 0.1485593347
H   H73       1.0  0.31420  0.85990  0.26490  1.0000 0.130194234
H   H74       1.0  0.45890  0.46510  0.11080  1.0000 0.1024202725
H   H75       1.0  0.19380  0.18210  0.59120  1.0000 0.1092156311
H   H76       1.0  0.16480  0.42950  0.51150  1.0000 0.137893015
H   H77       1.0  0.24880  0.47100  0.57590  1.0000 0.1204952267
H   H78       1.0  0.27580  0.40090  0.49570  1.0000 0.1204952267
H   H79       1.0  0.93010  0.45070  0.88460  1.0000 0.130194234
H   H80       1.0  0.86410  0.40440  0.80690  1.0000 0.130194234
H   H81       1.0  0.85240  0.51530  0.83150  1.0000 0.130194234
H   H82       1.0  0.28070  0.32020  0.63260  1.0000 0.0642004861
H   H83       1.0  0.76580  0.56360  0.96710  1.0000 0.130194234
H   H84       1.0  0.73470  0.48470  0.03850  1.0000 0.1204952267
H   H85       1.0  0.84720  0.50860  0.02480  1.0000 0.130194234
H   H86       1.0  0.53410  0.56810  0.39740  1.0000 0.137893015
H   H87       1.0  0.50040  0.71510  0.38930  1.0000 0.130194234
H   H88       1.0  0.31270  0.03070  0.26440  1.0000 0.1092156311
H   H89       1.0  0.80510  0.27700  0.91560  1.0000 0.1092156311
H   H90       1.0  0.14550  0.29940  0.71880  1.0000 0.130194234
H   H91       1.0  0.15660  0.41200  0.70210  1.0000 0.1204952267
H   H92       1.0  0.07680  0.35200  0.64680  1.0000 0.137893015
C   C1        1.0  0.33520  0.98040  0.79370  1.0000 0.0823840028
C   C2        1.0  0.50480  0.46720  0.90430  1.0000 -0.1931526819
C   C3        1.0  0.64500  0.75320  0.85550  1.0000 0.5587909101
C   C4        1.0  0.32640  0.07960  0.78730  1.0000 -0.2016969121
C   C5        1.0  0.25800  0.71530  0.59600  1.0000 -0.0176793013
C   C6        1.0  0.43920  0.41210  0.85350  1.0000 0.1631475082
C   C7        1.0  0.48150  0.09460  0.85940  1.0000 -0.2088652523
C   C8        1.0  0.50510  0.49750  0.60790  1.0000 0.0528981043
C   C9        1.0  0.72740  0.72010  0.51910  1.0000 0.5478322683
C   C10       1.0  0.66330  0.91930  0.68600  1.0000 0.0899229823
C   C11       1.0  0.82720  0.74530  0.84820  1.0000 -0.1112613613
C   C12       1.0  0.74400  0.76060  0.89780  1.0000 -0.0353070172
C   C13       1.0  0.08500  0.74090  0.59910  1.0000 -0.1390402512
C   C14       1.0  0.44870  0.30810  0.85410  1.0000 -0.1330055343
C   C15       1.0  0.92860  0.77030  0.97990  1.0000 -0.0176793013
C   C16       1.0  0.07460  0.70190  0.51320  1.0000 -0.0120425559
C   C17       1.0  0.49550  0.56590  0.90270  1.0000 0.0675178496
C   C18       1.0  0.75470  0.78390  0.98760  1.0000 -0.103179994
C   C19       1.0  0.51260  0.92960  0.62070  1.0000 0.0899229823
C   C20       1.0  0.56460  0.34880  0.65140  1.0000 0.1485593347
C   C21       1.0  0.02400  0.77420  0.02910  1.0000 0.4517803965
C   C22       1.0  0.27440  0.79880  0.97160  1.0000 0.5478322683
C   C23       1.0  0.98060  0.70340  0.45880  1.0000 0.4517803965
C   C24       1.0  0.35940  0.73060  0.63550  1.0000 0.5587909101
C   C25       1.0  0.15620  0.66530  0.47290  1.0000 -0.1112613613
C   C26       1.0  0.36260  0.55820  0.80570  1.0000 0.0823840028
C   C27       1.0  0.36770  0.45940  0.80390  1.0000 -0.1931526819
C   C28       1.0  0.24710  0.67130  0.51410  1.0000 -0.1112613613
C   C29       1.0  0.49920  0.39930  0.60560  1.0000 -0.1808893504
C   C30       1.0  0.91970  0.75250  0.88860  1.0000 -0.1390402512
C   C31       1.0  0.17520  0.74630  0.63960  1.0000 -0.103179994
C   C32       1.0  0.39970  0.13990  0.82160  1.0000 0.1631475082
C   C33       1.0  0.59870  0.07320  0.66530  1.0000 0.1485593347
C   C34       1.0  0.84470  0.78500  0.02900  1.0000 -0.1112613613
C   C35       1.0  0.38770  0.24310  0.81700  1.0000 -0.1704590442
C   C36       1.0  0.21120  0.92550  0.07630  1.0000 0.0823840028
C   C37       1.0  0.61410  0.18260  0.67610  1.0000 -0.1390402512
C   C38       1.0  0.67370  0.01790  0.69520  1.0000 -0.2016969121
C   C39       1.0  0.63840  0.39540  0.70220  1.0000 -0.2088652523
C   C40       1.0  0.48560  0.99470  0.86260  1.0000 0.0823840028
C   C41       1.0  0.80710  0.73690  0.45180  1.0000 -0.0609747833
C   C42       1.0  0.77260  0.91540  0.45910  1.0000 -0.4408600824
C   C43       1.0  0.13430  0.95130  0.14440  1.0000 -0.4231770308
C   C44       1.0  0.78350  0.83030  0.39840  1.0000 0.0823840028
C   C45       1.0  0.21630  0.00240  0.00520  1.0000 -0.4408600824
C   C46       1.0  0.51760  0.02990  0.62590  1.0000 -0.2016969121
C   C47       1.0  0.55410  0.24000  0.64280  1.0000 -0.0872901203
C   C48       1.0  0.63880  0.49740  0.70210  1.0000 0.1024202725
C   C49       1.0  0.19320  0.82460  0.03460  1.0000 -0.0753767686
C   C50       1.0  0.85780  0.85020  0.32620  1.0000 -0.425580007
C   C51       1.0  0.66480  0.48040  0.20630  1.0000 0.0823840028
C   C52       1.0  0.49520  0.96720  0.09570  1.0000 -0.1931526819
C   C53       1.0  0.35500  0.25320  0.14450  1.0000 0.5587909101
C   C54       1.0  0.67360  0.57960  0.21270  1.0000 -0.2016969121
C   C55       1.0  0.74200  0.21530  0.40400  1.0000 -0.0176793013
C   C56       1.0  0.56080  0.91210  0.14650  1.0000 0.1631475082
C   C57       1.0  0.51850  0.59460  0.14060  1.0000 -0.2088652523
C   C58       1.0  0.49490  0.99750  0.39210  1.0000 0.0528981043
C   C59       1.0  0.27260  0.22010  0.48090  1.0000 0.5478322683
C   C60       1.0  0.33670  0.41930  0.31400  1.0000 0.0899229823
C   C61       1.0  0.17280  0.24530  0.15180  1.0000 -0.1112613613
C   C62       1.0  0.25600  0.26060  0.10220  1.0000 -0.0353070172
C   C63       1.0  0.91500  0.24090  0.40090  1.0000 -0.1390402512
C   C64       1.0  0.55130  0.80810  0.14590  1.0000 -0.1330055343
C   C65       1.0  0.07140  0.27030  0.02010  1.0000 -0.0176793013
C   C66       1.0  0.92540  0.20190  0.48680  1.0000 -0.0120425559
C   C67       1.0  0.50450  0.06590  0.09730  1.0000 0.0675178496
C   C68       1.0  0.24530  0.28390  0.01240  1.0000 -0.103179994
C   C69       1.0  0.48740  0.42960  0.37930  1.0000 0.0899229823
C   C70       1.0  0.43540  0.84880  0.34860  1.0000 0.1485593347
C   C71       1.0  0.97600  0.27420  0.97090  1.0000 0.4517803965
C   C72       1.0  0.72560  0.29880  0.02840  1.0000 0.5478322683
C   C73       1.0  0.01940  0.20340  0.54120  1.0000 0.4517803965
C   C74       1.0  0.64060  0.23060  0.36450  1.0000 0.5587909101
C   C75       1.0  0.84380  0.16530  0.52710  1.0000 -0.1112613613
C   C76       1.0  0.63740  0.05820  0.19430  1.0000 0.0823840028
C   C77       1.0  0.63230  0.95940  0.19610  1.0000 -0.1931526819
C   C78       1.0  0.75290  0.17130  0.48590  1.0000 -0.1112613613
C   C79       1.0  0.50080  0.89930  0.39440  1.0000 -0.1808893504
C   C80       1.0  0.08030  0.25250  0.11140  1.0000 -0.1390402512
C   C81       1.0  0.82480  0.24630  0.36040  1.0000 -0.103179994
C   C82       1.0  0.60030  0.63990  0.17840  1.0000 0.1631475082
C   C83       1.0  0.40130  0.57320  0.33470  1.0000 0.1485593347
C   C84       1.0  0.15530  0.28500  0.97100  1.0000 -0.1112613613
C   C85       1.0  0.61230  0.74310  0.18300  1.0000 -0.1704590442
C   C86       1.0  0.78880  0.42550  0.92370  1.0000 0.0823840028
C   C87       1.0  0.38590  0.68260  0.32390  1.0000 -0.1390402512
C   C88       1.0  0.32630  0.51790  0.30480  1.0000 -0.2016969121
C   C89       1.0  0.36160  0.89540  0.29780  1.0000 -0.2088652523
C   C90       1.0  0.51440  0.49470  0.13740  1.0000 0.0823840028
C   C91       1.0  0.19290  0.23690  0.54820  1.0000 -0.0609747833
C   C92       1.0  0.22740  0.41540  0.54090  1.0000 -0.4408600824
C   C93       1.0  0.86570  0.45130  0.85560  1.0000 -0.4231770308
C   C94       1.0  0.21650  0.33030  0.60160  1.0000 0.0823840028
C   C95       1.0  0.78370  0.50240  0.99480  1.0000 -0.4408600824
C   C96       1.0  0.48240  0.52990  0.37410  1.0000 -0.2016969121
C   C97       1.0  0.44590  0.74000  0.35720  1.0000 -0.0872901203
C   C98       1.0  0.36120  0.99740  0.29790  1.0000 0.1024202725
C   C99       1.0  0.80680  0.32460  0.96540  1.0000 -0.0753767686
C   C100      1.0  0.14220  0.35020  0.67380  1.0000 -0.425580007
N   N1        1.0  0.42530  0.61280  0.85460  1.0000 -0.2638404639
N   N2        1.0  0.41500  0.93950  0.83010  1.0000 -0.241929789
N   N3        1.0  0.58600  0.87740  0.65160  1.0000 -0.2343652966
N   N4        1.0  0.57220  0.54720  0.65580  1.0000 -0.241929789
N   N5        1.0  0.09850  0.81730  0.99080  1.0000 -0.3407625677
N   N6        1.0  0.90140  0.73820  0.49660  1.0000 -0.3478824021
N   N7        1.0  0.57470  0.11280  0.14540  1.0000 -0.2638404639
N   N8        1.0  0.58500  0.43950  0.16990  1.0000 -0.241929789
N   N9        1.0  0.41400  0.37740  0.34840  1.0000 -0.2343652966
N   N10       1.0  0.42780  0.04720  0.34420  1.0000 -0.241929789
N   N11       1.0  0.90150  0.31730  0.00920  1.0000 -0.3407625677
N   N12       1.0  0.09860  0.23820  0.50340  1.0000 -0.3478824021
O   O1        1.0  0.64130  0.71210  0.48980  1.0000 -0.5688375256
O   O2        1.0  0.75080  0.71360  0.60020  1.0000 -0.5577799501
O   O3        1.0  0.63590  0.70740  0.78400  1.0000 -0.5688375256
O   O4        1.0  0.42750  0.70350  0.58750  1.0000 -0.5430224659
O   O5        1.0  0.25420  0.77650  0.89170  1.0000 -0.5577799501
O   O6        1.0  0.57690  0.79070  0.89810  1.0000 -0.5527826371
O   O7        1.0  0.02990  0.73680  0.10520  1.0000 -0.4939158978
O   O8        1.0  0.98120  0.67240  0.38160  1.0000 -0.479008046
O   O9        1.0  0.36630  0.76760  0.71020  1.0000 -0.5577799501
O   O10       1.0  0.36060  0.80100  0.00140  1.0000 -0.5688375256
O   O11       1.0  0.35870  0.21210  0.51020  1.0000 -0.5688375256
O   O12       1.0  0.24920  0.21360  0.39980  1.0000 -0.5577799501
O   O13       1.0  0.36410  0.20740  0.21600  1.0000 -0.5688375256
O   O14       1.0  0.57250  0.20350  0.41250  1.0000 -0.5430224659
O   O15       1.0  0.74580  0.27650  0.10830  1.0000 -0.5577799501
O   O16       1.0  0.42310  0.29070  0.10190  1.0000 -0.5527826371
O   O17       1.0  0.97010  0.23680  0.89480  1.0000 -0.4939158978
O   O18       1.0  0.01880  0.17240  0.61840  1.0000 -0.479008046
O   O19       1.0  0.63370  0.26760  0.28980  1.0000 -0.5577799501
O   O20       1.0  0.63940  0.30100  0.99860  1.0000 -0.5688375256
