# DDEC6 charges by PACMAN v1.1 (https://github.com/mtap-research/PACMAN-charge/)
data_2020[Zn][tfc]3[ASR]1
_chemical_formula_sum              "Zn4 H40 C60 S2 N20 O20"
_cell_length_a       10.7126
_cell_length_b       13.1207
_cell_length_c       13.2777
_cell_angle_alpha    83.842
_cell_angle_beta     81.766
_cell_angle_gamma    88.915

_symmetry_space_group_name_H-M    "P 1"
_symmetry_Int_Tables_number       1

loop_
  _symmetry_equiv_pos_as_xyz
  'x, y, z'

loop_
  _atom_site_type_symbol
  _atom_site_label
  _atom_site_symmetry_multiplicity
  _atom_site_fract_x
  _atom_site_fract_y
  _atom_site_fract_z
  _atom_site_occupancy
  _atom_site_charge
Zn  Zn1       1.0  0.10034  0.12048  0.82496  1.0000 0.6529658148
Zn  Zn2       1.0  0.69834  0.39871  0.98631  1.0000 0.7083351323
Zn  Zn3       1.0  0.89966  0.87952  0.17504  1.0000 0.655512602
Zn  Zn4       1.0  0.30166  0.60129  0.01369  1.0000 0.7083351323
H   H1        1.0  0.62868  0.66569  0.22351  1.0000 0.2602113792
H   H2        1.0  0.27897  0.91171  0.13856  1.0000 0.1015611524
H   H3        1.0  0.57607  0.04921  0.21915  1.0000 0.1096958886
H   H4        1.0  0.66959  0.37653  0.75954  1.0000 0.1096958886
H   H5        1.0  0.62092  0.63159  0.88390  1.0000 0.1096958886
H   H6        1.0  0.72173  0.37428  0.57779  1.0000 0.1096958886
H   H7        1.0  0.72730  0.37399  0.40325  1.0000 0.1213749259
H   H8        1.0  0.64009  0.62495  0.05374  1.0000 0.1096958886
H   H9        1.0  0.72372  0.37870  0.22335  1.0000 0.1383529284
H   H10       1.0  0.61790  0.66591  0.38109  1.0000 0.1015611524
H   H11       1.0  0.60731  0.66615  0.55568  1.0000 0.1383529284
H   H12       1.0  0.40475  0.18026  0.98763  1.0000 0.1096958886
H   H13       1.0  0.07323  0.87997  0.87754  1.0000 0.1383529284
H   H14       1.0  0.91838  0.04851  0.67301  1.0000 0.1096958886
H   H15       1.0  0.91042  0.72552  0.94672  1.0000 0.1298391064
H   H16       1.0  0.90728  0.54852  0.97425  1.0000 0.1096958886
H   H17       1.0  0.85463  0.20195  0.95539  1.0000 0.1096958886
H   H18       1.0  0.08965  0.35622  0.74256  1.0000 0.1213749259
H   H19       1.0  0.98580  0.53165  0.67249  1.0000 0.1096958886
H   H20       1.0  0.99453  0.70899  0.64465  1.0000 0.1298391064
H   H21       1.0  0.37132  0.33431  0.77649  1.0000 0.2602113792
H   H22       1.0  0.72103  0.08829  0.86144  1.0000 0.1015611524
H   H23       1.0  0.42393  0.95079  0.78085  1.0000 0.1096958886
H   H24       1.0  0.33041  0.62347  0.24046  1.0000 0.1096958886
H   H25       1.0  0.37908  0.36841  0.11610  1.0000 0.1096958886
H   H26       1.0  0.27827  0.62572  0.42221  1.0000 0.1096958886
H   H27       1.0  0.27270  0.62601  0.59675  1.0000 0.1213749259
H   H28       1.0  0.35991  0.37505  0.94626  1.0000 0.1096958886
H   H29       1.0  0.27628  0.62130  0.77665  1.0000 0.1383529284
H   H30       1.0  0.38210  0.33409  0.61891  1.0000 0.1015611524
H   H31       1.0  0.39269  0.33385  0.44432  1.0000 0.1383529284
H   H32       1.0  0.59525  0.81974  0.01237  1.0000 0.1096958886
H   H33       1.0  0.92677  0.12003  0.12246  1.0000 0.1383529284
H   H34       1.0  0.08162  0.95149  0.32699  1.0000 0.1096958886
H   H35       1.0  0.08958  0.27448  0.05328  1.0000 0.1298391064
H   H36       1.0  0.09272  0.45148  0.02575  1.0000 0.1096958886
H   H37       1.0  0.14537  0.79805  0.04461  1.0000 0.1096958886
H   H38       1.0  0.91035  0.64378  0.25744  1.0000 0.1213749259
H   H39       1.0  0.01420  0.46835  0.32751  1.0000 0.1096958886
H   H40       1.0  0.00547  0.29101  0.35535  1.0000 0.1298391064
C   C1        1.0  0.22600  0.04300  0.98400  1.0000 0.55236213
C   C2        1.0  0.32530  0.04570  0.05230  1.0000 -0.0201504892
C   C3        1.0  0.33500  0.96630  0.12900  1.0000 -0.1207452494
C   C4        1.0  0.42830  0.96850  0.19150  1.0000 -0.1696093074
C   C5        1.0  0.51330  0.04880  0.17750  1.0000 -0.0920617534
C   C6        1.0  0.50450  0.12890  0.10120  1.0000 -0.0094428675
C   C7        1.0  0.59670  0.21690  0.08250  1.0000 0.55236213
C   C8        1.0  0.65880  0.44550  0.76890  1.0000 0.0475636978
C   C9        1.0  0.63240  0.58500  0.83530  1.0000 0.1487775429
C   C10       1.0  0.66440  0.52080  0.58380  1.0000 0.1383529284
C   C11       1.0  0.70040  0.43320  0.53840  1.0000 -0.1855866974
C   C12       1.0  0.70460  0.43350  0.43370  1.0000 -0.1401358014
C   C13       1.0  0.67550  0.52060  0.37420  1.0000 0.0475636978
C   C14       1.0  0.67730  0.52000  0.26430  1.0000 0.0762744555
C   C15       1.0  0.65570  0.58020  0.10980  1.0000 0.1213749259
C   C16       1.0  0.70140  0.44570  0.20250  1.0000 -0.0686363829
C   C17       1.0  0.63890  0.60690  0.42050  1.0000 -0.1401358014
C   C18       1.0  0.63280  0.60720  0.52510  1.0000 -0.158191233
C   C19       1.0  0.41070  0.12690  0.03880  1.0000 -0.1475400245
C   C20       1.0  0.02750  0.90220  0.82480  1.0000 0.1298391064
C   C21       1.0  0.94260  0.99150  0.71370  1.0000 0.1487775429
C   C22       1.0  0.95580  0.73290  0.79240  1.0000 0.1298391064
C   C23       1.0  0.92740  0.68630  0.89200  1.0000 -0.1790799825
C   C24       1.0  0.92480  0.58060  0.90790  1.0000 -0.158191233
C   C25       1.0  0.94800  0.52120  0.82640  1.0000 0.0475636978
C   C26       1.0  0.94750  0.40820  0.84440  1.0000 0.0948433438
C   C27       1.0  0.89610  0.25580  0.91340  1.0000 0.1487775429
C   C28       1.0  0.02520  0.34000  0.79640  1.0000 -0.1207452494
C   C29       1.0  0.97240  0.57030  0.72780  1.0000 -0.1401358014
C   C30       1.0  0.97710  0.67650  0.71090  1.0000 -0.1696093074
C   C31       1.0  0.77400  0.95700  0.01600  1.0000 0.55236213
C   C32       1.0  0.67470  0.95430  0.94770  1.0000 -0.0201504892
C   C33       1.0  0.66500  0.03370  0.87100  1.0000 -0.1207452494
C   C34       1.0  0.57170  0.03150  0.80850  1.0000 -0.1696093074
C   C35       1.0  0.48670  0.95120  0.82250  1.0000 -0.0920617534
C   C36       1.0  0.49550  0.87110  0.89880  1.0000 -0.0094428675
C   C37       1.0  0.40330  0.78310  0.91750  1.0000 0.55236213
C   C38       1.0  0.34120  0.55450  0.23110  1.0000 0.0475636978
C   C39       1.0  0.36760  0.41500  0.16470  1.0000 0.1487775429
C   C40       1.0  0.33560  0.47920  0.41620  1.0000 0.1383529284
C   C41       1.0  0.29960  0.56680  0.46160  1.0000 -0.1855866974
C   C42       1.0  0.29540  0.56650  0.56630  1.0000 -0.1401358014
C   C43       1.0  0.32450  0.47940  0.62580  1.0000 0.0475636978
C   C44       1.0  0.32270  0.48000  0.73570  1.0000 0.0762744555
C   C45       1.0  0.34430  0.41980  0.89020  1.0000 0.1213749259
C   C46       1.0  0.29860  0.55430  0.79750  1.0000 -0.0686363829
C   C47       1.0  0.36110  0.39310  0.57950  1.0000 -0.1401358014
C   C48       1.0  0.36720  0.39280  0.47490  1.0000 -0.158191233
C   C49       1.0  0.58930  0.87310  0.96120  1.0000 -0.1475400245
C   C50       1.0  0.97250  0.09780  0.17520  1.0000 0.1298391064
C   C51       1.0  0.05740  0.00850  0.28630  1.0000 0.1487775429
C   C52       1.0  0.04420  0.26710  0.20760  1.0000 0.1298391064
C   C53       1.0  0.07260  0.31370  0.10800  1.0000 -0.1790799825
C   C54       1.0  0.07520  0.41940  0.09210  1.0000 -0.158191233
C   C55       1.0  0.05200  0.47880  0.17360  1.0000 0.0475636978
C   C56       1.0  0.05250  0.59180  0.15560  1.0000 0.0948433438
C   C57       1.0  0.10390  0.74420  0.08660  1.0000 0.1487775429
C   C58       1.0  0.97480  0.66000  0.20360  1.0000 -0.1207452494
C   C59       1.0  0.02760  0.42970  0.27220  1.0000 -0.1401358014
C   C60       1.0  0.02290  0.32350  0.28910  1.0000 -0.1696093074
S   S1        1.0  0.43589  0.86546  0.28858  1.0000 0.6185359964
S   S2        1.0  0.56411  0.13454  0.71142  1.0000 0.6185359964
N   N1        1.0  0.64530  0.48370  0.85950  1.0000 -0.3190288162
N   N2        1.0  0.65430  0.52160  0.69390  1.0000 0.1096958886
N   N3        1.0  0.63750  0.61230  0.73680  1.0000 -0.2300699568
N   N4        1.0  0.64810  0.60630  0.20390  1.0000 -0.2503829143
N   N5        1.0  0.68830  0.48260  0.10460  1.0000 -0.2850365928
N   N6        1.0  0.01680  0.99850  0.78680  1.0000 -0.3190288162
N   N7        1.0  0.96430  0.84230  0.77730  1.0000 0.1383529284
N   N8        1.0  0.90780  0.89920  0.70450  1.0000 -0.2300699568
N   N9        1.0  0.86450  0.35410  0.92000  1.0000 -0.350925087
N   N10       1.0  0.99250  0.24240  0.84090  1.0000 -0.2973242691
N   N11       1.0  0.35470  0.51630  0.14050  1.0000 -0.3190288162
N   N12       1.0  0.34570  0.47840  0.30610  1.0000 0.1096958886
N   N13       1.0  0.36250  0.38770  0.26320  1.0000 -0.2300699568
N   N14       1.0  0.35190  0.39370  0.79610  1.0000 -0.2503829143
N   N15       1.0  0.31170  0.51740  0.89540  1.0000 -0.2850365928
N   N16       1.0  0.98320  0.00150  0.21320  1.0000 -0.3190288162
N   N17       1.0  0.03570  0.15770  0.22270  1.0000 0.1383529284
N   N18       1.0  0.09220  0.10080  0.29550  1.0000 -0.2300699568
N   N19       1.0  0.13550  0.64590  0.08000  1.0000 -0.350925087
N   N20       1.0  0.00750  0.75760  0.15910  1.0000 -0.2973242691
O   O1        1.0  0.21830  0.12140  0.92140  1.0000 -0.5441512159
O   O2        1.0  0.15760  0.96850  0.99180  1.0000 -0.534962683
O   O3        1.0  0.31760  0.84330  0.33550  1.0000 -0.0014382992
O   O4        1.0  0.53140  0.89000  0.34750  1.0000 -0.1790799825
O   O5        1.0  0.49120  0.77750  0.23070  1.0000 -0.0976173459
O   O6        1.0  0.57450  0.28880  0.01500  1.0000 -0.5601167372
O   O7        1.0  0.68600  0.21790  0.13210  1.0000 -0.546713997
O   O8        1.0  0.39900  0.91910  0.38480  1.0000 -0.2077709875
O   O9        1.0  0.33460  0.79840  0.28690  1.0000 -0.1207452494
O   O10       1.0  0.55040  0.81390  0.26650  1.0000 0.0085333409
O   O11       1.0  0.78170  0.87860  0.07860  1.0000 -0.546713997
O   O12       1.0  0.84240  0.03150  0.00820  1.0000 -0.534962683
O   O13       1.0  0.68240  0.15670  0.66450  1.0000 -0.0094428675
O   O14       1.0  0.46860  0.11000  0.65250  1.0000 -0.1790799825
O   O15       1.0  0.50880  0.22250  0.76930  1.0000 -0.0976173459
O   O16       1.0  0.42550  0.71120  0.98500  1.0000 -0.5601167372
O   O17       1.0  0.31400  0.78210  0.86790  1.0000 -0.546713997
O   O18       1.0  0.60100  0.08090  0.61520  1.0000 -0.2077709875
O   O19       1.0  0.66540  0.20160  0.71310  1.0000 -0.1207452494
O   O20       1.0  0.44960  0.18610  0.73350  1.0000 0.0085333409
