# DDEC6 charges by PACMAN v1.1 (https://github.com/mtap-research/PACMAN-charge/)
data_2020[Gd][nan]2[ASR]3
_chemical_formula_sum              "Gd8 H72 C72 O48"
_cell_length_a       13.3134
_cell_length_b       15.4316
_cell_length_c       14.7965
_cell_angle_alpha    90
_cell_angle_beta     108.078
_cell_angle_gamma    90

_symmetry_space_group_name_H-M    "P 1"
_symmetry_Int_Tables_number       1

loop_
  _symmetry_equiv_pos_as_xyz
  'x, y, z'

loop_
  _atom_site_type_symbol
  _atom_site_label
  _atom_site_symmetry_multiplicity
  _atom_site_fract_x
  _atom_site_fract_y
  _atom_site_fract_z
  _atom_site_occupancy
  _atom_site_charge
Gd  Gd1       1.0  0.45858  0.27129  0.51211  1.0000 2.0171886224
Gd  Gd2       1.0  0.58204  0.26706  0.29414  1.0000 2.0171886224
Gd  Gd3       1.0  0.54142  0.77129  0.98789  1.0000 2.0171886224
Gd  Gd4       1.0  0.41796  0.76706  0.20586  1.0000 2.0171886224
Gd  Gd5       1.0  0.54142  0.72871  0.48789  1.0000 2.0171886224
Gd  Gd6       1.0  0.41796  0.73294  0.70586  1.0000 2.0171886224
Gd  Gd7       1.0  0.45858  0.22871  0.01211  1.0000 2.0171886224
Gd  Gd8       1.0  0.58204  0.23294  0.79414  1.0000 2.0128186483
H   H1        1.0  0.22700  0.08100  0.27000  1.0000 0.1008503954
H   H2        1.0  0.24900  0.06100  0.17500  1.0000 0.1196939208
H   H3        1.0  0.31500  0.42400  0.17000  1.0000 0.0896211325
H   H4        1.0  0.33500  0.51400  0.14400  1.0000 0.1092290588
H   H5        1.0  0.22270  0.45230  0.32410  1.0000 0.1008503954
H   H6        1.0  0.23220  0.55560  0.32770  1.0000 0.1092290588
H   H7        1.0  0.17100  0.27700  0.13000  1.0000 0.1008503954
H   H8        1.0  0.15600  0.27300  0.22500  1.0000 0.0896211325
H   H9        1.0  0.90200  0.27900  0.67400  1.0000 0.0714907114
H   H10       1.0  0.88200  0.27800  0.57900  1.0000 0.0802044084
H   H11       1.0  0.76200  0.07800  0.55600  1.0000 0.1092290588
H   H12       1.0  0.78300  0.08100  0.66500  1.0000 0.0896211325
H   H13       1.0  0.18100  0.57400  0.17000  1.0000 0.0896211325
H   H14       1.0  0.18000  0.45900  0.18950  1.0000 0.1092290588
H   H15       1.0  0.11200  0.15000  0.19800  1.0000 0.0802044084
H   H16       1.0  0.03500  0.13400  0.12100  1.0000 0.0428476844
H   H17       1.0  0.92400  0.15700  0.68310  1.0000 0.1196939208
H   H18       1.0  0.91200  0.12300  0.56000  1.0000 0.1092290588
H   H19       1.0  0.77300  0.58100  0.23000  1.0000 0.1008503954
H   H20       1.0  0.75100  0.56100  0.32500  1.0000 0.1196939208
H   H21       1.0  0.68500  0.92400  0.33000  1.0000 0.0896211325
H   H22       1.0  0.66500  0.01400  0.35600  1.0000 0.1092290588
H   H23       1.0  0.77730  0.95230  0.17590  1.0000 0.1008503954
H   H24       1.0  0.76780  0.05560  0.17230  1.0000 0.1092290588
H   H25       1.0  0.82900  0.77700  0.37000  1.0000 0.1008503954
H   H26       1.0  0.84400  0.77300  0.27500  1.0000 0.0896211325
H   H27       1.0  0.09800  0.77900  0.82600  1.0000 0.0714907114
H   H28       1.0  0.11800  0.77800  0.92100  1.0000 0.0802044084
H   H29       1.0  0.23800  0.57800  0.94400  1.0000 0.1092290588
H   H30       1.0  0.21700  0.58100  0.83500  1.0000 0.0896211325
H   H31       1.0  0.81900  0.07400  0.33000  1.0000 0.0896211325
H   H32       1.0  0.82000  0.95900  0.31050  1.0000 0.1092290588
H   H33       1.0  0.88800  0.65000  0.30200  1.0000 0.0802044084
H   H34       1.0  0.96500  0.63400  0.37900  1.0000 0.0428476844
H   H35       1.0  0.07600  0.65700  0.81690  1.0000 0.1196939208
H   H36       1.0  0.08800  0.62300  0.94000  1.0000 0.1092290588
H   H37       1.0  0.77300  0.91900  0.73000  1.0000 0.1008503954
H   H38       1.0  0.75100  0.93900  0.82500  1.0000 0.1196939208
H   H39       1.0  0.68500  0.57600  0.83000  1.0000 0.0896211325
H   H40       1.0  0.66500  0.48600  0.85600  1.0000 0.1092290588
H   H41       1.0  0.77730  0.54770  0.67590  1.0000 0.1008503954
H   H42       1.0  0.76780  0.44440  0.67230  1.0000 0.1092290588
H   H43       1.0  0.82900  0.72300  0.87000  1.0000 0.1008503954
H   H44       1.0  0.84400  0.72700  0.77500  1.0000 0.0896211325
H   H45       1.0  0.09800  0.72100  0.32600  1.0000 0.0714907114
H   H46       1.0  0.11800  0.72200  0.42100  1.0000 0.0802044084
H   H47       1.0  0.23800  0.92200  0.44400  1.0000 0.1092290588
H   H48       1.0  0.21700  0.91900  0.33500  1.0000 0.0896211325
H   H49       1.0  0.81900  0.42600  0.83000  1.0000 0.0896211325
H   H50       1.0  0.82000  0.54100  0.81050  1.0000 0.1092290588
H   H51       1.0  0.88800  0.85000  0.80200  1.0000 0.0802044084
H   H52       1.0  0.96500  0.86600  0.87900  1.0000 0.0428476844
H   H53       1.0  0.07600  0.84300  0.31690  1.0000 0.1196939208
H   H54       1.0  0.08800  0.87700  0.44000  1.0000 0.1092290588
H   H55       1.0  0.22700  0.41900  0.77000  1.0000 0.1008503954
H   H56       1.0  0.24900  0.43900  0.67500  1.0000 0.1196939208
H   H57       1.0  0.31500  0.07600  0.67000  1.0000 0.0896211325
H   H58       1.0  0.33500  0.98600  0.64400  1.0000 0.1092290588
H   H59       1.0  0.22270  0.04770  0.82410  1.0000 0.1008503954
H   H60       1.0  0.23220  0.94440  0.82770  1.0000 0.1092290588
H   H61       1.0  0.17100  0.22300  0.63000  1.0000 0.1008503954
H   H62       1.0  0.15600  0.22700  0.72500  1.0000 0.0896211325
H   H63       1.0  0.90200  0.22100  0.17400  1.0000 0.0714907114
H   H64       1.0  0.88200  0.22200  0.07900  1.0000 0.0802044084
H   H65       1.0  0.76200  0.42200  0.05600  1.0000 0.1092290588
H   H66       1.0  0.78300  0.41900  0.16500  1.0000 0.0896211325
H   H67       1.0  0.18100  0.92600  0.67000  1.0000 0.0896211325
H   H68       1.0  0.18000  0.04100  0.68950  1.0000 0.1092290588
H   H69       1.0  0.11200  0.35000  0.69800  1.0000 0.0802044084
H   H70       1.0  0.03500  0.36600  0.62100  1.0000 0.0428476844
H   H71       1.0  0.92400  0.34300  0.18310  1.0000 0.1196939208
H   H72       1.0  0.91200  0.37700  0.06000  1.0000 0.1092290588
C   C1        1.0  0.33970  0.21820  0.31770  1.0000 0.5982281927
C   C2        1.0  0.69970  0.22910  0.65930  1.0000 0.5894227911
C   C3        1.0  0.69560  0.22600  0.48930  1.0000 0.5894227911
C   C4        1.0  0.34350  0.20580  0.14660  1.0000 0.5982281927
C   C5        1.0  0.75870  0.20540  0.59060  1.0000 -0.0923705907
C   C6        1.0  0.41890  0.58030  0.31420  1.0000 0.6262296129
C   C7        1.0  0.42660  0.42320  0.34030  1.0000 0.6426606912
C   C8        1.0  0.35650  0.49660  0.28760  1.0000 -0.0923705907
C   C9        1.0  0.28140  0.19480  0.21600  1.0000 -0.0693087049
C   C10       1.0  0.22070  0.10800  0.20510  1.0000 -0.2265098292
C   C11       1.0  0.30450  0.48060  0.17910  1.0000 -0.1712250423
C   C12       1.0  0.24420  0.50320  0.29640  1.0000 -0.1905606102
C   C13       1.0  0.17030  0.23940  0.17340  1.0000 -0.2139855672
C   C14       1.0  0.87460  0.23580  0.61640  1.0000 -0.1712250423
C   C15       1.0  0.80130  0.11030  0.60540  1.0000 -0.1584889453
C   C16       1.0  0.19900  0.50680  0.18720  1.0000 -0.1584889453
C   C17       1.0  0.12040  0.15320  0.14150  1.0000 -0.0693087049
C   C18       1.0  0.91070  0.14210  0.61450  1.0000 -0.1584889453
C   C19       1.0  0.66030  0.71820  0.18230  1.0000 0.5982281927
C   C20       1.0  0.30030  0.72910  0.84070  1.0000 0.5894227911
C   C21       1.0  0.30440  0.72600  0.01070  1.0000 0.5894227911
C   C22       1.0  0.65650  0.70580  0.35340  1.0000 0.5982281927
C   C23       1.0  0.24130  0.70540  0.90940  1.0000 -0.0923705907
C   C24       1.0  0.58110  0.08030  0.18580  1.0000 0.6262296129
C   C25       1.0  0.57340  0.92320  0.15970  1.0000 0.6426606912
C   C26       1.0  0.64350  0.99660  0.21240  1.0000 -0.0923705907
C   C27       1.0  0.71860  0.69480  0.28400  1.0000 -0.0693087049
C   C28       1.0  0.77930  0.60800  0.29490  1.0000 -0.2265098292
C   C29       1.0  0.69550  0.98060  0.32090  1.0000 -0.1712250423
C   C30       1.0  0.75580  0.00320  0.20360  1.0000 -0.1905606102
C   C31       1.0  0.82970  0.73940  0.32660  1.0000 -0.2139855672
C   C32       1.0  0.12540  0.73580  0.88360  1.0000 -0.1712250423
C   C33       1.0  0.19870  0.61030  0.89460  1.0000 -0.1584889453
C   C34       1.0  0.80100  0.00680  0.31280  1.0000 -0.1584889453
C   C35       1.0  0.87960  0.65320  0.35850  1.0000 -0.0693087049
C   C36       1.0  0.08930  0.64210  0.88550  1.0000 -0.1584889453
C   C37       1.0  0.66030  0.78180  0.68230  1.0000 0.5982281927
C   C38       1.0  0.30030  0.77090  0.34070  1.0000 0.5894227911
C   C39       1.0  0.30440  0.77400  0.51070  1.0000 0.5894227911
C   C40       1.0  0.65650  0.79420  0.85340  1.0000 0.5982281927
C   C41       1.0  0.24130  0.79460  0.40940  1.0000 -0.0951761913
C   C42       1.0  0.58110  0.41970  0.68580  1.0000 0.6262296129
C   C43       1.0  0.57340  0.57680  0.65970  1.0000 0.6426606912
C   C44       1.0  0.64350  0.50340  0.71240  1.0000 -0.0923705907
C   C45       1.0  0.71860  0.80520  0.78400  1.0000 -0.0693087049
C   C46       1.0  0.77930  0.89200  0.79490  1.0000 -0.2265098292
C   C47       1.0  0.69550  0.51940  0.82090  1.0000 -0.1712250423
C   C48       1.0  0.75580  0.49680  0.70360  1.0000 -0.1905606102
C   C49       1.0  0.82970  0.76060  0.82660  1.0000 -0.2139855672
C   C50       1.0  0.12540  0.76420  0.38360  1.0000 -0.1712250423
C   C51       1.0  0.19870  0.88970  0.39460  1.0000 -0.1584889453
C   C52       1.0  0.80100  0.49320  0.81280  1.0000 -0.1584889453
C   C53       1.0  0.87960  0.84680  0.85850  1.0000 -0.0693087049
C   C54       1.0  0.08930  0.85790  0.38550  1.0000 -0.1584889453
C   C55       1.0  0.33970  0.28180  0.81770  1.0000 0.5982281927
C   C56       1.0  0.69970  0.27090  0.15930  1.0000 0.5894227911
C   C57       1.0  0.69560  0.27400  0.98930  1.0000 0.5894227911
C   C58       1.0  0.34350  0.29420  0.64660  1.0000 0.5982281927
C   C59       1.0  0.75870  0.29460  0.09060  1.0000 -0.0951761913
C   C60       1.0  0.41890  0.91970  0.81420  1.0000 0.6262296129
C   C61       1.0  0.42660  0.07680  0.84030  1.0000 0.6426606912
C   C62       1.0  0.35650  0.00340  0.78760  1.0000 -0.0923705907
C   C63       1.0  0.28140  0.30520  0.71600  1.0000 -0.0693087049
C   C64       1.0  0.22070  0.39200  0.70510  1.0000 -0.2265098292
C   C65       1.0  0.30450  0.01940  0.67910  1.0000 -0.1712250423
C   C66       1.0  0.24420  0.99680  0.79640  1.0000 -0.1905606102
C   C67       1.0  0.17030  0.26060  0.67340  1.0000 -0.2139855672
C   C68       1.0  0.87460  0.26420  0.11640  1.0000 -0.1712250423
C   C69       1.0  0.80130  0.38970  0.10540  1.0000 -0.1584889453
C   C70       1.0  0.19900  0.99320  0.68720  1.0000 -0.1584889453
C   C71       1.0  0.12040  0.34680  0.64150  1.0000 -0.0693087049
C   C72       1.0  0.91070  0.35790  0.11450  1.0000 -0.1584889453
O   O1        1.0  0.41650  0.26310  0.16171  1.0000 -0.7180695346
O   O2        1.0  0.44100  0.21712  0.34849  1.0000 -0.7180695346
O   O3        1.0  0.60200  0.20436  0.63731  1.0000 -0.7519282859
O   O4        1.0  0.61800  0.27962  0.47186  1.0000 -0.7180695346
O   O5        1.0  0.41320  0.39395  0.41447  1.0000 -0.6047982138
O   O6        1.0  0.49430  0.39625  0.30352  1.0000 -0.6534812312
O   O7        1.0  0.74200  0.26459  0.73627  1.0000 -0.5401854675
O   O8        1.0  0.44460  0.62058  0.24990  1.0000 -0.6559595924
O   O9        1.0  0.29000  0.23470  0.37470  1.0000 -0.5758508008
O   O10       1.0  0.44300  0.60597  0.39857  1.0000 -0.5915840875
O   O11       1.0  0.72030  0.19400  0.42206  1.0000 -0.5569295895
O   O12       1.0  0.32080  0.16279  0.07127  1.0000 -0.5456170898
O   O13       1.0  0.58350  0.76310  0.33829  1.0000 -0.7180695346
O   O14       1.0  0.55900  0.71712  0.15151  1.0000 -0.7180695346
O   O15       1.0  0.39800  0.70436  0.86269  1.0000 -0.7519282859
O   O16       1.0  0.38200  0.77962  0.02814  1.0000 -0.7180695346
O   O17       1.0  0.58680  0.89395  0.08553  1.0000 -0.6047982138
O   O18       1.0  0.50570  0.89625  0.19648  1.0000 -0.6534812312
O   O19       1.0  0.25800  0.76459  0.76373  1.0000 -0.5401854675
O   O20       1.0  0.55540  0.12058  0.25010  1.0000 -0.6559595924
O   O21       1.0  0.71000  0.73470  0.12530  1.0000 -0.5758508008
O   O22       1.0  0.55700  0.10597  0.10143  1.0000 -0.5915840875
O   O23       1.0  0.27970  0.69400  0.07794  1.0000 -0.5569295895
O   O24       1.0  0.67920  0.66279  0.42873  1.0000 -0.5401854675
O   O25       1.0  0.58350  0.73690  0.83829  1.0000 -0.7180695346
O   O26       1.0  0.55900  0.78288  0.65151  1.0000 -0.7180695346
O   O27       1.0  0.39800  0.79564  0.36269  1.0000 -0.7519282859
O   O28       1.0  0.38200  0.72038  0.52814  1.0000 -0.7180695346
O   O29       1.0  0.58680  0.60605  0.58553  1.0000 -0.6047982138
O   O30       1.0  0.50570  0.60375  0.69648  1.0000 -0.6534812312
O   O31       1.0  0.25800  0.73541  0.26373  1.0000 -0.5346487026
O   O32       1.0  0.55540  0.37942  0.75010  1.0000 -0.6559595924
O   O33       1.0  0.71000  0.76530  0.62530  1.0000 -0.5758508008
O   O34       1.0  0.55700  0.39403  0.60143  1.0000 -0.5915840875
O   O35       1.0  0.27970  0.80600  0.57794  1.0000 -0.5569295895
O   O36       1.0  0.67920  0.83721  0.92873  1.0000 -0.5456170898
O   O37       1.0  0.41650  0.23690  0.66171  1.0000 -0.7180695346
O   O38       1.0  0.44100  0.28288  0.84849  1.0000 -0.7180695346
O   O39       1.0  0.60200  0.29564  0.13731  1.0000 -0.7519282859
O   O40       1.0  0.61800  0.22038  0.97186  1.0000 -0.7180695346
O   O41       1.0  0.41320  0.10605  0.91447  1.0000 -0.6047982138
O   O42       1.0  0.49430  0.10375  0.80352  1.0000 -0.6534812312
O   O43       1.0  0.74200  0.23541  0.23627  1.0000 -0.5346487026
O   O44       1.0  0.44460  0.87942  0.74990  1.0000 -0.6559595924
O   O45       1.0  0.29000  0.26530  0.87470  1.0000 -0.5758508008
O   O46       1.0  0.44300  0.89403  0.89857  1.0000 -0.5915840875
O   O47       1.0  0.72030  0.30600  0.92206  1.0000 -0.5569295895
O   O48       1.0  0.32080  0.33721  0.57127  1.0000 -0.5401854675
