# DDEC6 charges by PACMAN v1.1 (https://github.com/mtap-research/PACMAN-charge/)
data_2020[Zn][nan]3[ASR]65
_chemical_formula_sum              "Zn4 H60 C84 N8 O20"
_cell_length_a       13.9669
_cell_length_b       13.9669
_cell_length_c       23.2327
_cell_angle_alpha    81.1414
_cell_angle_beta     98.8586
_cell_angle_gamma    145.876

_symmetry_space_group_name_H-M    "P 1"
_symmetry_Int_Tables_number       1

loop_
  _symmetry_equiv_pos_as_xyz
  'x, y, z'

loop_
  _atom_site_type_symbol
  _atom_site_label
  _atom_site_symmetry_multiplicity
  _atom_site_fract_x
  _atom_site_fract_y
  _atom_site_fract_z
  _atom_site_occupancy
  _atom_site_charge
Zn  Zn1       1.0  0.08119  0.16221  0.49818  1.0000 0.8309313718
Zn  Zn2       1.0  0.16221  0.08119  0.00182  1.0000 0.8309313718
Zn  Zn3       1.0  0.91881  0.83779  0.50182  1.0000 0.8309313718
Zn  Zn4       1.0  0.83779  0.91881  0.99818  1.0000 0.8309313718
H   H1        1.0  0.45836  0.52904  0.08303  1.0000 0.1209050651
H   H2        1.0  0.52485  0.76067  0.41845  1.0000 0.1319512999
H   H3        1.0  0.36840  0.48994  0.43028  1.0000 0.1209050651
H   H4        1.0  0.59660  0.63732  0.33888  1.0000 0.1125042036
H   H5        1.0  0.05087  0.33639  0.52991  1.0000 0.1209050651
H   H6        1.0  0.59606  0.74266  0.14202  1.0000 0.1407880536
H   H7        1.0  0.43871  0.56939  0.25302  1.0000 0.1319512999
H   H8        1.0  0.20321  0.60551  0.52170  1.0000 0.1319512999
H   H9        1.0  0.00903  0.29097  0.09958  1.0000 0.1209050651
H   H10       1.0  0.85215  0.09993  0.33333  1.0000 0.1209050651
H   H11       1.0  0.14641  0.50279  0.15997  1.0000 0.1407880536
H   H12       1.0  0.70474  0.13804  0.43468  1.0000 0.1487203452
H   H13       1.0  0.72443  0.03885  0.44475  1.0000 0.1628397468
H   H14       1.0  0.60842  0.99628  0.39076  1.0000 0.1487203452
H   H15       1.0  0.69616  0.03530  0.24755  1.0000 0.1407880536
H   H16       1.0  0.52904  0.45836  0.41697  1.0000 0.1209050651
H   H17       1.0  0.76067  0.52485  0.08155  1.0000 0.1319512999
H   H18       1.0  0.48994  0.36840  0.06972  1.0000 0.1209050651
H   H19       1.0  0.63732  0.59660  0.16112  1.0000 0.1125042036
H   H20       1.0  0.33639  0.05087  0.97009  1.0000 0.1209050651
H   H21       1.0  0.74266  0.59606  0.35798  1.0000 0.1407880536
H   H22       1.0  0.56939  0.43871  0.24698  1.0000 0.1319512999
H   H23       1.0  0.60551  0.20321  0.97830  1.0000 0.1319512999
H   H24       1.0  0.29097  0.00903  0.40042  1.0000 0.1209050651
H   H25       1.0  0.09993  0.85215  0.16667  1.0000 0.1209050651
H   H26       1.0  0.50279  0.14641  0.34003  1.0000 0.1407880536
H   H27       1.0  0.13804  0.70474  0.06532  1.0000 0.1487203452
H   H28       1.0  0.03885  0.72443  0.05525  1.0000 0.1628397468
H   H29       1.0  0.99628  0.60842  0.10924  1.0000 0.1487203452
H   H30       1.0  0.03530  0.69616  0.25245  1.0000 0.1407880536
H   H31       1.0  0.54164  0.47096  0.91697  1.0000 0.1209050651
H   H32       1.0  0.47515  0.23933  0.58155  1.0000 0.1319512999
H   H33       1.0  0.63160  0.51006  0.56972  1.0000 0.1209050651
H   H34       1.0  0.40340  0.36268  0.66112  1.0000 0.1125042036
H   H35       1.0  0.94913  0.66361  0.47009  1.0000 0.1209050651
H   H36       1.0  0.40394  0.25734  0.85798  1.0000 0.1407880536
H   H37       1.0  0.56129  0.43061  0.74698  1.0000 0.1319512999
H   H38       1.0  0.79679  0.39449  0.47830  1.0000 0.1319512999
H   H39       1.0  0.99097  0.70903  0.90042  1.0000 0.1209050651
H   H40       1.0  0.14785  0.90007  0.66667  1.0000 0.1209050651
H   H41       1.0  0.85359  0.49721  0.84003  1.0000 0.1407880536
H   H42       1.0  0.29526  0.86196  0.56532  1.0000 0.1487203452
H   H43       1.0  0.27557  0.96115  0.55525  1.0000 0.1628397468
H   H44       1.0  0.39158  0.00372  0.60924  1.0000 0.1487203452
H   H45       1.0  0.30384  0.96470  0.75245  1.0000 0.1407880536
H   H46       1.0  0.47096  0.54164  0.58303  1.0000 0.1209050651
H   H47       1.0  0.23933  0.47515  0.91845  1.0000 0.1319512999
H   H48       1.0  0.51006  0.63160  0.93028  1.0000 0.1209050651
H   H49       1.0  0.36268  0.40340  0.83888  1.0000 0.1125042036
H   H50       1.0  0.66361  0.94913  0.02991  1.0000 0.1209050651
H   H51       1.0  0.25734  0.40394  0.64202  1.0000 0.1407880536
H   H52       1.0  0.43061  0.56129  0.75302  1.0000 0.1319512999
H   H53       1.0  0.39449  0.79679  0.02170  1.0000 0.1319512999
H   H54       1.0  0.70903  0.99097  0.59958  1.0000 0.1209050651
H   H55       1.0  0.90007  0.14785  0.83333  1.0000 0.1209050651
H   H56       1.0  0.49721  0.85359  0.65997  1.0000 0.1407880536
H   H57       1.0  0.86196  0.29526  0.93468  1.0000 0.1487203452
H   H58       1.0  0.96115  0.27557  0.94475  1.0000 0.1628397468
H   H59       1.0  0.00372  0.39158  0.89076  1.0000 0.1487203452
H   H60       1.0  0.96470  0.30384  0.74755  1.0000 0.1407880536
C   C1        1.0  0.39427  0.52233  0.09910  1.0000 -0.0826003591
C   C2        1.0  0.83587  0.91593  0.40072  1.0000 0.5771663997
C   C3        1.0  0.42964  0.67636  0.44257  1.0000 -0.1758252208
C   C4        1.0  0.12985  0.24295  0.05238  1.0000 0.5771663997
C   C5        1.0  0.21918  0.38542  0.08706  1.0000 -0.0456208151
C   C6        1.0  0.73955  0.87545  0.34470  1.0000 -0.0589402768
C   C7        1.0  0.38585  0.71615  0.47063  1.0000 0.0823712262
C   C8        1.0  0.33518  0.51422  0.44958  1.0000 0.0991085309
C   C9        1.0  0.61686  0.71834  0.32040  1.0000 -0.0826003591
C   C10       1.0  0.49414  0.89406  0.46857  1.0000 0.2673412773
C   C11       1.0  0.15041  0.42479  0.50784  1.0000 0.0933113906
C   C12       1.0  0.47610  0.64870  0.13414  1.0000 -0.2095169232
C   C13       1.0  0.52268  0.67732  0.26927  1.0000 -0.227655289
C   C14       1.0  0.24062  0.58498  0.50292  1.0000 -0.1711920884
C   C15       1.0  0.12791  0.38109  0.10914  1.0000 -0.0826003591
C   C16       1.0  0.76798  0.99182  0.31718  1.0000 -0.0826003591
C   C17       1.0  0.38128  0.63692  0.15769  1.0000 0.24079842
C   C18       1.0  0.55388  0.79632  0.24278  1.0000 0.2564974788
C   C19       1.0  0.20886  0.50654  0.14472  1.0000 -0.204096758
C   C20       1.0  0.64602  0.02838  0.43150  1.0000 -0.5220213023
C   C21       1.0  0.67579  0.95421  0.26606  1.0000 -0.2095169232
C   C22       1.0  0.52233  0.39427  0.40090  1.0000 -0.0826003591
C   C23       1.0  0.91593  0.83587  0.09928  1.0000 0.5771663997
C   C24       1.0  0.67636  0.42964  0.05743  1.0000 -0.1758252208
C   C25       1.0  0.24295  0.12985  0.44762  1.0000 0.5771663997
C   C26       1.0  0.38542  0.21918  0.41294  1.0000 -0.0456208151
C   C27       1.0  0.87545  0.73955  0.15530  1.0000 -0.0589402768
C   C28       1.0  0.71615  0.38585  0.02937  1.0000 0.0823712262
C   C29       1.0  0.51422  0.33518  0.05042  1.0000 0.0991085309
C   C30       1.0  0.71834  0.61686  0.17960  1.0000 -0.0826003591
C   C31       1.0  0.89406  0.49414  0.03143  1.0000 0.2673412773
C   C32       1.0  0.42479  0.15041  0.99216  1.0000 0.0933113906
C   C33       1.0  0.64870  0.47610  0.36586  1.0000 -0.2095169232
C   C34       1.0  0.67732  0.52268  0.23073  1.0000 -0.227655289
C   C35       1.0  0.58498  0.24062  0.99708  1.0000 -0.1711920884
C   C36       1.0  0.38109  0.12791  0.39086  1.0000 -0.0826003591
C   C37       1.0  0.99182  0.76798  0.18282  1.0000 -0.0826003591
C   C38       1.0  0.63692  0.38128  0.34231  1.0000 0.24079842
C   C39       1.0  0.79632  0.55388  0.25722  1.0000 0.2564974788
C   C40       1.0  0.50654  0.20886  0.35528  1.0000 -0.204096758
C   C41       1.0  0.02838  0.64602  0.06850  1.0000 -0.5220213023
C   C42       1.0  0.95421  0.67579  0.23394  1.0000 -0.2095169232
C   C43       1.0  0.60573  0.47767  0.90090  1.0000 -0.0826003591
C   C44       1.0  0.16413  0.08407  0.59928  1.0000 0.5771663997
C   C45       1.0  0.57036  0.32364  0.55743  1.0000 -0.1758252208
C   C46       1.0  0.87015  0.75705  0.94762  1.0000 0.5771663997
C   C47       1.0  0.78082  0.61458  0.91294  1.0000 -0.0456208151
C   C48       1.0  0.26045  0.12455  0.65530  1.0000 -0.0589402768
C   C49       1.0  0.61415  0.28385  0.52937  1.0000 0.0823712262
C   C50       1.0  0.66482  0.48578  0.55042  1.0000 0.0991085309
C   C51       1.0  0.38314  0.28166  0.67960  1.0000 -0.0826003591
C   C52       1.0  0.50586  0.10594  0.53143  1.0000 0.2673412773
C   C53       1.0  0.84959  0.57521  0.49216  1.0000 0.0933113906
C   C54       1.0  0.52390  0.35130  0.86586  1.0000 -0.2095169232
C   C55       1.0  0.47732  0.32268  0.73073  1.0000 -0.227655289
C   C56       1.0  0.75938  0.41502  0.49708  1.0000 -0.1711920884
C   C57       1.0  0.87209  0.61891  0.89086  1.0000 -0.0826003591
C   C58       1.0  0.23202  0.00818  0.68282  1.0000 -0.0826003591
C   C59       1.0  0.61872  0.36308  0.84231  1.0000 0.24079842
C   C60       1.0  0.44612  0.20368  0.75722  1.0000 0.2564974788
C   C61       1.0  0.79114  0.49346  0.85528  1.0000 -0.204096758
C   C62       1.0  0.35398  0.97162  0.56850  1.0000 -0.5220213023
C   C63       1.0  0.32421  0.04579  0.73394  1.0000 -0.2095169232
C   C64       1.0  0.47767  0.60573  0.59910  1.0000 -0.0826003591
C   C65       1.0  0.08407  0.16413  0.90072  1.0000 0.5771663997
C   C66       1.0  0.32364  0.57036  0.94257  1.0000 -0.1758252208
C   C67       1.0  0.75705  0.87015  0.55238  1.0000 0.5771663997
C   C68       1.0  0.61458  0.78082  0.58706  1.0000 -0.0456208151
C   C69       1.0  0.12455  0.26045  0.84470  1.0000 -0.0589402768
C   C70       1.0  0.28385  0.61415  0.97063  1.0000 0.0823712262
C   C71       1.0  0.48578  0.66482  0.94958  1.0000 0.0991085309
C   C72       1.0  0.28166  0.38314  0.82040  1.0000 -0.0826003591
C   C73       1.0  0.10594  0.50586  0.96857  1.0000 0.2673412773
C   C74       1.0  0.57521  0.84959  0.00784  1.0000 0.0933113906
C   C75       1.0  0.35130  0.52390  0.63414  1.0000 -0.2095169232
C   C76       1.0  0.32268  0.47732  0.76927  1.0000 -0.227655289
C   C77       1.0  0.41502  0.75938  0.00292  1.0000 -0.1711920884
C   C78       1.0  0.61891  0.87209  0.60914  1.0000 -0.0826003591
C   C79       1.0  0.00818  0.23202  0.81718  1.0000 -0.0826003591
C   C80       1.0  0.36308  0.61872  0.65769  1.0000 0.24079842
C   C81       1.0  0.20368  0.44612  0.74278  1.0000 0.2564974788
C   C82       1.0  0.49346  0.79114  0.64472  1.0000 -0.204096758
C   C83       1.0  0.97162  0.35398  0.93150  1.0000 -0.5220213023
C   C84       1.0  0.04579  0.32421  0.76606  1.0000 -0.2095169232
N   N1        1.0  0.19891  0.38989  0.48237  1.0000 -0.2200118836
N   N2        1.0  0.44706  0.91574  0.50076  1.0000 -0.2374579844
N   N3        1.0  0.38989  0.19891  0.01763  1.0000 -0.2200118836
N   N4        1.0  0.91574  0.44706  0.99924  1.0000 -0.2374579844
N   N5        1.0  0.80109  0.61011  0.51763  1.0000 -0.2200118836
N   N6        1.0  0.55294  0.08426  0.49924  1.0000 -0.2374579844
N   N7        1.0  0.61011  0.80109  0.98237  1.0000 -0.2200118836
N   N8        1.0  0.08426  0.55294  0.00076  1.0000 -0.2374579844
O   O1        1.0  0.21804  0.24816  0.03894  1.0000 -0.5555750367
O   O2        1.0  0.93279  0.05381  0.42248  1.0000 -0.5464304027
O   O3        1.0  0.81199  0.80921  0.42218  1.0000 -0.5405584809
O   O4        1.0  0.97273  0.12647  0.03969  1.0000 -0.5405584809
O   O5        1.0  0.46093  0.76267  0.19349  1.0000 -0.227655289
O   O6        1.0  0.24816  0.21804  0.46106  1.0000 -0.5555750367
O   O7        1.0  0.05381  0.93279  0.07752  1.0000 -0.5464304027
O   O8        1.0  0.80921  0.81199  0.07782  1.0000 -0.5405584809
O   O9        1.0  0.12647  0.97273  0.46031  1.0000 -0.5405584809
O   O10       1.0  0.76267  0.46093  0.30651  1.0000 -0.227655289
O   O11       1.0  0.78196  0.75184  0.96106  1.0000 -0.5555750367
O   O12       1.0  0.06721  0.94619  0.57752  1.0000 -0.5464304027
O   O13       1.0  0.18801  0.19079  0.57782  1.0000 -0.5349303421
O   O14       1.0  0.02727  0.87353  0.96031  1.0000 -0.5405584809
O   O15       1.0  0.53907  0.23733  0.80651  1.0000 -0.227655289
O   O16       1.0  0.75184  0.78196  0.53894  1.0000 -0.5555750367
O   O17       1.0  0.94619  0.06721  0.92248  1.0000 -0.5464304027
O   O18       1.0  0.19079  0.18801  0.92218  1.0000 -0.5349303421
O   O19       1.0  0.87353  0.02727  0.53969  1.0000 -0.5405584809
O   O20       1.0  0.23733  0.53907  0.69349  1.0000 -0.227655289
