# DDEC6 charges by PACMAN v1.1 (https://github.com/mtap-research/PACMAN-charge/)
data_2020[Co][sql]2[ASR]9
_chemical_formula_sum              "Co4 H32 C60 O16"
_cell_length_a       11.3973
_cell_length_b       13.2586
_cell_length_c       14.964
_cell_angle_alpha    90
_cell_angle_beta     90
_cell_angle_gamma    90

_symmetry_space_group_name_H-M    "P 1"
_symmetry_Int_Tables_number       1

loop_
  _symmetry_equiv_pos_as_xyz
  'x, y, z'

loop_
  _atom_site_type_symbol
  _atom_site_label
  _atom_site_symmetry_multiplicity
  _atom_site_fract_x
  _atom_site_fract_y
  _atom_site_fract_z
  _atom_site_occupancy
  _atom_site_charge
Co  Co1       1.0  0.00000  0.75000  0.16850  1.0000 0.9404617719
Co  Co2       1.0  0.00000  0.75000  0.34822  1.0000 0.9404617719
Co  Co3       1.0  0.00000  0.25000  0.83150  1.0000 0.9404617719
Co  Co4       1.0  0.00000  0.25000  0.65178  1.0000 0.9404617719
H   H1        1.0  0.69300  0.95510  0.38460  1.0000 0.1214803948
H   H2        1.0  0.57490  0.09830  0.38630  1.0000 0.1214803948
H   H3        1.0  0.69490  0.17060  0.14320  1.0000 0.1214803948
H   H4        1.0  0.80540  0.02160  0.14260  1.0000 0.1214803948
H   H5        1.0  0.81710  0.46230  0.38260  1.0000 0.1298973135
H   H6        1.0  0.71270  0.31700  0.37770  1.0000 0.1214803948
H   H7        1.0  0.58680  0.39160  0.13670  1.0000 0.1214803948
H   H8        1.0  0.71850  0.52750  0.13400  1.0000 0.1214803948
H   H9        1.0  0.30700  0.54490  0.38460  1.0000 0.1214803948
H   H10       1.0  0.42510  0.40170  0.38630  1.0000 0.1214803948
H   H11       1.0  0.30510  0.32940  0.14320  1.0000 0.1214803948
H   H12       1.0  0.19460  0.47840  0.14260  1.0000 0.1214803948
H   H13       1.0  0.18290  0.03770  0.38260  1.0000 0.1298973135
H   H14       1.0  0.28730  0.18300  0.37770  1.0000 0.1214803948
H   H15       1.0  0.41320  0.10840  0.13670  1.0000 0.1214803948
H   H16       1.0  0.28150  0.97250  0.13400  1.0000 0.1214803948
H   H17       1.0  0.30700  0.45510  0.61540  1.0000 0.1214803948
H   H18       1.0  0.42510  0.59830  0.61370  1.0000 0.1214803948
H   H19       1.0  0.30510  0.67060  0.85680  1.0000 0.1214803948
H   H20       1.0  0.19460  0.52160  0.85740  1.0000 0.1214803948
H   H21       1.0  0.18290  0.96230  0.61740  1.0000 0.1298973135
H   H22       1.0  0.28730  0.81700  0.62230  1.0000 0.1214803948
H   H23       1.0  0.41320  0.89160  0.86330  1.0000 0.1214803948
H   H24       1.0  0.28150  0.02750  0.86600  1.0000 0.1214803948
H   H25       1.0  0.69300  0.04490  0.61540  1.0000 0.1214803948
H   H26       1.0  0.57490  0.90170  0.61370  1.0000 0.1214803948
H   H27       1.0  0.69490  0.82940  0.85680  1.0000 0.1214803948
H   H28       1.0  0.80540  0.97840  0.85740  1.0000 0.1214803948
H   H29       1.0  0.81710  0.53770  0.61740  1.0000 0.1298973135
H   H30       1.0  0.71270  0.68300  0.62230  1.0000 0.1214803948
H   H31       1.0  0.58680  0.60840  0.86330  1.0000 0.1214803948
H   H32       1.0  0.71850  0.47250  0.86600  1.0000 0.1214803948
C   C1        1.0  0.83440  0.88240  0.25930  1.0000 0.586629825
C   C2        1.0  0.75580  0.97210  0.26150  1.0000 -0.0297091826
C   C3        1.0  0.69100  0.99700  0.33480  1.0000 -0.0892628831
C   C4        1.0  0.62160  0.08380  0.33700  1.0000 -0.1672805097
C   C5        1.0  0.62450  0.14950  0.26150  1.0000 0.0786700047
C   C6        1.0  0.69160  0.12710  0.19190  1.0000 -0.1527416833
C   C7        1.0  0.75870  0.03660  0.19170  1.0000 -0.0892628831
C   C8        1.0  0.85890  0.59800  0.25180  1.0000 0.586629825
C   C9        1.0  0.78390  0.50490  0.25920  1.0000 -0.0224684101
C   C10       1.0  0.77570  0.44570  0.33110  1.0000 -0.0836779677
C   C11       1.0  0.70760  0.36160  0.33000  1.0000 -0.1425880619
C   C12       1.0  0.63280  0.33990  0.26240  1.0000 0.0718015007
C   C13       1.0  0.63570  0.40410  0.18520  1.0000 -0.1672805097
C   C14       1.0  0.71360  0.48610  0.18400  1.0000 -0.0892628831
C   C15       1.0  0.56000  0.24800  0.26230  1.0000 -0.0297091826
C   C16       1.0  0.16560  0.61760  0.25930  1.0000 0.586629825
C   C17       1.0  0.24420  0.52790  0.26150  1.0000 -0.0297091826
C   C18       1.0  0.30900  0.50300  0.33480  1.0000 -0.0892628831
C   C19       1.0  0.37840  0.41620  0.33700  1.0000 -0.1672805097
C   C20       1.0  0.37550  0.35050  0.26150  1.0000 0.0786700047
C   C21       1.0  0.30840  0.37290  0.19190  1.0000 -0.1527416833
C   C22       1.0  0.24130  0.46340  0.19170  1.0000 -0.0892628831
C   C23       1.0  0.14110  0.90200  0.25180  1.0000 0.586629825
C   C24       1.0  0.21610  0.99510  0.25920  1.0000 -0.0224684101
C   C25       1.0  0.22430  0.05430  0.33110  1.0000 -0.0836779677
C   C26       1.0  0.29240  0.13840  0.33000  1.0000 -0.1425880619
C   C27       1.0  0.36720  0.16010  0.26240  1.0000 0.0718015007
C   C28       1.0  0.36430  0.09590  0.18520  1.0000 -0.1672805097
C   C29       1.0  0.28640  0.01390  0.18400  1.0000 -0.0892628831
C   C30       1.0  0.44000  0.25200  0.26230  1.0000 -0.0297091826
C   C31       1.0  0.16560  0.38240  0.74070  1.0000 0.586629825
C   C32       1.0  0.24420  0.47210  0.73850  1.0000 -0.0297091826
C   C33       1.0  0.30900  0.49700  0.66520  1.0000 -0.0892628831
C   C34       1.0  0.37840  0.58380  0.66300  1.0000 -0.1672805097
C   C35       1.0  0.37550  0.64950  0.73850  1.0000 0.0786700047
C   C36       1.0  0.30840  0.62710  0.80810  1.0000 -0.1527416833
C   C37       1.0  0.24130  0.53660  0.80830  1.0000 -0.0892628831
C   C38       1.0  0.14110  0.09800  0.74820  1.0000 0.586629825
C   C39       1.0  0.21610  0.00490  0.74080  1.0000 -0.0224684101
C   C40       1.0  0.22430  0.94570  0.66890  1.0000 -0.0836779677
C   C41       1.0  0.29240  0.86160  0.67000  1.0000 -0.1425880619
C   C42       1.0  0.36720  0.83990  0.73760  1.0000 0.0718015007
C   C43       1.0  0.36430  0.90410  0.81480  1.0000 -0.1672805097
C   C44       1.0  0.28640  0.98610  0.81600  1.0000 -0.0892628831
C   C45       1.0  0.44000  0.74800  0.73770  1.0000 -0.0297091826
C   C46       1.0  0.83440  0.11760  0.74070  1.0000 0.586629825
C   C47       1.0  0.75580  0.02790  0.73850  1.0000 -0.0297091826
C   C48       1.0  0.69100  0.00300  0.66520  1.0000 -0.0892628831
C   C49       1.0  0.62160  0.91620  0.66300  1.0000 -0.1672805097
C   C50       1.0  0.62450  0.85050  0.73850  1.0000 0.0786700047
C   C51       1.0  0.69160  0.87290  0.80810  1.0000 -0.1527416833
C   C52       1.0  0.75870  0.96340  0.80830  1.0000 -0.0892628831
C   C53       1.0  0.85890  0.40200  0.74820  1.0000 0.586629825
C   C54       1.0  0.78390  0.49510  0.74080  1.0000 -0.0224684101
C   C55       1.0  0.77570  0.55430  0.66890  1.0000 -0.0836779677
C   C56       1.0  0.70760  0.63840  0.67000  1.0000 -0.1425880619
C   C57       1.0  0.63280  0.66010  0.73760  1.0000 0.0718015007
C   C58       1.0  0.63570  0.59590  0.81480  1.0000 -0.1672805097
C   C59       1.0  0.71360  0.51390  0.81600  1.0000 -0.0892628831
C   C60       1.0  0.56000  0.75200  0.73770  1.0000 -0.0297091826
O   O1        1.0  0.85020  0.83450  0.33380  1.0000 -0.5602930613
O   O2        1.0  0.88050  0.85950  0.18560  1.0000 -0.5411895789
O   O3        1.0  0.87490  0.64210  0.18140  1.0000 -0.5000824981
O   O4        1.0  0.90860  0.62230  0.32760  1.0000 -0.5796437092
O   O5        1.0  0.14980  0.66550  0.33380  1.0000 -0.5602930613
O   O6        1.0  0.11950  0.64050  0.18560  1.0000 -0.5411895789
O   O7        1.0  0.12510  0.85790  0.18140  1.0000 -0.5000824981
O   O8        1.0  0.09140  0.87770  0.32760  1.0000 -0.5796437092
O   O9        1.0  0.14980  0.33450  0.66620  1.0000 -0.5602930613
O   O10       1.0  0.11950  0.35950  0.81440  1.0000 -0.5411895789
O   O11       1.0  0.12510  0.14210  0.81860  1.0000 -0.5000824981
O   O12       1.0  0.09140  0.12230  0.67240  1.0000 -0.5796437092
O   O13       1.0  0.85020  0.16550  0.66620  1.0000 -0.5602930613
O   O14       1.0  0.88050  0.14050  0.81440  1.0000 -0.5411895789
O   O15       1.0  0.87490  0.35790  0.81860  1.0000 -0.5000824981
O   O16       1.0  0.90860  0.37770  0.67240  1.0000 -0.5796437092
