# DDEC6 charges by PACMAN v1.1 (https://github.com/mtap-research/PACMAN-charge/)
data_2020[Zn][dia]3[ASR]10
_chemical_formula_sum              "Zn4 H144 C168 N24 O32"
_cell_length_a       8.5277
_cell_length_b       17.9579
_cell_length_c       28.768
_cell_angle_alpha    90
_cell_angle_beta     90
_cell_angle_gamma    90

_symmetry_space_group_name_H-M    "P 1"
_symmetry_Int_Tables_number       1

loop_
  _symmetry_equiv_pos_as_xyz
  'x, y, z'

loop_
  _atom_site_type_symbol
  _atom_site_label
  _atom_site_symmetry_multiplicity
  _atom_site_fract_x
  _atom_site_fract_y
  _atom_site_fract_z
  _atom_site_occupancy
  _atom_site_charge
Zn  Zn1       1.0  0.56242  0.54361  0.07056  1.0000 0.7327518013
Zn  Zn2       1.0  0.93758  0.45639  0.57056  1.0000 0.7327518013
Zn  Zn3       1.0  0.43758  0.04361  0.42944  1.0000 0.7327518013
Zn  Zn4       1.0  0.06242  0.95639  0.92944  1.0000 0.7327518013
H   H1        1.0  0.46700  0.78740  0.12550  1.0000 0.1091709876
H   H2        1.0  0.21550  0.79180  0.11410  1.0000 0.1091709876
H   H3        1.0  0.23570  0.70720  0.10100  1.0000 0.1091709876
H   H4        1.0  0.18750  0.72950  0.02910  1.0000 0.119040813
H   H5        1.0  0.13800  0.81040  0.04410  1.0000 0.1091709876
H   H6        1.0  0.33860  0.85520  0.00960  1.0000 0.0946735215
H   H7        1.0  0.38660  0.77410  0.99380  1.0000 0.1091709876
H   H8        1.0  0.72500  0.95840  0.10230  1.0000 0.119040813
H   H9        1.0  0.89970  0.95510  0.16570  1.0000 0.119040813
H   H10       1.0  0.93640  0.73470  0.15100  1.0000 0.1091709876
H   H11       1.0  0.76990  0.73790  0.09150  1.0000 0.119040813
H   H12       1.0  0.14670  0.94800  0.19670  1.0000 0.119040813
H   H13       1.0  0.31020  0.94510  0.25760  1.0000 0.1091709876
H   H14       1.0  0.17810  0.73690  0.28900  1.0000 0.119040813
H   H15       1.0  0.01000  0.74030  0.22530  1.0000 0.1091709876
H   H16       1.0  0.57070  0.86760  0.24830  1.0000 0.1091709876
H   H17       1.0  0.56530  0.94650  0.27230  1.0000 0.1012592188
H   H18       1.0  0.81200  0.85050  0.26800  1.0000 0.1012592188
H   H19       1.0  0.81640  0.93610  0.27940  1.0000 0.1091709876
H   H20       1.0  0.83670  0.91440  0.35090  1.0000 0.1091709876
H   H21       1.0  0.85500  0.82940  0.33870  1.0000 0.1091709876
H   H22       1.0  0.62100  0.80500  0.36950  1.0000 0.1012592188
H   H23       1.0  0.92710  0.57290  0.05810  1.0000 0.1091709876
H   H24       1.0  0.14950  0.59000  0.09940  1.0000 0.1499579248
H   H25       1.0  0.89720  0.56250  0.21480  1.0000 0.1499579248
H   H26       1.0  0.68300  0.54660  0.16940  1.0000 0.1091709876
H   H27       1.0  0.42870  0.68560  0.20280  1.0000 0.119040813
H   H28       1.0  0.67040  0.71860  0.23510  1.0000 0.119040813
H   H29       1.0  0.74560  0.66230  0.30380  1.0000 0.119040813
H   H30       1.0  0.35470  0.54160  0.30650  1.0000 0.119040813
H   H31       1.0  0.60090  0.62160  0.47450  1.0000 0.1614117954
H   H32       1.0  0.70540  0.57430  0.53970  1.0000 0.119040813
H   H33       1.0  0.94650  0.43230  0.46950  1.0000 0.119040813
H   H34       1.0  0.83670  0.46880  0.40170  1.0000 0.1499579248
H   H35       1.0  0.26960  0.60540  0.17100  1.0000 0.2905257043
H   H36       1.0  0.60420  0.62430  0.39210  1.0000 0.2836228084
H   H37       1.0  0.03300  0.21260  0.62550  1.0000 0.1091709876
H   H38       1.0  0.28450  0.20820  0.61410  1.0000 0.1091709876
H   H39       1.0  0.26430  0.29280  0.60100  1.0000 0.1091709876
H   H40       1.0  0.31250  0.27050  0.52910  1.0000 0.119040813
H   H41       1.0  0.36200  0.18960  0.54410  1.0000 0.1091709876
H   H42       1.0  0.16140  0.14480  0.50960  1.0000 0.0946735215
H   H43       1.0  0.11340  0.22590  0.49380  1.0000 0.1091709876
H   H44       1.0  0.77500  0.04160  0.60230  1.0000 0.119040813
H   H45       1.0  0.60030  0.04490  0.66570  1.0000 0.119040813
H   H46       1.0  0.56360  0.26530  0.65100  1.0000 0.1091709876
H   H47       1.0  0.73010  0.26210  0.59150  1.0000 0.119040813
H   H48       1.0  0.35330  0.05200  0.69670  1.0000 0.119040813
H   H49       1.0  0.18980  0.05490  0.75760  1.0000 0.1091709876
H   H50       1.0  0.32190  0.26310  0.78900  1.0000 0.119040813
H   H51       1.0  0.49000  0.25970  0.72530  1.0000 0.1091709876
H   H52       1.0  0.92930  0.13240  0.74830  1.0000 0.1091709876
H   H53       1.0  0.93470  0.05350  0.77230  1.0000 0.1012592188
H   H54       1.0  0.68800  0.14950  0.76800  1.0000 0.1012592188
H   H55       1.0  0.68360  0.06390  0.77940  1.0000 0.1091709876
H   H56       1.0  0.66330  0.08560  0.85090  1.0000 0.1091709876
H   H57       1.0  0.64500  0.17060  0.83870  1.0000 0.1091709876
H   H58       1.0  0.87900  0.19500  0.86950  1.0000 0.1012592188
H   H59       1.0  0.57290  0.42710  0.55810  1.0000 0.1091709876
H   H60       1.0  0.35050  0.41000  0.59940  1.0000 0.1499579248
H   H61       1.0  0.60280  0.43750  0.71480  1.0000 0.1499579248
H   H62       1.0  0.81700  0.45340  0.66940  1.0000 0.1091709876
H   H63       1.0  0.07130  0.31440  0.70280  1.0000 0.119040813
H   H64       1.0  0.82960  0.28140  0.73510  1.0000 0.119040813
H   H65       1.0  0.75440  0.33770  0.80380  1.0000 0.119040813
H   H66       1.0  0.14530  0.45840  0.80650  1.0000 0.119040813
H   H67       1.0  0.89910  0.37840  0.97450  1.0000 0.1614117954
H   H68       1.0  0.79460  0.42570  0.03970  1.0000 0.119040813
H   H69       1.0  0.55350  0.56770  0.96950  1.0000 0.119040813
H   H70       1.0  0.66330  0.53120  0.90170  1.0000 0.1499579248
H   H71       1.0  0.23040  0.39460  0.67100  1.0000 0.2905257043
H   H72       1.0  0.89580  0.37570  0.89210  1.0000 0.2836228084
H   H73       1.0  0.53300  0.28740  0.37450  1.0000 0.1091709876
H   H74       1.0  0.78450  0.29180  0.38590  1.0000 0.1091709876
H   H75       1.0  0.76430  0.20720  0.39900  1.0000 0.1091709876
H   H76       1.0  0.81250  0.22950  0.47090  1.0000 0.119040813
H   H77       1.0  0.86200  0.31040  0.45590  1.0000 0.1091709876
H   H78       1.0  0.66140  0.35520  0.49040  1.0000 0.0946735215
H   H79       1.0  0.61340  0.27410  0.50620  1.0000 0.1091709876
H   H80       1.0  0.27500  0.45840  0.39770  1.0000 0.119040813
H   H81       1.0  0.10030  0.45510  0.33430  1.0000 0.119040813
H   H82       1.0  0.06360  0.23470  0.34900  1.0000 0.1091709876
H   H83       1.0  0.23010  0.23790  0.40850  1.0000 0.119040813
H   H84       1.0  0.85330  0.44800  0.30330  1.0000 0.119040813
H   H85       1.0  0.68980  0.44510  0.24240  1.0000 0.1091709876
H   H86       1.0  0.82190  0.23690  0.21100  1.0000 0.119040813
H   H87       1.0  0.99000  0.24030  0.27470  1.0000 0.1091709876
H   H88       1.0  0.42930  0.36760  0.25170  1.0000 0.1091709876
H   H89       1.0  0.43470  0.44650  0.22770  1.0000 0.1012592188
H   H90       1.0  0.18800  0.35050  0.23200  1.0000 0.1012592188
H   H91       1.0  0.18360  0.43610  0.22060  1.0000 0.1091709876
H   H92       1.0  0.16330  0.41440  0.14910  1.0000 0.1091709876
H   H93       1.0  0.14500  0.32940  0.16130  1.0000 0.1091709876
H   H94       1.0  0.37900  0.30500  0.13050  1.0000 0.1012592188
H   H95       1.0  0.07290  0.07290  0.44190  1.0000 0.1091709876
H   H96       1.0  0.85050  0.09000  0.40060  1.0000 0.1499579248
H   H97       1.0  0.10280  0.06250  0.28520  1.0000 0.1499579248
H   H98       1.0  0.31700  0.04660  0.33060  1.0000 0.1091709876
H   H99       1.0  0.57130  0.18560  0.29720  1.0000 0.119040813
H   H100      1.0  0.32960  0.21860  0.26490  1.0000 0.119040813
H   H101      1.0  0.25440  0.16230  0.19620  1.0000 0.119040813
H   H102      1.0  0.64530  0.04160  0.19350  1.0000 0.119040813
H   H103      1.0  0.39910  0.12160  0.02550  1.0000 0.1614117954
H   H104      1.0  0.29460  0.07430  0.96030  1.0000 0.119040813
H   H105      1.0  0.05350  0.93230  0.03050  1.0000 0.119040813
H   H106      1.0  0.16330  0.96880  0.09830  1.0000 0.1499579248
H   H107      1.0  0.73040  0.10540  0.32900  1.0000 0.2905257043
H   H108      1.0  0.39580  0.12430  0.10790  1.0000 0.2836228084
H   H109      1.0  0.96700  0.71260  0.87450  1.0000 0.1091709876
H   H110      1.0  0.71550  0.70820  0.88590  1.0000 0.1091709876
H   H111      1.0  0.73570  0.79280  0.89900  1.0000 0.1091709876
H   H112      1.0  0.68750  0.77050  0.97090  1.0000 0.119040813
H   H113      1.0  0.63800  0.68960  0.95590  1.0000 0.1091709876
H   H114      1.0  0.83860  0.64480  0.99040  1.0000 0.0946735215
H   H115      1.0  0.88660  0.72590  0.00620  1.0000 0.1091709876
H   H116      1.0  0.22500  0.54160  0.89770  1.0000 0.119040813
H   H117      1.0  0.39970  0.54490  0.83430  1.0000 0.119040813
H   H118      1.0  0.43640  0.76530  0.84900  1.0000 0.1091709876
H   H119      1.0  0.26990  0.76210  0.90850  1.0000 0.119040813
H   H120      1.0  0.64670  0.55200  0.80330  1.0000 0.119040813
H   H121      1.0  0.81020  0.55490  0.74240  1.0000 0.1091709876
H   H122      1.0  0.67810  0.76310  0.71100  1.0000 0.119040813
H   H123      1.0  0.51000  0.75970  0.77470  1.0000 0.1091709876
H   H124      1.0  0.07070  0.63240  0.75170  1.0000 0.1091709876
H   H125      1.0  0.06530  0.55350  0.72770  1.0000 0.1012592188
H   H126      1.0  0.31200  0.64950  0.73200  1.0000 0.1012592188
H   H127      1.0  0.31640  0.56390  0.72060  1.0000 0.1091709876
H   H128      1.0  0.33670  0.58560  0.64910  1.0000 0.1091709876
H   H129      1.0  0.35500  0.67060  0.66130  1.0000 0.1091709876
H   H130      1.0  0.12100  0.69500  0.63050  1.0000 0.1012592188
H   H131      1.0  0.42710  0.92710  0.94190  1.0000 0.1091709876
H   H132      1.0  0.64950  0.91000  0.90060  1.0000 0.1499579248
H   H133      1.0  0.39720  0.93750  0.78520  1.0000 0.1499579248
H   H134      1.0  0.18300  0.95340  0.83060  1.0000 0.1091709876
H   H135      1.0  0.92870  0.81440  0.79720  1.0000 0.119040813
H   H136      1.0  0.17040  0.78140  0.76490  1.0000 0.119040813
H   H137      1.0  0.24560  0.83770  0.69620  1.0000 0.119040813
H   H138      1.0  0.85470  0.95840  0.69350  1.0000 0.119040813
H   H139      1.0  0.10090  0.87840  0.52550  1.0000 0.1614117954
H   H140      1.0  0.20540  0.92570  0.46030  1.0000 0.119040813
H   H141      1.0  0.44650  0.06770  0.53050  1.0000 0.119040813
H   H142      1.0  0.33670  0.03120  0.59830  1.0000 0.1499579248
H   H143      1.0  0.76960  0.89460  0.82900  1.0000 0.2905257043
H   H144      1.0  0.10420  0.87570  0.60790  1.0000 0.2836228084
C   C1        1.0  0.47680  0.67770  0.09100  1.0000 0.5327430513
C   C2        1.0  0.43170  0.76510  0.09630  1.0000 -0.0517323216
C   C3        1.0  0.26700  0.75750  0.09300  1.0000 -0.2052901205
C   C4        1.0  0.22300  0.77450  0.04460  1.0000 -0.192616545
C   C5        1.0  0.35890  0.80480  0.02030  1.0000 -0.0908545743
C   C6        1.0  0.60860  0.84730  0.05390  1.0000 0.3980086591
C   C7        1.0  0.72430  0.84530  0.09190  1.0000 -0.0223675895
C   C8        1.0  0.76600  0.91350  0.11280  1.0000 -0.0908545743
C   C9        1.0  0.87320  0.91110  0.15070  1.0000 -0.1498406384
C   C10       1.0  0.93900  0.84480  0.16570  1.0000 0.0613813149
C   C11       1.0  0.89440  0.78020  0.14190  1.0000 -0.1376676954
C   C12       1.0  0.79360  0.78220  0.10670  1.0000 -0.1101767261
C   C13       1.0  0.04650  0.84410  0.20380  1.0000 0.0613813149
C   C14       1.0  0.14930  0.90550  0.21520  1.0000 -0.1101767261
C   C15       1.0  0.24870  0.90340  0.25160  1.0000 -0.1101767261
C   C16       1.0  0.26320  0.84110  0.28070  1.0000 -0.0286775203
C   C17       1.0  0.17180  0.77950  0.27080  1.0000 -0.1014153747
C   C18       1.0  0.06800  0.78280  0.23210  1.0000 -0.1621303115
C   C19       1.0  0.36940  0.83480  0.32100  1.0000 0.4087711346
C   C20       1.0  0.59580  0.89490  0.27640  1.0000 -0.1101767261
C   C21       1.0  0.76500  0.88940  0.28680  1.0000 -0.175572798
C   C22       1.0  0.78740  0.87250  0.33530  1.0000 -0.175572798
C   C23       1.0  0.62250  0.85620  0.35780  1.0000 -0.0286775203
C   C24       1.0  0.57000  0.90920  0.39660  1.0000 0.5601014045
C   C25       1.0  0.92060  0.57120  0.09040  1.0000 0.069121353
C   C26       1.0  0.05510  0.58170  0.11480  1.0000 -0.2290414401
C   C27       1.0  0.04900  0.58000  0.16270  1.0000 0.2499186244
C   C28       1.0  0.90660  0.56560  0.18270  1.0000 -0.2389773879
C   C29       1.0  0.77860  0.55590  0.15490  1.0000 0.0782617476
C   C30       1.0  0.21110  0.59070  0.23430  1.0000 0.4562500712
C   C31       1.0  0.37050  0.61050  0.25160  1.0000 -0.0286775203
C   C32       1.0  0.46260  0.66330  0.23020  1.0000 -0.1237410757
C   C33       1.0  0.60620  0.68350  0.24940  1.0000 -0.0908545743
C   C34       1.0  0.65000  0.64940  0.29050  1.0000 -0.1376676954
C   C35       1.0  0.55770  0.59690  0.31270  1.0000 -0.0394832942
C   C36       1.0  0.41790  0.57730  0.29260  1.0000 -0.1297914566
C   C37       1.0  0.60500  0.54890  0.35330  1.0000 0.4201414433
C   C38       1.0  0.70730  0.54870  0.43120  1.0000 0.221300136
C   C39       1.0  0.66900  0.58140  0.47310  1.0000 -0.2290414401
C   C40       1.0  0.73360  0.55380  0.51120  1.0000 0.0782617476
C   C41       1.0  0.87220  0.47020  0.47010  1.0000 0.0613813149
C   C42       1.0  0.81010  0.49180  0.42960  1.0000 -0.2052901205
C   C43       1.0  0.02320  0.32230  0.59100  1.0000 0.5327430513
C   C44       1.0  0.06830  0.23490  0.59630  1.0000 -0.0517323216
C   C45       1.0  0.23300  0.24250  0.59300  1.0000 -0.2052901205
C   C46       1.0  0.27700  0.22550  0.54460  1.0000 -0.192616545
C   C47       1.0  0.14110  0.19520  0.52030  1.0000 -0.0842416886
C   C48       1.0  0.89140  0.15270  0.55390  1.0000 0.3980086591
C   C49       1.0  0.77570  0.15470  0.59190  1.0000 -0.0223675895
C   C50       1.0  0.73400  0.08650  0.61280  1.0000 -0.0908545743
C   C51       1.0  0.62680  0.08890  0.65070  1.0000 -0.1498406384
C   C52       1.0  0.56100  0.15520  0.66570  1.0000 0.0613813149
C   C53       1.0  0.60560  0.21980  0.64190  1.0000 -0.1376676954
C   C54       1.0  0.70640  0.21780  0.60670  1.0000 -0.1101767261
C   C55       1.0  0.45350  0.15590  0.70380  1.0000 0.0613813149
C   C56       1.0  0.35070  0.09450  0.71520  1.0000 -0.1101767261
C   C57       1.0  0.25130  0.09660  0.75160  1.0000 -0.1101767261
C   C58       1.0  0.23680  0.15890  0.78070  1.0000 -0.0286775203
C   C59       1.0  0.32820  0.22050  0.77080  1.0000 -0.1014153747
C   C60       1.0  0.43200  0.21720  0.73210  1.0000 -0.1621303115
C   C61       1.0  0.13060  0.16520  0.82100  1.0000 0.4087711346
C   C62       1.0  0.90420  0.10510  0.77640  1.0000 -0.1101767261
C   C63       1.0  0.73500  0.11060  0.78680  1.0000 -0.175572798
C   C64       1.0  0.71260  0.12750  0.83530  1.0000 -0.175572798
C   C65       1.0  0.87750  0.14380  0.85780  1.0000 -0.0286775203
C   C66       1.0  0.93000  0.09080  0.89660  1.0000 0.5601014045
C   C67       1.0  0.57940  0.42880  0.59040  1.0000 0.069121353
C   C68       1.0  0.44490  0.41830  0.61480  1.0000 -0.2290414401
C   C69       1.0  0.45100  0.42000  0.66270  1.0000 0.2499186244
C   C70       1.0  0.59340  0.43440  0.68270  1.0000 -0.2389773879
C   C71       1.0  0.72140  0.44410  0.65490  1.0000 0.0782617476
C   C72       1.0  0.28890  0.40930  0.73430  1.0000 0.4562500712
C   C73       1.0  0.12950  0.38950  0.75160  1.0000 -0.0286775203
C   C74       1.0  0.03740  0.33670  0.73020  1.0000 -0.1237410757
C   C75       1.0  0.89380  0.31650  0.74940  1.0000 -0.0908545743
C   C76       1.0  0.85000  0.35060  0.79050  1.0000 -0.1376676954
C   C77       1.0  0.94230  0.40310  0.81270  1.0000 -0.0394832942
C   C78       1.0  0.08210  0.42270  0.79260  1.0000 -0.1297914566
C   C79       1.0  0.89500  0.45110  0.85330  1.0000 0.4201414433
C   C80       1.0  0.79270  0.45130  0.93120  1.0000 0.221300136
C   C81       1.0  0.83100  0.41860  0.97310  1.0000 -0.2290414401
C   C82       1.0  0.76640  0.44620  0.01120  1.0000 0.0782617476
C   C83       1.0  0.62780  0.52980  0.97010  1.0000 0.0613813149
C   C84       1.0  0.68990  0.50820  0.92960  1.0000 -0.2052901205
C   C85       1.0  0.52320  0.17770  0.40900  1.0000 0.5327430513
C   C86       1.0  0.56830  0.26510  0.40370  1.0000 -0.0517323216
C   C87       1.0  0.73300  0.25750  0.40700  1.0000 -0.2052901205
C   C88       1.0  0.77700  0.27450  0.45540  1.0000 -0.192616545
C   C89       1.0  0.64110  0.30480  0.47970  1.0000 -0.0842416886
C   C90       1.0  0.39140  0.34730  0.44610  1.0000 0.3980086591
C   C91       1.0  0.27570  0.34530  0.40810  1.0000 -0.0223675895
C   C92       1.0  0.23400  0.41350  0.38720  1.0000 -0.0908545743
C   C93       1.0  0.12680  0.41110  0.34930  1.0000 -0.1498406384
C   C94       1.0  0.06100  0.34480  0.33430  1.0000 0.0613813149
C   C95       1.0  0.10560  0.28020  0.35810  1.0000 -0.1376676954
C   C96       1.0  0.20640  0.28220  0.39330  1.0000 -0.1101767261
C   C97       1.0  0.95350  0.34410  0.29620  1.0000 0.0613813149
C   C98       1.0  0.85070  0.40550  0.28480  1.0000 -0.1101767261
C   C99       1.0  0.75130  0.40340  0.24840  1.0000 -0.1101767261
C   C100      1.0  0.73680  0.34110  0.21930  1.0000 -0.0286775203
C   C101      1.0  0.82820  0.27950  0.22920  1.0000 -0.1014153747
C   C102      1.0  0.93200  0.28280  0.26790  1.0000 -0.1621303115
C   C103      1.0  0.63060  0.33480  0.17900  1.0000 0.4087711346
C   C104      1.0  0.40420  0.39490  0.22360  1.0000 -0.1101767261
C   C105      1.0  0.23500  0.38940  0.21320  1.0000 -0.175572798
C   C106      1.0  0.21260  0.37250  0.16470  1.0000 -0.175572798
C   C107      1.0  0.37750  0.35620  0.14220  1.0000 -0.0286775203
C   C108      1.0  0.43000  0.40920  0.10340  1.0000 0.5601014045
C   C109      1.0  0.07940  0.07120  0.40960  1.0000 0.069121353
C   C110      1.0  0.94490  0.08170  0.38520  1.0000 -0.2290414401
C   C111      1.0  0.95100  0.08000  0.33730  1.0000 0.2499186244
C   C112      1.0  0.09340  0.06560  0.31730  1.0000 -0.2389773879
C   C113      1.0  0.22140  0.05590  0.34510  1.0000 0.0782617476
C   C114      1.0  0.78890  0.09070  0.26570  1.0000 0.4562500712
C   C115      1.0  0.62950  0.11050  0.24840  1.0000 -0.0286775203
C   C116      1.0  0.53740  0.16330  0.26980  1.0000 -0.1237410757
C   C117      1.0  0.39380  0.18350  0.25060  1.0000 -0.0908545743
C   C118      1.0  0.35000  0.14940  0.20950  1.0000 -0.1376676954
C   C119      1.0  0.44230  0.09690  0.18730  1.0000 -0.0394832942
C   C120      1.0  0.58210  0.07730  0.20740  1.0000 -0.1297914566
C   C121      1.0  0.39500  0.04890  0.14670  1.0000 0.4201414433
C   C122      1.0  0.29270  0.04870  0.06880  1.0000 0.221300136
C   C123      1.0  0.33100  0.08140  0.02690  1.0000 -0.2290414401
C   C124      1.0  0.26640  0.05380  0.98880  1.0000 0.0782617476
C   C125      1.0  0.12780  0.97020  0.02990  1.0000 0.0613813149
C   C126      1.0  0.18990  0.99180  0.07040  1.0000 -0.2052901205
C   C127      1.0  0.97680  0.82230  0.90900  1.0000 0.5327430513
C   C128      1.0  0.93170  0.73490  0.90370  1.0000 -0.0517323216
C   C129      1.0  0.76700  0.74250  0.90700  1.0000 -0.2052901205
C   C130      1.0  0.72300  0.72550  0.95540  1.0000 -0.192616545
C   C131      1.0  0.85890  0.69520  0.97970  1.0000 -0.0908545743
C   C132      1.0  0.10860  0.65270  0.94610  1.0000 0.3980086591
C   C133      1.0  0.22430  0.65470  0.90810  1.0000 -0.0223675895
C   C134      1.0  0.26600  0.58650  0.88720  1.0000 -0.0908545743
C   C135      1.0  0.37320  0.58890  0.84930  1.0000 -0.1498406384
C   C136      1.0  0.43900  0.65520  0.83430  1.0000 0.0613813149
C   C137      1.0  0.39440  0.71980  0.85810  1.0000 -0.1376676954
C   C138      1.0  0.29360  0.71780  0.89330  1.0000 -0.1101767261
C   C139      1.0  0.54650  0.65590  0.79620  1.0000 0.0613813149
C   C140      1.0  0.64930  0.59450  0.78480  1.0000 -0.1101767261
C   C141      1.0  0.74870  0.59660  0.74840  1.0000 -0.1101767261
C   C142      1.0  0.76320  0.65890  0.71930  1.0000 -0.0286775203
C   C143      1.0  0.67180  0.72050  0.72920  1.0000 -0.1014153747
C   C144      1.0  0.56800  0.71720  0.76790  1.0000 -0.1621303115
C   C145      1.0  0.86940  0.66520  0.67900  1.0000 0.4087711346
C   C146      1.0  0.09580  0.60510  0.72360  1.0000 -0.1101767261
C   C147      1.0  0.26500  0.61060  0.71320  1.0000 -0.175572798
C   C148      1.0  0.28740  0.62750  0.66470  1.0000 -0.175572798
C   C149      1.0  0.12250  0.64380  0.64220  1.0000 -0.0286775203
C   C150      1.0  0.07000  0.59080  0.60340  1.0000 0.5601014045
C   C151      1.0  0.42060  0.92880  0.90960  1.0000 0.069121353
C   C152      1.0  0.55510  0.91830  0.88520  1.0000 -0.2290414401
C   C153      1.0  0.54900  0.92000  0.83730  1.0000 0.2499186244
C   C154      1.0  0.40660  0.93440  0.81730  1.0000 -0.2389773879
C   C155      1.0  0.27860  0.94410  0.84510  1.0000 0.0782617476
C   C156      1.0  0.71110  0.90930  0.76570  1.0000 0.4562500712
C   C157      1.0  0.87050  0.88950  0.74840  1.0000 -0.0286775203
C   C158      1.0  0.96260  0.83670  0.76980  1.0000 -0.1237410757
C   C159      1.0  0.10620  0.81650  0.75060  1.0000 -0.0908545743
C   C160      1.0  0.15000  0.85060  0.70950  1.0000 -0.1376676954
C   C161      1.0  0.05770  0.90310  0.68730  1.0000 -0.0394832942
C   C162      1.0  0.91790  0.92270  0.70740  1.0000 -0.1297914566
C   C163      1.0  0.10500  0.95110  0.64670  1.0000 0.4201414433
C   C164      1.0  0.20730  0.95130  0.56880  1.0000 0.221300136
C   C165      1.0  0.16900  0.91860  0.52690  1.0000 -0.2290414401
C   C166      1.0  0.23360  0.94620  0.48880  1.0000 0.0782617476
C   C167      1.0  0.37220  0.02980  0.52990  1.0000 0.0613813149
C   C168      1.0  0.31010  0.00820  0.57040  1.0000 -0.2052901205
N   N1        1.0  0.78020  0.55880  0.10890  1.0000 -0.2476413402
N   N2        1.0  0.18900  0.59380  0.18740  1.0000 -0.3782888878
N   N3        1.0  0.63300  0.57850  0.39010  1.0000 -0.2786680613
N   N4        1.0  0.83540  0.49860  0.51090  1.0000 -0.2290414401
N   N5        1.0  0.48530  0.80390  0.05570  1.0000 -0.1014153747
N   N6        1.0  0.51420  0.86210  0.31690  1.0000 -0.1297914566
N   N7        1.0  0.71980  0.44120  0.60890  1.0000 -0.2476413402
N   N8        1.0  0.31100  0.40620  0.68740  1.0000 -0.3782888878
N   N9        1.0  0.86700  0.42150  0.89010  1.0000 -0.2786680613
N   N10       1.0  0.66460  0.50140  0.01090  1.0000 -0.2290414401
N   N11       1.0  0.01470  0.19610  0.55570  1.0000 -0.1014153747
N   N12       1.0  0.98580  0.13790  0.81690  1.0000 -0.1297914566
N   N13       1.0  0.21980  0.05880  0.39110  1.0000 -0.2476413402
N   N14       1.0  0.81100  0.09380  0.31260  1.0000 -0.3782888878
N   N15       1.0  0.36700  0.07850  0.10990  1.0000 -0.2786680613
N   N16       1.0  0.16460  0.99860  0.98910  1.0000 -0.2290414401
N   N17       1.0  0.51470  0.30390  0.44430  1.0000 -0.1014153747
N   N18       1.0  0.48580  0.36210  0.18310  1.0000 -0.1297914566
N   N19       1.0  0.28020  0.94120  0.89110  1.0000 -0.2476413402
N   N20       1.0  0.68900  0.90620  0.81260  1.0000 -0.3782888878
N   N21       1.0  0.13300  0.92150  0.60990  1.0000 -0.2786680613
N   N22       1.0  0.33540  0.00140  0.48910  1.0000 -0.2290414401
N   N23       1.0  0.98530  0.69610  0.94430  1.0000 -0.1014153747
N   N24       1.0  0.01420  0.63790  0.68310  1.0000 -0.1297914566
O   O1        1.0  0.43560  0.63570  0.12180  1.0000 -0.5165700171
O   O2        1.0  0.54780  0.65610  0.05530  1.0000 -0.5103948567
O   O3        1.0  0.62410  0.89550  0.02130  1.0000 -0.5447925183
O   O4        1.0  0.32380  0.80550  0.35540  1.0000 -0.4473650832
O   O5        1.0  0.63200  0.89120  0.43780  1.0000 -0.6089641306
O   O6        1.0  0.49880  0.96400  0.38780  1.0000 -0.4899186346
O   O7        1.0  0.59000  0.47850  0.35400  1.0000 -0.4720360864
O   O8        1.0  0.11070  0.56550  0.26010  1.0000 -0.4720360864
O   O9        1.0  0.06440  0.36430  0.62180  1.0000 -0.5165700171
O   O10       1.0  0.95220  0.34390  0.55530  1.0000 -0.5103948567
O   O11       1.0  0.87590  0.10450  0.52130  1.0000 -0.5447925183
O   O12       1.0  0.17620  0.19450  0.85540  1.0000 -0.4473650832
O   O13       1.0  0.86800  0.10880  0.93780  1.0000 -0.6089641306
O   O14       1.0  0.00120  0.03600  0.88780  1.0000 -0.4899186346
O   O15       1.0  0.91000  0.52150  0.85400  1.0000 -0.4720360864
O   O16       1.0  0.38930  0.43450  0.76010  1.0000 -0.4720360864
O   O17       1.0  0.56440  0.13570  0.37820  1.0000 -0.5165700171
O   O18       1.0  0.45220  0.15610  0.44470  1.0000 -0.5103948567
O   O19       1.0  0.37590  0.39550  0.47870  1.0000 -0.546325073
O   O20       1.0  0.67620  0.30550  0.14460  1.0000 -0.4473650832
O   O21       1.0  0.36800  0.39120  0.06220  1.0000 -0.6089641306
O   O22       1.0  0.50120  0.46400  0.11220  1.0000 -0.4899186346
O   O23       1.0  0.41000  0.97850  0.14600  1.0000 -0.4720360864
O   O24       1.0  0.88930  0.06550  0.23990  1.0000 -0.4720360864
O   O25       1.0  0.93560  0.86430  0.87820  1.0000 -0.5165700171
O   O26       1.0  0.04780  0.84390  0.94470  1.0000 -0.5103948567
O   O27       1.0  0.12410  0.60450  0.97870  1.0000 -0.5447925183
O   O28       1.0  0.82380  0.69450  0.64460  1.0000 -0.4473650832
O   O29       1.0  0.13200  0.60880  0.56220  1.0000 -0.6089641306
O   O30       1.0  0.99880  0.53600  0.61220  1.0000 -0.4899186346
O   O31       1.0  0.09000  0.02150  0.64600  1.0000 -0.4720360864
O   O32       1.0  0.61070  0.93450  0.73990  1.0000 -0.4720360864
