# DDEC6 charges by PACMAN v1.1 (https://github.com/mtap-research/PACMAN-charge/)
data_2020[UAg][nan]3[ASR]1
_chemical_formula_sum              "U4 Ag16 H128 C96 N56 O56"
_cell_length_a       8.6172
_cell_length_b       15.6897
_cell_length_c       31.928
_cell_angle_alpha    90
_cell_angle_beta     90
_cell_angle_gamma    90

_symmetry_space_group_name_H-M    "P 1"
_symmetry_Int_Tables_number       1

loop_
  _symmetry_equiv_pos_as_xyz
  'x, y, z'

loop_
  _atom_site_type_symbol
  _atom_site_label
  _atom_site_symmetry_multiplicity
  _atom_site_fract_x
  _atom_site_fract_y
  _atom_site_fract_z
  _atom_site_occupancy
  _atom_site_charge
U   U1        1.0  0.75000  0.12783  0.00000  1.0000 2.0046482098
U   U2        1.0  0.25000  0.37217  0.50000  1.0000 2.0084786427
U   U3        1.0  0.25000  0.87217  0.00000  1.0000 2.0084786427
U   U4        1.0  0.75000  0.62783  0.50000  1.0000 2.0084786427
Ag  Ag1       1.0  0.35034  0.36676  0.24572  1.0000 0.3583981556
Ag  Ag2       1.0  0.24783  0.07422  0.26137  1.0000 0.3583981556
Ag  Ag3       1.0  0.85034  0.13324  0.25428  1.0000 0.3583981556
Ag  Ag4       1.0  0.74783  0.42578  0.23863  1.0000 0.3583981556
Ag  Ag5       1.0  0.14966  0.36676  0.75428  1.0000 0.3583981556
Ag  Ag6       1.0  0.25217  0.07422  0.73863  1.0000 0.3583981556
Ag  Ag7       1.0  0.64966  0.13324  0.74572  1.0000 0.3583981556
Ag  Ag8       1.0  0.75217  0.42578  0.76137  1.0000 0.3583981556
Ag  Ag9       1.0  0.64966  0.63324  0.75428  1.0000 0.3583981556
Ag  Ag10      1.0  0.75217  0.92578  0.73863  1.0000 0.3583981556
Ag  Ag11      1.0  0.14966  0.86676  0.74572  1.0000 0.3583981556
Ag  Ag12      1.0  0.25217  0.57422  0.76137  1.0000 0.3583981556
Ag  Ag13      1.0  0.85034  0.63324  0.24572  1.0000 0.3583981556
Ag  Ag14      1.0  0.74783  0.92578  0.26137  1.0000 0.3583981556
Ag  Ag15      1.0  0.35034  0.86676  0.25428  1.0000 0.3583981556
Ag  Ag16      1.0  0.24783  0.57422  0.23863  1.0000 0.3583981556
H   H1        1.0  0.45110  0.36590  0.06130  1.0000 0.1406252721
H   H2        1.0  0.62040  0.40540  0.05950  1.0000 0.1406252721
H   H3        1.0  0.18880  0.36460  0.15250  1.0000 0.1608523546
H   H4        1.0  0.23350  0.39630  0.10700  1.0000 0.1507809779
H   H5        1.0  0.25630  0.29930  0.11940  1.0000 0.1661000324
H   H6        1.0  0.87300  0.35220  0.12390  1.0000 0.1661000324
H   H7        1.0  0.83630  0.44330  0.10490  1.0000 0.1406252721
H   H8        1.0  0.89210  0.43470  0.15200  1.0000 0.1507809779
H   H9        1.0  0.66420  0.08400  0.11720  1.0000 0.1406252721
H   H10       1.0  0.63600  0.99060  0.09990  1.0000 0.1406252721
H   H11       1.0  0.57110  0.18170  0.18290  1.0000 0.1608523546
H   H12       1.0  0.44000  0.19080  0.14840  1.0000 0.1608523546
H   H13       1.0  0.39630  0.19590  0.19650  1.0000 0.1507809779
H   H14       1.0  0.46790  0.86260  0.11220  1.0000 0.1507809779
H   H15       1.0  0.61050  0.85130  0.14300  1.0000 0.1661000324
H   H16       1.0  0.44660  0.81270  0.15490  1.0000 0.1661000324
H   H17       1.0  0.95110  0.13410  0.43870  1.0000 0.1406252721
H   H18       1.0  0.12040  0.09460  0.44050  1.0000 0.1406252721
H   H19       1.0  0.68880  0.13540  0.34750  1.0000 0.1608523546
H   H20       1.0  0.73350  0.10370  0.39300  1.0000 0.1507809779
H   H21       1.0  0.75630  0.20070  0.38060  1.0000 0.1661000324
H   H22       1.0  0.37300  0.14780  0.37610  1.0000 0.1661000324
H   H23       1.0  0.33630  0.05670  0.39510  1.0000 0.1406252721
H   H24       1.0  0.39210  0.06530  0.34800  1.0000 0.1507809779
H   H25       1.0  0.16420  0.41600  0.38280  1.0000 0.1406252721
H   H26       1.0  0.13600  0.50940  0.40010  1.0000 0.1406252721
H   H27       1.0  0.07110  0.31830  0.31710  1.0000 0.1608523546
H   H28       1.0  0.94000  0.30920  0.35160  1.0000 0.1608523546
H   H29       1.0  0.89630  0.30410  0.30350  1.0000 0.1507809779
H   H30       1.0  0.96790  0.63740  0.38780  1.0000 0.1507809779
H   H31       1.0  0.11050  0.64870  0.35700  1.0000 0.1661000324
H   H32       1.0  0.94660  0.68730  0.34510  1.0000 0.1661000324
H   H33       1.0  0.04890  0.36590  0.93870  1.0000 0.1406252721
H   H34       1.0  0.87960  0.40540  0.94050  1.0000 0.1406252721
H   H35       1.0  0.31120  0.36460  0.84750  1.0000 0.1608523546
H   H36       1.0  0.26650  0.39630  0.89300  1.0000 0.1507809779
H   H37       1.0  0.24370  0.29930  0.88060  1.0000 0.1661000324
H   H38       1.0  0.62700  0.35220  0.87610  1.0000 0.1661000324
H   H39       1.0  0.66370  0.44330  0.89510  1.0000 0.1406252721
H   H40       1.0  0.60790  0.43470  0.84800  1.0000 0.1507809779
H   H41       1.0  0.83580  0.08400  0.88280  1.0000 0.1406252721
H   H42       1.0  0.86400  0.99060  0.90010  1.0000 0.1406252721
H   H43       1.0  0.92890  0.18170  0.81710  1.0000 0.1608523546
H   H44       1.0  0.06000  0.19080  0.85160  1.0000 0.1608523546
H   H45       1.0  0.10370  0.19590  0.80350  1.0000 0.1507809779
H   H46       1.0  0.03210  0.86260  0.88780  1.0000 0.1507809779
H   H47       1.0  0.88950  0.85130  0.85700  1.0000 0.1661000324
H   H48       1.0  0.05340  0.81270  0.84510  1.0000 0.1661000324
H   H49       1.0  0.54890  0.13410  0.56130  1.0000 0.1406252721
H   H50       1.0  0.37960  0.09460  0.55950  1.0000 0.1406252721
H   H51       1.0  0.81120  0.13540  0.65250  1.0000 0.1608523546
H   H52       1.0  0.76650  0.10370  0.60700  1.0000 0.1507809779
H   H53       1.0  0.74370  0.20070  0.61940  1.0000 0.1661000324
H   H54       1.0  0.12700  0.14780  0.62390  1.0000 0.1661000324
H   H55       1.0  0.16370  0.05670  0.60490  1.0000 0.1406252721
H   H56       1.0  0.10790  0.06530  0.65200  1.0000 0.1507809779
H   H57       1.0  0.33580  0.41600  0.61720  1.0000 0.1406252721
H   H58       1.0  0.36400  0.50940  0.59990  1.0000 0.1406252721
H   H59       1.0  0.42890  0.31830  0.68290  1.0000 0.1608523546
H   H60       1.0  0.56000  0.30920  0.64840  1.0000 0.1608523546
H   H61       1.0  0.60370  0.30410  0.69650  1.0000 0.1507809779
H   H62       1.0  0.53210  0.63740  0.61220  1.0000 0.1507809779
H   H63       1.0  0.38950  0.64870  0.64300  1.0000 0.1661000324
H   H64       1.0  0.55340  0.68730  0.65490  1.0000 0.1661000324
H   H65       1.0  0.54890  0.63410  0.93870  1.0000 0.1406252721
H   H66       1.0  0.37960  0.59460  0.94050  1.0000 0.1406252721
H   H67       1.0  0.81120  0.63540  0.84750  1.0000 0.1608523546
H   H68       1.0  0.76650  0.60370  0.89300  1.0000 0.1507809779
H   H69       1.0  0.74370  0.70070  0.88060  1.0000 0.1661000324
H   H70       1.0  0.12700  0.64780  0.87610  1.0000 0.1661000324
H   H71       1.0  0.16370  0.55670  0.89510  1.0000 0.1406252721
H   H72       1.0  0.10790  0.56530  0.84800  1.0000 0.1507809779
H   H73       1.0  0.33580  0.91600  0.88280  1.0000 0.1406252721
H   H74       1.0  0.36400  0.00940  0.90010  1.0000 0.1406252721
H   H75       1.0  0.42890  0.81830  0.81710  1.0000 0.1608523546
H   H76       1.0  0.56000  0.80920  0.85160  1.0000 0.1608523546
H   H77       1.0  0.60370  0.80410  0.80350  1.0000 0.1507809779
H   H78       1.0  0.53210  0.13740  0.88780  1.0000 0.1507809779
H   H79       1.0  0.38950  0.14870  0.85700  1.0000 0.1661000324
H   H80       1.0  0.55340  0.18730  0.84510  1.0000 0.1661000324
H   H81       1.0  0.04890  0.86590  0.56130  1.0000 0.1406252721
H   H82       1.0  0.87960  0.90540  0.55950  1.0000 0.1406252721
H   H83       1.0  0.31120  0.86460  0.65250  1.0000 0.1608523546
H   H84       1.0  0.26650  0.89630  0.60700  1.0000 0.1507809779
H   H85       1.0  0.24370  0.79930  0.61940  1.0000 0.1661000324
H   H86       1.0  0.62700  0.85220  0.62390  1.0000 0.1661000324
H   H87       1.0  0.66370  0.94330  0.60490  1.0000 0.1406252721
H   H88       1.0  0.60790  0.93470  0.65200  1.0000 0.1507809779
H   H89       1.0  0.83580  0.58400  0.61720  1.0000 0.1406252721
H   H90       1.0  0.86400  0.49060  0.59990  1.0000 0.1406252721
H   H91       1.0  0.92890  0.68170  0.68290  1.0000 0.1608523546
H   H92       1.0  0.06000  0.69080  0.64840  1.0000 0.1608523546
H   H93       1.0  0.10370  0.69590  0.69650  1.0000 0.1507809779
H   H94       1.0  0.03210  0.36260  0.61220  1.0000 0.1507809779
H   H95       1.0  0.88950  0.35130  0.64300  1.0000 0.1661000324
H   H96       1.0  0.05340  0.31270  0.65490  1.0000 0.1661000324
H   H97       1.0  0.95110  0.63410  0.06130  1.0000 0.1406252721
H   H98       1.0  0.12040  0.59460  0.05950  1.0000 0.1406252721
H   H99       1.0  0.68880  0.63540  0.15250  1.0000 0.1608523546
H   H100      1.0  0.73350  0.60370  0.10700  1.0000 0.1507809779
H   H101      1.0  0.75630  0.70070  0.11940  1.0000 0.1661000324
H   H102      1.0  0.37300  0.64780  0.12390  1.0000 0.1661000324
H   H103      1.0  0.33630  0.55670  0.10490  1.0000 0.1406252721
H   H104      1.0  0.39210  0.56530  0.15200  1.0000 0.1507809779
H   H105      1.0  0.16420  0.91600  0.11720  1.0000 0.1406252721
H   H106      1.0  0.13600  0.00940  0.09990  1.0000 0.1406252721
H   H107      1.0  0.07110  0.81830  0.18290  1.0000 0.1608523546
H   H108      1.0  0.94000  0.80920  0.14840  1.0000 0.1608523546
H   H109      1.0  0.89630  0.80410  0.19650  1.0000 0.1507809779
H   H110      1.0  0.96790  0.13740  0.11220  1.0000 0.1507809779
H   H111      1.0  0.11050  0.14870  0.14300  1.0000 0.1661000324
H   H112      1.0  0.94660  0.18730  0.15490  1.0000 0.1661000324
H   H113      1.0  0.45110  0.86590  0.43870  1.0000 0.1406252721
H   H114      1.0  0.62040  0.90540  0.44050  1.0000 0.1406252721
H   H115      1.0  0.18880  0.86460  0.34750  1.0000 0.1608523546
H   H116      1.0  0.23350  0.89630  0.39300  1.0000 0.1507809779
H   H117      1.0  0.25630  0.79930  0.38060  1.0000 0.1661000324
H   H118      1.0  0.87300  0.85220  0.37610  1.0000 0.1661000324
H   H119      1.0  0.83630  0.94330  0.39510  1.0000 0.1406252721
H   H120      1.0  0.89210  0.93470  0.34800  1.0000 0.1507809779
H   H121      1.0  0.66420  0.58400  0.38280  1.0000 0.1406252721
H   H122      1.0  0.63600  0.49060  0.40010  1.0000 0.1406252721
H   H123      1.0  0.57110  0.68170  0.31710  1.0000 0.1608523546
H   H124      1.0  0.44000  0.69080  0.35160  1.0000 0.1608523546
H   H125      1.0  0.39630  0.69590  0.30350  1.0000 0.1507809779
H   H126      1.0  0.46790  0.36260  0.38780  1.0000 0.1507809779
H   H127      1.0  0.61050  0.35130  0.35700  1.0000 0.1661000324
H   H128      1.0  0.44660  0.31270  0.34510  1.0000 0.1661000324
C   C1        1.0  0.62310  0.27380  0.06652  1.0000 0.6292486576
C   C2        1.0  0.55520  0.36310  0.07361  1.0000 -0.2489033059
C   C3        1.0  0.41970  0.37650  0.14400  1.0000 0.333589868
C   C4        1.0  0.26100  0.35760  0.12949  1.0000 -0.536845966
C   C5        1.0  0.66890  0.40030  0.14365  1.0000 0.333589868
C   C6        1.0  0.83150  0.40830  0.12990  1.0000 -0.55131754
C   C7        1.0  0.47690  0.07700  0.07729  1.0000 0.6592173588
C   C8        1.0  0.58410  0.04170  0.11072  1.0000 -0.2792892668
C   C9        1.0  0.43940  0.07530  0.17689  1.0000 0.3583981556
C   C10       1.0  0.46380  0.16900  0.17611  1.0000 -0.5550897705
C   C11       1.0  0.45690  0.94130  0.16277  1.0000 0.3416545354
C   C12       1.0  0.49920  0.85980  0.14132  1.0000 -0.536845966
C   C13       1.0  0.12310  0.22620  0.43348  1.0000 0.6292486576
C   C14       1.0  0.05520  0.13690  0.42639  1.0000 -0.2489033059
C   C15       1.0  0.91970  0.12350  0.35600  1.0000 0.333589868
C   C16       1.0  0.76100  0.14240  0.37051  1.0000 -0.536845966
C   C17       1.0  0.16890  0.09970  0.35635  1.0000 0.333589868
C   C18       1.0  0.33150  0.09170  0.37010  1.0000 -0.55131754
C   C19       1.0  0.97690  0.42300  0.42271  1.0000 0.6592173588
C   C20       1.0  0.08410  0.45830  0.38928  1.0000 -0.2792892668
C   C21       1.0  0.93940  0.42470  0.32311  1.0000 0.3583981556
C   C22       1.0  0.96380  0.33100  0.32389  1.0000 -0.5550897705
C   C23       1.0  0.95690  0.55870  0.33723  1.0000 0.3416545354
C   C24       1.0  0.99920  0.64020  0.35868  1.0000 -0.536845966
C   C25       1.0  0.87690  0.27380  0.93348  1.0000 0.6292486576
C   C26       1.0  0.94480  0.36310  0.92639  1.0000 -0.2489033059
C   C27       1.0  0.08030  0.37650  0.85600  1.0000 0.333589868
C   C28       1.0  0.23900  0.35760  0.87051  1.0000 -0.536845966
C   C29       1.0  0.83110  0.40030  0.85635  1.0000 0.333589868
C   C30       1.0  0.66850  0.40830  0.87010  1.0000 -0.55131754
C   C31       1.0  0.02310  0.07700  0.92271  1.0000 0.6592173588
C   C32       1.0  0.91590  0.04170  0.88928  1.0000 -0.2792892668
C   C33       1.0  0.06060  0.07530  0.82311  1.0000 0.3583981556
C   C34       1.0  0.03620  0.16900  0.82389  1.0000 -0.55131754
C   C35       1.0  0.04310  0.94130  0.83723  1.0000 0.3416545354
C   C36       1.0  0.00080  0.85980  0.85868  1.0000 -0.536845966
C   C37       1.0  0.37690  0.22620  0.56652  1.0000 0.6292486576
C   C38       1.0  0.44480  0.13690  0.57361  1.0000 -0.2489033059
C   C39       1.0  0.58030  0.12350  0.64400  1.0000 0.333589868
C   C40       1.0  0.73900  0.14240  0.62949  1.0000 -0.536845966
C   C41       1.0  0.33110  0.09970  0.64365  1.0000 0.333589868
C   C42       1.0  0.16850  0.09170  0.62990  1.0000 -0.55131754
C   C43       1.0  0.52310  0.42300  0.57729  1.0000 0.6592173588
C   C44       1.0  0.41590  0.45830  0.61072  1.0000 -0.2792892668
C   C45       1.0  0.56060  0.42470  0.67689  1.0000 0.3583981556
C   C46       1.0  0.53620  0.33100  0.67611  1.0000 -0.55131754
C   C47       1.0  0.54310  0.55870  0.66277  1.0000 0.3416545354
C   C48       1.0  0.50080  0.64020  0.64132  1.0000 -0.536845966
C   C49       1.0  0.37690  0.72620  0.93348  1.0000 0.6292486576
C   C50       1.0  0.44480  0.63690  0.92639  1.0000 -0.2489033059
C   C51       1.0  0.58030  0.62350  0.85600  1.0000 0.333589868
C   C52       1.0  0.73900  0.64240  0.87051  1.0000 -0.536845966
C   C53       1.0  0.33110  0.59970  0.85635  1.0000 0.3416545354
C   C54       1.0  0.16850  0.59170  0.87010  1.0000 -0.55131754
C   C55       1.0  0.52310  0.92300  0.92271  1.0000 0.6592173588
C   C56       1.0  0.41590  0.95830  0.88928  1.0000 -0.2792892668
C   C57       1.0  0.56060  0.92470  0.82311  1.0000 0.3583981556
C   C58       1.0  0.53620  0.83100  0.82389  1.0000 -0.55131754
C   C59       1.0  0.54310  0.05870  0.83723  1.0000 0.3416545354
C   C60       1.0  0.50080  0.14020  0.85868  1.0000 -0.536845966
C   C61       1.0  0.87690  0.77380  0.56652  1.0000 0.6292486576
C   C62       1.0  0.94480  0.86310  0.57361  1.0000 -0.2489033059
C   C63       1.0  0.08030  0.87650  0.64400  1.0000 0.333589868
C   C64       1.0  0.23900  0.85760  0.62949  1.0000 -0.536845966
C   C65       1.0  0.83110  0.90030  0.64365  1.0000 0.3416545354
C   C66       1.0  0.66850  0.90830  0.62990  1.0000 -0.55131754
C   C67       1.0  0.02310  0.57700  0.57729  1.0000 0.6592173588
C   C68       1.0  0.91590  0.54170  0.61072  1.0000 -0.2792892668
C   C69       1.0  0.06060  0.57530  0.67689  1.0000 0.3583981556
C   C70       1.0  0.03620  0.66900  0.67611  1.0000 -0.5550897705
C   C71       1.0  0.04310  0.44130  0.66277  1.0000 0.3416545354
C   C72       1.0  0.00080  0.35980  0.64132  1.0000 -0.536845966
C   C73       1.0  0.12310  0.72620  0.06652  1.0000 0.6292486576
C   C74       1.0  0.05520  0.63690  0.07361  1.0000 -0.2489033059
C   C75       1.0  0.91970  0.62350  0.14400  1.0000 0.333589868
C   C76       1.0  0.76100  0.64240  0.12949  1.0000 -0.536845966
C   C77       1.0  0.16890  0.59970  0.14365  1.0000 0.3416545354
C   C78       1.0  0.33150  0.59170  0.12990  1.0000 -0.55131754
C   C79       1.0  0.97690  0.92300  0.07729  1.0000 0.6592173588
C   C80       1.0  0.08410  0.95830  0.11072  1.0000 -0.2792892668
C   C81       1.0  0.93940  0.92470  0.17689  1.0000 0.3583981556
C   C82       1.0  0.96380  0.83100  0.17611  1.0000 -0.5550897705
C   C83       1.0  0.95690  0.05870  0.16277  1.0000 0.3416545354
C   C84       1.0  0.99920  0.14020  0.14132  1.0000 -0.536845966
C   C85       1.0  0.62310  0.77380  0.43348  1.0000 0.6292486576
C   C86       1.0  0.55520  0.86310  0.42639  1.0000 -0.2489033059
C   C87       1.0  0.41970  0.87650  0.35600  1.0000 0.333589868
C   C88       1.0  0.26100  0.85760  0.37051  1.0000 -0.536845966
C   C89       1.0  0.66890  0.90030  0.35635  1.0000 0.3416545354
C   C90       1.0  0.83150  0.90830  0.37010  1.0000 -0.55131754
C   C91       1.0  0.47690  0.57700  0.42271  1.0000 0.6592173588
C   C92       1.0  0.58410  0.54170  0.38928  1.0000 -0.2792892668
C   C93       1.0  0.43940  0.57530  0.32311  1.0000 0.3583981556
C   C94       1.0  0.46380  0.66900  0.32389  1.0000 -0.5550897705
C   C95       1.0  0.45690  0.44130  0.33723  1.0000 0.3416545354
C   C96       1.0  0.49920  0.35980  0.35868  1.0000 -0.536845966
N   N1        1.0  0.45980  0.39160  0.18257  1.0000 -0.2489033059
N   N2        1.0  0.62170  0.40620  0.18251  1.0000 -0.2203211101
N   N3        1.0  0.54650  0.38320  0.11820  1.0000 -0.0859554733
N   N4        1.0  0.35930  0.03460  0.20556  1.0000 -0.2343882627
N   N5        1.0  0.37440  0.94740  0.19661  1.0000 -0.2570558774
N   N6        1.0  0.50000  0.01980  0.14927  1.0000 -0.0648609611
N   N7        1.0  0.53150  0.19880  0.27773  1.0000 0.667014004
N   N8        1.0  0.95980  0.10840  0.31743  1.0000 -0.2489033059
N   N9        1.0  0.12170  0.09380  0.31749  1.0000 -0.2203211101
N   N10       1.0  0.04650  0.11680  0.38180  1.0000 -0.0859554733
N   N11       1.0  0.85930  0.46540  0.29444  1.0000 -0.2343882627
N   N12       1.0  0.87440  0.55260  0.30339  1.0000 -0.2570558774
N   N13       1.0  0.00000  0.48020  0.35073  1.0000 -0.0648609611
N   N14       1.0  0.03150  0.30120  0.22227  1.0000 0.667014004
N   N15       1.0  0.04020  0.39160  0.81743  1.0000 -0.2489033059
N   N16       1.0  0.87830  0.40620  0.81749  1.0000 -0.2203211101
N   N17       1.0  0.95350  0.38320  0.88180  1.0000 -0.0859554733
N   N18       1.0  0.14070  0.03460  0.79444  1.0000 -0.2343882627
N   N19       1.0  0.12560  0.94740  0.80339  1.0000 -0.2570558774
N   N20       1.0  0.00000  0.01980  0.85073  1.0000 -0.0648609611
N   N21       1.0  0.96850  0.19880  0.72227  1.0000 0.667014004
N   N22       1.0  0.54020  0.10840  0.68257  1.0000 -0.2489033059
N   N23       1.0  0.37830  0.09380  0.68251  1.0000 -0.2203211101
N   N24       1.0  0.45350  0.11680  0.61820  1.0000 -0.0859554733
N   N25       1.0  0.64070  0.46540  0.70556  1.0000 -0.2343882627
N   N26       1.0  0.62560  0.55260  0.69661  1.0000 -0.2570558774
N   N27       1.0  0.50000  0.48020  0.64927  1.0000 -0.0648609611
N   N28       1.0  0.46850  0.30120  0.77773  1.0000 0.667014004
N   N29       1.0  0.54020  0.60840  0.81743  1.0000 -0.2489033059
N   N30       1.0  0.37830  0.59380  0.81749  1.0000 -0.2203211101
N   N31       1.0  0.45350  0.61680  0.88180  1.0000 -0.0859554733
N   N32       1.0  0.64070  0.96540  0.79444  1.0000 -0.2343882627
N   N33       1.0  0.62560  0.05260  0.80339  1.0000 -0.2570558774
N   N34       1.0  0.50000  0.98020  0.85073  1.0000 -0.0648609611
N   N35       1.0  0.46850  0.80120  0.72227  1.0000 0.667014004
N   N36       1.0  0.04020  0.89160  0.68257  1.0000 -0.2489033059
N   N37       1.0  0.87830  0.90620  0.68251  1.0000 -0.2203211101
N   N38       1.0  0.95350  0.88320  0.61820  1.0000 -0.0859554733
N   N39       1.0  0.14070  0.53460  0.70556  1.0000 -0.2343882627
N   N40       1.0  0.12560  0.44740  0.69661  1.0000 -0.2570558774
N   N41       1.0  0.00000  0.51980  0.64927  1.0000 -0.0648609611
N   N42       1.0  0.96850  0.69880  0.77773  1.0000 0.667014004
N   N43       1.0  0.95980  0.60840  0.18257  1.0000 -0.2489033059
N   N44       1.0  0.12170  0.59380  0.18251  1.0000 -0.2203211101
N   N45       1.0  0.04650  0.61680  0.11820  1.0000 -0.0859554733
N   N46       1.0  0.85930  0.96540  0.20556  1.0000 -0.2343882627
N   N47       1.0  0.87440  0.05260  0.19661  1.0000 -0.2570558774
N   N48       1.0  0.00000  0.98020  0.14927  1.0000 -0.0648609611
N   N49       1.0  0.03150  0.80120  0.27773  1.0000 0.667014004
N   N50       1.0  0.45980  0.89160  0.31743  1.0000 -0.2489033059
N   N51       1.0  0.62170  0.90620  0.31749  1.0000 -0.2203211101
N   N52       1.0  0.54650  0.88320  0.38180  1.0000 -0.0859554733
N   N53       1.0  0.35930  0.53460  0.29444  1.0000 -0.2343882627
N   N54       1.0  0.37440  0.44740  0.30339  1.0000 -0.2570558774
N   N55       1.0  0.50000  0.51980  0.35073  1.0000 -0.0648609611
N   N56       1.0  0.53150  0.69880  0.22227  1.0000 0.667014004
O   O1        1.0  0.63180  0.25260  0.02793  1.0000 -0.6666498619
O   O2        1.0  0.66430  0.23200  0.09679  1.0000 -0.5170558157
O   O3        1.0  0.53610  0.08280  0.04064  1.0000 -0.7063019561
O   O4        1.0  0.34320  0.09880  0.08682  1.0000 -0.55131754
O   O5        1.0  0.39560  0.22260  0.28179  1.0000 -0.3865017581
O   O6        1.0  0.63800  0.25060  0.27171  1.0000 -0.4190160955
O   O7        1.0  0.56310  0.12090  0.27883  1.0000 -0.4353038284
O   O8        1.0  0.13180  0.24740  0.47207  1.0000 -0.6666498619
O   O9        1.0  0.16430  0.26800  0.40321  1.0000 -0.5170558157
O   O10       1.0  0.03610  0.41720  0.45936  1.0000 -0.7063019561
O   O11       1.0  0.84320  0.40120  0.41318  1.0000 -0.55131754
O   O12       1.0  0.89560  0.27740  0.21821  1.0000 -0.3865017581
O   O13       1.0  0.13800  0.24940  0.22829  1.0000 -0.4190160955
O   O14       1.0  0.06310  0.37910  0.22117  1.0000 -0.4353038284
O   O15       1.0  0.86820  0.25260  0.97207  1.0000 -0.6666498619
O   O16       1.0  0.83570  0.23200  0.90321  1.0000 -0.5170558157
O   O17       1.0  0.96390  0.08280  0.95936  1.0000 -0.7063019561
O   O18       1.0  0.15680  0.09880  0.91318  1.0000 -0.55131754
O   O19       1.0  0.10440  0.22260  0.71821  1.0000 -0.3865017581
O   O20       1.0  0.86200  0.25060  0.72829  1.0000 -0.4190160955
O   O21       1.0  0.93690  0.12090  0.72117  1.0000 -0.4353038284
O   O22       1.0  0.36820  0.24740  0.52793  1.0000 -0.6666498619
O   O23       1.0  0.33570  0.26800  0.59679  1.0000 -0.5170558157
O   O24       1.0  0.46390  0.41720  0.54064  1.0000 -0.7063019561
O   O25       1.0  0.65680  0.40120  0.58682  1.0000 -0.55131754
O   O26       1.0  0.60440  0.27740  0.78179  1.0000 -0.3865017581
O   O27       1.0  0.36200  0.24940  0.77171  1.0000 -0.4190160955
O   O28       1.0  0.43690  0.37910  0.77883  1.0000 -0.4353038284
O   O29       1.0  0.36820  0.74740  0.97207  1.0000 -0.6666498619
O   O30       1.0  0.33570  0.76800  0.90321  1.0000 -0.5170558157
O   O31       1.0  0.46390  0.91720  0.95936  1.0000 -0.7063019561
O   O32       1.0  0.65680  0.90120  0.91318  1.0000 -0.55131754
O   O33       1.0  0.60440  0.77740  0.71821  1.0000 -0.3865017581
O   O34       1.0  0.36200  0.74940  0.72829  1.0000 -0.4190160955
O   O35       1.0  0.43690  0.87910  0.72117  1.0000 -0.4353038284
O   O36       1.0  0.86820  0.75260  0.52793  1.0000 -0.6666498619
O   O37       1.0  0.83570  0.73200  0.59679  1.0000 -0.5170558157
O   O38       1.0  0.96390  0.58280  0.54064  1.0000 -0.7063019561
O   O39       1.0  0.15680  0.59880  0.58682  1.0000 -0.55131754
O   O40       1.0  0.10440  0.72260  0.78179  1.0000 -0.3865017581
O   O41       1.0  0.86200  0.75060  0.77171  1.0000 -0.4190160955
O   O42       1.0  0.93690  0.62090  0.77883  1.0000 -0.4353038284
O   O43       1.0  0.13180  0.74740  0.02793  1.0000 -0.6666498619
O   O44       1.0  0.16430  0.76800  0.09679  1.0000 -0.5170558157
O   O45       1.0  0.03610  0.91720  0.04064  1.0000 -0.7063019561
O   O46       1.0  0.84320  0.90120  0.08682  1.0000 -0.55131754
O   O47       1.0  0.89560  0.77740  0.28179  1.0000 -0.3865017581
O   O48       1.0  0.13800  0.74940  0.27171  1.0000 -0.4190160955
O   O49       1.0  0.06310  0.87910  0.27883  1.0000 -0.4353038284
O   O50       1.0  0.63180  0.75260  0.47207  1.0000 -0.6666498619
O   O51       1.0  0.66430  0.73200  0.40321  1.0000 -0.5170558157
O   O52       1.0  0.53610  0.58280  0.45936  1.0000 -0.7063019561
O   O53       1.0  0.34320  0.59880  0.41318  1.0000 -0.55131754
O   O54       1.0  0.39560  0.72260  0.21821  1.0000 -0.3865017581
O   O55       1.0  0.63800  0.75060  0.22829  1.0000 -0.4190160955
O   O56       1.0  0.56310  0.62090  0.22117  1.0000 -0.4353038284
