# DDEC6 charges by PACMAN v1.1 (https://github.com/mtap-research/PACMAN-charge/)
data_2020[Zn][pcu]3[ASR]14
_chemical_formula_sum              "Zn8 H104 C160 N16 O48"
_cell_length_a       12.258
_cell_length_b       26.661
_cell_length_c       15.684
_cell_angle_alpha    90
_cell_angle_beta     96.19
_cell_angle_gamma    90

_symmetry_space_group_name_H-M    "P 1"
_symmetry_Int_Tables_number       1

loop_
  _symmetry_equiv_pos_as_xyz
  'x, y, z'

loop_
  _atom_site_type_symbol
  _atom_site_label
  _atom_site_symmetry_multiplicity
  _atom_site_fract_x
  _atom_site_fract_y
  _atom_site_fract_z
  _atom_site_occupancy
  _atom_site_charge
Zn  Zn1       1.0  0.88293  0.77007  0.40989  1.0000 0.8232376042
Zn  Zn2       1.0  0.73228  0.74716  0.22181  1.0000 0.8534269396
Zn  Zn3       1.0  0.11707  0.27007  0.09011  1.0000 0.8232376042
Zn  Zn4       1.0  0.26772  0.24716  0.27819  1.0000 0.8534269396
Zn  Zn5       1.0  0.11707  0.22993  0.59011  1.0000 0.8232376042
Zn  Zn6       1.0  0.26772  0.25284  0.77819  1.0000 0.8534269396
Zn  Zn7       1.0  0.88293  0.72993  0.90989  1.0000 0.8232376042
Zn  Zn8       1.0  0.73228  0.75284  0.72181  1.0000 0.8534269396
H   H1        1.0  0.13580  0.79320  0.80310  1.0000 0.3105267908
H   H2        1.0  0.46710  0.78830  0.83520  1.0000 0.3105267908
H   H3        1.0  0.25280  0.12150  0.06310  1.0000 0.1192805914
H   H4        1.0  0.28290  0.03580  0.05290  1.0000 0.1418348744
H   H5        1.0  0.00340  0.01000  0.16490  1.0000 0.1316220347
H   H6        1.0  0.97570  0.09500  0.17510  1.0000 0.1192805914
H   H7        1.0  0.17170  0.94360  0.25410  1.0000 0.1316220347
H   H8        1.0  0.08040  0.87820  0.31650  1.0000 0.1192805914
H   H9        1.0  0.92900  0.83940  0.08380  1.0000 0.1192805914
H   H10       1.0  0.02280  0.90480  0.02040  1.0000 0.1316220347
H   H11       1.0  0.17760  0.09740  0.34790  1.0000 0.1192805914
H   H12       1.0  0.18330  0.01590  0.40070  1.0000 0.1418348744
H   H13       1.0  0.48590  0.99870  0.32090  1.0000 0.1316220347
H   H14       1.0  0.47690  0.07940  0.26730  1.0000 0.1192805914
H   H15       1.0  0.33570  0.88160  0.28790  1.0000 0.1418348744
H   H16       1.0  0.48170  0.82380  0.27430  1.0000 0.1192805914
H   H17       1.0  0.65290  0.88460  0.48390  1.0000 0.1192805914
H   H18       1.0  0.51150  0.94230  0.49620  1.0000 0.1316220347
H   H19       1.0  0.10040  0.73730  0.48710  1.0000 0.1192805914
H   H20       1.0  0.21230  0.74070  0.61480  1.0000 0.147786944
H   H21       1.0  0.98210  0.82840  0.70970  1.0000 0.1418348744
H   H22       1.0  0.87350  0.82060  0.58060  1.0000 0.109825263
H   H23       1.0  0.63500  0.80350  0.91660  1.0000 0.1585788194
H   H24       1.0  0.74640  0.79350  0.04410  1.0000 0.1192805914
H   H25       1.0  0.50380  0.73940  0.15890  1.0000 0.1192805914
H   H26       1.0  0.38060  0.74830  0.03080  1.0000 0.147786944
H   H27       1.0  0.86420  0.29320  0.69690  1.0000 0.3105267908
H   H28       1.0  0.53290  0.28830  0.66480  1.0000 0.3105267908
H   H29       1.0  0.74720  0.62150  0.43690  1.0000 0.1192805914
H   H30       1.0  0.71710  0.53580  0.44710  1.0000 0.1418348744
H   H31       1.0  0.99660  0.51000  0.33510  1.0000 0.1316220347
H   H32       1.0  0.02430  0.59500  0.32490  1.0000 0.1192805914
H   H33       1.0  0.82830  0.44360  0.24590  1.0000 0.1316220347
H   H34       1.0  0.91960  0.37820  0.18350  1.0000 0.1192805914
H   H35       1.0  0.07100  0.33940  0.41620  1.0000 0.1192805914
H   H36       1.0  0.97720  0.40480  0.47960  1.0000 0.1316220347
H   H37       1.0  0.82240  0.59740  0.15210  1.0000 0.1192805914
H   H38       1.0  0.81670  0.51590  0.09930  1.0000 0.1418348744
H   H39       1.0  0.51410  0.49870  0.17910  1.0000 0.1316220347
H   H40       1.0  0.52310  0.57940  0.23270  1.0000 0.1192805914
H   H41       1.0  0.66430  0.38160  0.21210  1.0000 0.1418348744
H   H42       1.0  0.51830  0.32380  0.22570  1.0000 0.1192805914
H   H43       1.0  0.34710  0.38460  0.01610  1.0000 0.1192805914
H   H44       1.0  0.48850  0.44230  0.00380  1.0000 0.1316220347
H   H45       1.0  0.89960  0.23730  0.01290  1.0000 0.1192805914
H   H46       1.0  0.78770  0.24070  0.88520  1.0000 0.147786944
H   H47       1.0  0.01790  0.32840  0.79030  1.0000 0.1418348744
H   H48       1.0  0.12650  0.32060  0.91940  1.0000 0.109825263
H   H49       1.0  0.36500  0.30350  0.58340  1.0000 0.1585788194
H   H50       1.0  0.25360  0.29350  0.45590  1.0000 0.1192805914
H   H51       1.0  0.49620  0.23940  0.34110  1.0000 0.1192805914
H   H52       1.0  0.61940  0.24830  0.46920  1.0000 0.147786944
H   H53       1.0  0.86420  0.20680  0.19690  1.0000 0.3105267908
H   H54       1.0  0.53290  0.21170  0.16480  1.0000 0.3105267908
H   H55       1.0  0.74720  0.87850  0.93690  1.0000 0.1192805914
H   H56       1.0  0.71710  0.96420  0.94710  1.0000 0.1418348744
H   H57       1.0  0.99660  0.99000  0.83510  1.0000 0.1316220347
H   H58       1.0  0.02430  0.90500  0.82490  1.0000 0.1192805914
H   H59       1.0  0.82830  0.05640  0.74590  1.0000 0.1316220347
H   H60       1.0  0.91960  0.12180  0.68350  1.0000 0.1192805914
H   H61       1.0  0.07100  0.16060  0.91620  1.0000 0.1192805914
H   H62       1.0  0.97720  0.09520  0.97960  1.0000 0.1316220347
H   H63       1.0  0.82240  0.90260  0.65210  1.0000 0.1192805914
H   H64       1.0  0.81670  0.98410  0.59930  1.0000 0.1418348744
H   H65       1.0  0.51410  0.00130  0.67910  1.0000 0.1316220347
H   H66       1.0  0.52310  0.92060  0.73270  1.0000 0.1192805914
H   H67       1.0  0.66430  0.11840  0.71210  1.0000 0.1418348744
H   H68       1.0  0.51830  0.17620  0.72570  1.0000 0.1192805914
H   H69       1.0  0.34710  0.11540  0.51610  1.0000 0.1192805914
H   H70       1.0  0.48850  0.05770  0.50380  1.0000 0.1316220347
H   H71       1.0  0.89960  0.26270  0.51290  1.0000 0.1192805914
H   H72       1.0  0.78770  0.25930  0.38520  1.0000 0.147786944
H   H73       1.0  0.01790  0.17160  0.29030  1.0000 0.1418348744
H   H74       1.0  0.12650  0.17940  0.41940  1.0000 0.109825263
H   H75       1.0  0.36500  0.19650  0.08340  1.0000 0.1585788194
H   H76       1.0  0.25360  0.20650  0.95590  1.0000 0.109825263
H   H77       1.0  0.49620  0.26060  0.84110  1.0000 0.1192805914
H   H78       1.0  0.61940  0.25170  0.96920  1.0000 0.147786944
H   H79       1.0  0.13580  0.70680  0.30310  1.0000 0.3105267908
H   H80       1.0  0.46710  0.71170  0.33520  1.0000 0.3105267908
H   H81       1.0  0.25280  0.37850  0.56310  1.0000 0.1192805914
H   H82       1.0  0.28290  0.46420  0.55290  1.0000 0.1418348744
H   H83       1.0  0.00340  0.49000  0.66490  1.0000 0.1316220347
H   H84       1.0  0.97570  0.40500  0.67510  1.0000 0.1192805914
H   H85       1.0  0.17170  0.55640  0.75410  1.0000 0.1316220347
H   H86       1.0  0.08040  0.62180  0.81650  1.0000 0.1192805914
H   H87       1.0  0.92900  0.66060  0.58380  1.0000 0.1192805914
H   H88       1.0  0.02280  0.59520  0.52040  1.0000 0.1316220347
H   H89       1.0  0.17760  0.40260  0.84790  1.0000 0.1192805914
H   H90       1.0  0.18330  0.48410  0.90070  1.0000 0.1418348744
H   H91       1.0  0.48590  0.50130  0.82090  1.0000 0.1316220347
H   H92       1.0  0.47690  0.42060  0.76730  1.0000 0.1192805914
H   H93       1.0  0.33570  0.61840  0.78790  1.0000 0.1418348744
H   H94       1.0  0.48170  0.67620  0.77430  1.0000 0.1192805914
H   H95       1.0  0.65290  0.61540  0.98390  1.0000 0.1192805914
H   H96       1.0  0.51150  0.55770  0.99620  1.0000 0.1316220347
H   H97       1.0  0.10040  0.76270  0.98710  1.0000 0.1192805914
H   H98       1.0  0.21230  0.75930  0.11480  1.0000 0.147786944
H   H99       1.0  0.98210  0.67160  0.20970  1.0000 0.1418348744
H   H100      1.0  0.87350  0.67940  0.08060  1.0000 0.109825263
H   H101      1.0  0.63500  0.69650  0.41660  1.0000 0.1585788194
H   H102      1.0  0.74640  0.70650  0.54410  1.0000 0.109825263
H   H103      1.0  0.50380  0.76060  0.65890  1.0000 0.1192805914
H   H104      1.0  0.38060  0.75170  0.53080  1.0000 0.147786944
C   C1        1.0  0.08740  0.17160  0.11940  1.0000 0.5585224096
C   C2        1.0  0.11010  0.11760  0.11860  1.0000 -0.0692176011
C   C3        1.0  0.20170  0.09870  0.08330  1.0000 -0.0801016763
C   C4        1.0  0.21990  0.04790  0.07690  1.0000 -0.2187525934
C   C5        1.0  0.14450  0.01440  0.10610  1.0000 0.2742464755
C   C6        1.0  0.05370  0.03270  0.14360  1.0000 -0.227930393
C   C7        1.0  0.03740  0.08300  0.14950  1.0000 -0.0801016763
C   C8        1.0  0.10450  0.92830  0.13170  1.0000 0.2494412599
C   C9        1.0  0.12320  0.92210  0.21990  1.0000 -0.2089421835
C   C10       1.0  0.06870  0.88360  0.25630  1.0000 -0.0801016763
C   C11       1.0  0.99650  0.85250  0.20530  1.0000 -0.0477758899
C   C12       1.0  0.97870  0.86020  0.11830  1.0000 -0.085607785
C   C13       1.0  0.03420  0.89910  0.08050  1.0000 -0.1992826175
C   C14       1.0  0.93390  0.81290  0.24740  1.0000 0.5976748008
C   C15       1.0  0.32840  0.15080  0.27520  1.0000 0.5522343431
C   C16       1.0  0.32760  0.09730  0.30300  1.0000 -0.0477758899
C   C17       1.0  0.24040  0.07720  0.34260  1.0000 -0.0801016763
C   C18       1.0  0.24330  0.02900  0.37410  1.0000 -0.2187525934
C   C19       1.0  0.33550  0.00010  0.36640  1.0000 0.2584779922
C   C20       1.0  0.42320  0.01890  0.32640  1.0000 -0.227930393
C   C21       1.0  0.41760  0.06670  0.29520  1.0000 -0.0801016763
C   C22       1.0  0.41610  0.91870  0.38930  1.0000 0.2494412599
C   C23       1.0  0.40130  0.88280  0.32600  1.0000 -0.2187525934
C   C24       1.0  0.48690  0.84770  0.31940  1.0000 -0.0801016763
C   C25       1.0  0.57900  0.84890  0.38010  1.0000 -0.0477758899
C   C26       1.0  0.58900  0.88400  0.44380  1.0000 -0.0801016763
C   C27       1.0  0.50630  0.91880  0.45050  1.0000 -0.1992826175
C   C28       1.0  0.66910  0.81210  0.36940  1.0000 0.5976748008
C   C29       1.0  0.07580  0.75560  0.53340  1.0000 0.0983991016
C   C30       1.0  0.14330  0.75730  0.60910  1.0000 -0.2187525934
C   C31       1.0  0.10840  0.78390  0.67710  1.0000 0.2781910363
C   C32       1.0  0.00660  0.80880  0.66490  1.0000 -0.2187525934
C   C33       1.0  0.94310  0.80460  0.58770  1.0000 0.0794086296
C   C34       1.0  0.28050  0.77840  0.77320  1.0000 0.3773070264
C   C35       1.0  0.32250  0.77840  0.86860  1.0000 0.3773070264
C   C36       1.0  0.49810  0.77770  0.96290  1.0000 0.2494412599
C   C37       1.0  0.60600  0.79050  0.96580  1.0000 -0.227930393
C   C38       1.0  0.67110  0.78440  0.04070  1.0000 0.109825263
C   C39       1.0  0.52870  0.75260  0.10810  1.0000 0.109825263
C   C40       1.0  0.45550  0.75790  0.03290  1.0000 -0.2089421835
C   C41       1.0  0.91260  0.67160  0.38060  1.0000 0.5585224096
C   C42       1.0  0.88990  0.61760  0.38140  1.0000 -0.0692176011
C   C43       1.0  0.79830  0.59870  0.41670  1.0000 -0.0801016763
C   C44       1.0  0.78010  0.54790  0.42310  1.0000 -0.2187525934
C   C45       1.0  0.85550  0.51440  0.39390  1.0000 0.2742464755
C   C46       1.0  0.94630  0.53270  0.35640  1.0000 -0.227930393
C   C47       1.0  0.96260  0.58300  0.35050  1.0000 -0.0801016763
C   C48       1.0  0.89550  0.42830  0.36830  1.0000 0.2494412599
C   C49       1.0  0.87680  0.42210  0.28010  1.0000 -0.2089421835
C   C50       1.0  0.93130  0.38360  0.24370  1.0000 -0.0801016763
C   C51       1.0  0.00350  0.35250  0.29470  1.0000 -0.0477758899
C   C52       1.0  0.02130  0.36020  0.38170  1.0000 -0.085607785
C   C53       1.0  0.96580  0.39910  0.41950  1.0000 -0.1992826175
C   C54       1.0  0.06610  0.31290  0.25260  1.0000 0.5976748008
C   C55       1.0  0.67160  0.65080  0.22480  1.0000 0.5522343431
C   C56       1.0  0.67240  0.59730  0.19700  1.0000 -0.0477758899
C   C57       1.0  0.75960  0.57720  0.15740  1.0000 -0.0801016763
C   C58       1.0  0.75670  0.52900  0.12590  1.0000 -0.2187525934
C   C59       1.0  0.66450  0.50010  0.13360  1.0000 0.2584779922
C   C60       1.0  0.57680  0.51890  0.17360  1.0000 -0.227930393
C   C61       1.0  0.58240  0.56670  0.20480  1.0000 -0.0801016763
C   C62       1.0  0.58390  0.41870  0.11070  1.0000 0.2494412599
C   C63       1.0  0.59870  0.38280  0.17400  1.0000 -0.2187525934
C   C64       1.0  0.51310  0.34770  0.18060  1.0000 -0.0801016763
C   C65       1.0  0.42100  0.34890  0.11990  1.0000 -0.0477758899
C   C66       1.0  0.41100  0.38400  0.05620  1.0000 -0.0801016763
C   C67       1.0  0.49370  0.41880  0.04950  1.0000 -0.1992826175
C   C68       1.0  0.33090  0.31210  0.13060  1.0000 0.5976748008
C   C69       1.0  0.92420  0.25560  0.96660  1.0000 0.0983991016
C   C70       1.0  0.85670  0.25730  0.89090  1.0000 -0.2187525934
C   C71       1.0  0.89160  0.28390  0.82290  1.0000 0.2781910363
C   C72       1.0  0.99340  0.30880  0.83510  1.0000 -0.2187525934
C   C73       1.0  0.05690  0.30460  0.91230  1.0000 0.0794086296
C   C74       1.0  0.71950  0.27840  0.72680  1.0000 0.3773070264
C   C75       1.0  0.67750  0.27840  0.63140  1.0000 0.3773070264
C   C76       1.0  0.50190  0.27770  0.53710  1.0000 0.2494412599
C   C77       1.0  0.39400  0.29050  0.53420  1.0000 -0.227930393
C   C78       1.0  0.32890  0.28440  0.45930  1.0000 0.109825263
C   C79       1.0  0.47130  0.25260  0.39190  1.0000 0.109825263
C   C80       1.0  0.54450  0.25790  0.46710  1.0000 -0.2089421835
C   C81       1.0  0.91260  0.82840  0.88060  1.0000 0.5585224096
C   C82       1.0  0.88990  0.88240  0.88140  1.0000 -0.0692176011
C   C83       1.0  0.79830  0.90130  0.91670  1.0000 -0.0801016763
C   C84       1.0  0.78010  0.95210  0.92310  1.0000 -0.2187525934
C   C85       1.0  0.85550  0.98560  0.89390  1.0000 0.2742464755
C   C86       1.0  0.94630  0.96730  0.85640  1.0000 -0.227930393
C   C87       1.0  0.96260  0.91700  0.85050  1.0000 -0.0801016763
C   C88       1.0  0.89550  0.07170  0.86830  1.0000 0.2494412599
C   C89       1.0  0.87680  0.07790  0.78010  1.0000 -0.2089421835
C   C90       1.0  0.93130  0.11640  0.74370  1.0000 -0.0801016763
C   C91       1.0  0.00350  0.14750  0.79470  1.0000 -0.0477758899
C   C92       1.0  0.02130  0.13980  0.88170  1.0000 -0.085607785
C   C93       1.0  0.96580  0.10090  0.91950  1.0000 -0.1992826175
C   C94       1.0  0.06610  0.18710  0.75260  1.0000 0.5976748008
C   C95       1.0  0.67160  0.84920  0.72480  1.0000 0.5522343431
C   C96       1.0  0.67240  0.90270  0.69700  1.0000 -0.0477758899
C   C97       1.0  0.75960  0.92280  0.65740  1.0000 -0.0801016763
C   C98       1.0  0.75670  0.97100  0.62590  1.0000 -0.2187525934
C   C99       1.0  0.66450  0.99990  0.63360  1.0000 0.2584779922
C   C100      1.0  0.57680  0.98110  0.67360  1.0000 -0.227930393
C   C101      1.0  0.58240  0.93330  0.70480  1.0000 -0.0801016763
C   C102      1.0  0.58390  0.08130  0.61070  1.0000 0.2494412599
C   C103      1.0  0.59870  0.11720  0.67400  1.0000 -0.2187525934
C   C104      1.0  0.51310  0.15230  0.68060  1.0000 -0.0801016763
C   C105      1.0  0.42100  0.15110  0.61990  1.0000 -0.0477758899
C   C106      1.0  0.41100  0.11600  0.55620  1.0000 -0.0801016763
C   C107      1.0  0.49370  0.08120  0.54950  1.0000 -0.1992826175
C   C108      1.0  0.33090  0.18790  0.63060  1.0000 0.5976748008
C   C109      1.0  0.92420  0.24440  0.46660  1.0000 0.0983991016
C   C110      1.0  0.85670  0.24270  0.39090  1.0000 -0.2187525934
C   C111      1.0  0.89160  0.21610  0.32290  1.0000 0.2781910363
C   C112      1.0  0.99340  0.19120  0.33510  1.0000 -0.2187525934
C   C113      1.0  0.05690  0.19540  0.41230  1.0000 0.0794086296
C   C114      1.0  0.71950  0.22160  0.22680  1.0000 0.3773070264
C   C115      1.0  0.67750  0.22160  0.13140  1.0000 0.3773070264
C   C116      1.0  0.50190  0.22230  0.03710  1.0000 0.2494412599
C   C117      1.0  0.39400  0.20950  0.03420  1.0000 -0.227930393
C   C118      1.0  0.32890  0.21560  0.95930  1.0000 0.109825263
C   C119      1.0  0.47130  0.24740  0.89190  1.0000 0.109825263
C   C120      1.0  0.54450  0.24210  0.96710  1.0000 -0.2089421835
C   C121      1.0  0.08740  0.32840  0.61940  1.0000 0.5585224096
C   C122      1.0  0.11010  0.38240  0.61860  1.0000 -0.0692176011
C   C123      1.0  0.20170  0.40130  0.58330  1.0000 -0.0801016763
C   C124      1.0  0.21990  0.45210  0.57690  1.0000 -0.2187525934
C   C125      1.0  0.14450  0.48560  0.60610  1.0000 0.2742464755
C   C126      1.0  0.05370  0.46730  0.64360  1.0000 -0.227930393
C   C127      1.0  0.03740  0.41700  0.64950  1.0000 -0.0801016763
C   C128      1.0  0.10450  0.57170  0.63170  1.0000 0.2494412599
C   C129      1.0  0.12320  0.57790  0.71990  1.0000 -0.2089421835
C   C130      1.0  0.06870  0.61640  0.75630  1.0000 -0.0801016763
C   C131      1.0  0.99650  0.64750  0.70530  1.0000 -0.0477758899
C   C132      1.0  0.97870  0.63980  0.61830  1.0000 -0.085607785
C   C133      1.0  0.03420  0.60090  0.58050  1.0000 -0.1992826175
C   C134      1.0  0.93390  0.68710  0.74740  1.0000 0.5976748008
C   C135      1.0  0.32840  0.34920  0.77520  1.0000 0.5522343431
C   C136      1.0  0.32760  0.40270  0.80300  1.0000 -0.0477758899
C   C137      1.0  0.24040  0.42280  0.84260  1.0000 -0.0801016763
C   C138      1.0  0.24330  0.47100  0.87410  1.0000 -0.2187525934
C   C139      1.0  0.33550  0.49990  0.86640  1.0000 0.2584779922
C   C140      1.0  0.42320  0.48110  0.82640  1.0000 -0.227930393
C   C141      1.0  0.41760  0.43330  0.79520  1.0000 -0.0801016763
C   C142      1.0  0.41610  0.58130  0.88930  1.0000 0.2494412599
C   C143      1.0  0.40130  0.61720  0.82600  1.0000 -0.2187525934
C   C144      1.0  0.48690  0.65230  0.81940  1.0000 -0.0801016763
C   C145      1.0  0.57900  0.65110  0.88010  1.0000 -0.0477758899
C   C146      1.0  0.58900  0.61600  0.94380  1.0000 -0.0801016763
C   C147      1.0  0.50630  0.58120  0.95050  1.0000 -0.1992826175
C   C148      1.0  0.66910  0.68790  0.86940  1.0000 0.5976748008
C   C149      1.0  0.07580  0.74440  0.03340  1.0000 0.0983991016
C   C150      1.0  0.14330  0.74270  0.10910  1.0000 -0.2187525934
C   C151      1.0  0.10840  0.71610  0.17710  1.0000 0.2781910363
C   C152      1.0  0.00660  0.69120  0.16490  1.0000 -0.2187525934
C   C153      1.0  0.94310  0.69540  0.08770  1.0000 0.0794086296
C   C154      1.0  0.28050  0.72160  0.27320  1.0000 0.3773070264
C   C155      1.0  0.32250  0.72160  0.36860  1.0000 0.3773070264
C   C156      1.0  0.49810  0.72230  0.46290  1.0000 0.2494412599
C   C157      1.0  0.60600  0.70950  0.46580  1.0000 -0.227930393
C   C158      1.0  0.67110  0.71560  0.54070  1.0000 0.109825263
C   C159      1.0  0.52870  0.74740  0.60810  1.0000 0.109825263
C   C160      1.0  0.45550  0.74210  0.53290  1.0000 -0.2089421835
N   N1        1.0  0.97660  0.77810  0.52030  1.0000 -0.2760364425
N   N2        1.0  0.17100  0.78620  0.75860  1.0000 -0.3454058852
N   N3        1.0  0.43250  0.78240  0.88060  1.0000 -0.3395811107
N   N4        1.0  0.63160  0.76620  0.10730  1.0000 -0.2187525934
N   N5        1.0  0.02340  0.27810  0.97970  1.0000 -0.2760364425
N   N6        1.0  0.82900  0.28620  0.74140  1.0000 -0.3454058852
N   N7        1.0  0.56750  0.28240  0.61940  1.0000 -0.3395811107
N   N8        1.0  0.36840  0.26620  0.39270  1.0000 -0.2187525934
N   N9        1.0  0.02340  0.22190  0.47970  1.0000 -0.2760364425
N   N10       1.0  0.82900  0.21380  0.24140  1.0000 -0.3454058852
N   N11       1.0  0.56750  0.21760  0.11940  1.0000 -0.3395811107
N   N12       1.0  0.36840  0.23380  0.89270  1.0000 -0.2187525934
N   N13       1.0  0.97660  0.72190  0.02030  1.0000 -0.2760364425
N   N14       1.0  0.17100  0.71380  0.25860  1.0000 -0.3454058852
N   N15       1.0  0.43250  0.71760  0.38060  1.0000 -0.3395811107
N   N16       1.0  0.63160  0.73380  0.60730  1.0000 -0.2187525934
O   O1        1.0  0.16670  0.20120  0.10110  1.0000 -0.5922042068
O   O2        1.0  0.99590  0.18790  0.13360  1.0000 -0.5553045806
O   O3        1.0  0.16450  0.96420  0.09180  1.0000 -0.2089421835
O   O4        1.0  0.85870  0.78870  0.20190  1.0000 -0.5670847681
O   O5        1.0  0.95740  0.80700  0.32620  1.0000 -0.5207066622
O   O6        1.0  0.24100  0.17660  0.29030  1.0000 -0.5782338616
O   O7        1.0  0.40650  0.16940  0.24250  1.0000 -0.5553045806
O   O8        1.0  0.33070  0.95280  0.40020  1.0000 -0.2187525934
O   O9        1.0  0.65470  0.78270  0.30680  1.0000 -0.5517026421
O   O10       1.0  0.75660  0.81440  0.42200  1.0000 -0.5517026421
O   O11       1.0  0.34090  0.76990  0.71960  1.0000 -0.4405701172
O   O12       1.0  0.25950  0.77380  0.92240  1.0000 -0.4405701172
O   O13       1.0  0.83330  0.70120  0.39890  1.0000 -0.5922042068
O   O14       1.0  0.00410  0.68790  0.36640  1.0000 -0.5517026421
O   O15       1.0  0.83550  0.46420  0.40820  1.0000 -0.2089421835
O   O16       1.0  0.14130  0.28870  0.29810  1.0000 -0.5670847681
O   O17       1.0  0.04260  0.30700  0.17380  1.0000 -0.5207066622
O   O18       1.0  0.75900  0.67660  0.20970  1.0000 -0.5782338616
O   O19       1.0  0.59350  0.66940  0.25750  1.0000 -0.5553045806
O   O20       1.0  0.66930  0.45280  0.09980  1.0000 -0.2187525934
O   O21       1.0  0.34530  0.28270  0.19320  1.0000 -0.5517026421
O   O22       1.0  0.24340  0.31440  0.07800  1.0000 -0.5517026421
O   O23       1.0  0.65910  0.26990  0.78040  1.0000 -0.4405701172
O   O24       1.0  0.74050  0.27380  0.57760  1.0000 -0.4405701172
O   O25       1.0  0.83330  0.79880  0.89890  1.0000 -0.5922042068
O   O26       1.0  0.00410  0.81210  0.86640  1.0000 -0.5553045806
O   O27       1.0  0.83550  0.03580  0.90820  1.0000 -0.2089421835
O   O28       1.0  0.14130  0.21130  0.79810  1.0000 -0.5670847681
O   O29       1.0  0.04260  0.19300  0.67380  1.0000 -0.5207066622
O   O30       1.0  0.75900  0.82340  0.70970  1.0000 -0.5782338616
O   O31       1.0  0.59350  0.83060  0.75750  1.0000 -0.5517026421
O   O32       1.0  0.66930  0.04720  0.59980  1.0000 -0.2187525934
O   O33       1.0  0.34530  0.21730  0.69320  1.0000 -0.5517026421
O   O34       1.0  0.24340  0.18560  0.57800  1.0000 -0.5517026421
O   O35       1.0  0.65910  0.23010  0.28040  1.0000 -0.4405701172
O   O36       1.0  0.74050  0.22620  0.07760  1.0000 -0.4405701172
O   O37       1.0  0.16670  0.29880  0.60110  1.0000 -0.5922042068
O   O38       1.0  0.99590  0.31210  0.63360  1.0000 -0.5553045806
O   O39       1.0  0.16450  0.53580  0.59180  1.0000 -0.2089421835
O   O40       1.0  0.85870  0.71130  0.70190  1.0000 -0.5670847681
O   O41       1.0  0.95740  0.69300  0.82620  1.0000 -0.5207066622
O   O42       1.0  0.24100  0.32340  0.79030  1.0000 -0.5782338616
O   O43       1.0  0.40650  0.33060  0.74250  1.0000 -0.5553045806
O   O44       1.0  0.33070  0.54720  0.90020  1.0000 -0.2187525934
O   O45       1.0  0.65470  0.71730  0.80680  1.0000 -0.5517026421
O   O46       1.0  0.75660  0.68560  0.92200  1.0000 -0.5517026421
O   O47       1.0  0.34090  0.73010  0.21960  1.0000 -0.4405701172
O   O48       1.0  0.25950  0.72620  0.42240  1.0000 -0.4405701172
