# DDEC6 charges by PACMAN v1.1 (https://github.com/mtap-research/PACMAN-charge/)
data_2020[Fe][nan]3[ASR]3
_chemical_formula_sum              "Fe16 H76 C132 N60 O60"
_cell_length_a       15.6854
_cell_length_b       27.7963
_cell_length_c       22.4009
_cell_angle_alpha    90
_cell_angle_beta     133.934
_cell_angle_gamma    90

_symmetry_space_group_name_H-M    "P 1"
_symmetry_Int_Tables_number       1

loop_
  _symmetry_equiv_pos_as_xyz
  'x, y, z'

loop_
  _atom_site_type_symbol
  _atom_site_label
  _atom_site_symmetry_multiplicity
  _atom_site_fract_x
  _atom_site_fract_y
  _atom_site_fract_z
  _atom_site_occupancy
  _atom_site_charge
Fe  Fe1       1.0  0.65364  0.36437  0.24816  1.0000 1.1534933466
Fe  Fe2       1.0  0.86912  0.37319  0.25205  1.0000 1.1807244617
Fe  Fe3       1.0  0.77143  0.26650  0.24358  1.0000 1.1859072365
Fe  Fe4       1.0  0.30267  0.39565  0.23231  1.0000 0.5487881171
Fe  Fe5       1.0  0.34636  0.86437  0.25184  1.0000 1.1534933466
Fe  Fe6       1.0  0.13088  0.87319  0.24795  1.0000 1.1807244617
Fe  Fe7       1.0  0.22857  0.76650  0.25642  1.0000 1.1859072365
Fe  Fe8       1.0  0.69733  0.89565  0.26769  1.0000 0.5487881171
Fe  Fe9       1.0  0.34636  0.63563  0.75184  1.0000 1.1534933466
Fe  Fe10      1.0  0.13088  0.62681  0.74795  1.0000 1.1807244617
Fe  Fe11      1.0  0.22857  0.73350  0.75642  1.0000 1.1859072365
Fe  Fe12      1.0  0.69733  0.60435  0.76769  1.0000 0.5487881171
Fe  Fe13      1.0  0.65364  0.13563  0.74816  1.0000 1.1534933466
Fe  Fe14      1.0  0.86912  0.12681  0.75205  1.0000 1.1807244617
Fe  Fe15      1.0  0.77143  0.23350  0.74358  1.0000 1.1807244617
Fe  Fe16      1.0  0.30267  0.10435  0.73231  1.0000 0.5487881171
H   H1        1.0  0.04367  0.48131  0.42340  1.0000 0.1399243119
H   H2        1.0  0.17502  0.24957  0.35614  1.0000 0.1399243119
H   H3        1.0  0.54726  0.45374  0.01418  1.0000 0.1399243119
H   H4        1.0  0.49426  0.47393  0.04806  1.0000 0.1399243119
H   H5        1.0  0.61190  0.49551  0.07948  1.0000 0.1399243119
H   H6        1.0  0.90926  0.22390  0.48539  1.0000 0.1399243119
H   H7        1.0  0.64302  0.25194  0.50773  1.0000 0.1495521484
H   H8        1.0  0.48032  0.15821  0.52954  1.0000 0.1272115489
H   H9        1.0  0.36684  0.26074  0.63269  1.0000 0.1399243119
H   H10       1.0  0.72615  0.36241  0.50258  1.0000 0.119520427
H   H11       1.0  0.01473  0.14076  0.57134  1.0000 0.1272115489
H   H12       1.0  0.55650  0.34220  0.41558  1.0000 0.119520427
H   H13       1.0  0.75585  0.50315  0.49471  1.0000 0.1399243119
H   H14       1.0  0.22517  0.18504  0.79875  1.0000 0.1103304811
H   H15       1.0  0.41284  0.19441  0.33464  1.0000 0.1103304811
H   H16       1.0  0.32759  0.28828  0.19125  1.0000 0.1103304811
H   H17       1.0  0.06195  0.35194  0.46676  1.0000 0.119520427
H   H18       1.0  0.10003  0.29853  0.64079  1.0000 0.1103304811
H   H19       1.0  0.60258  0.44568  0.31330  1.0000 0.1103304811
H   H20       1.0  0.95633  0.98131  0.07660  1.0000 0.1399243119
H   H21       1.0  0.82498  0.74957  0.14386  1.0000 0.1399243119
H   H22       1.0  0.45274  0.95374  0.48582  1.0000 0.1399243119
H   H23       1.0  0.50574  0.97393  0.45194  1.0000 0.1399243119
H   H24       1.0  0.38810  0.99551  0.42052  1.0000 0.1399243119
H   H25       1.0  0.09074  0.72390  0.01461  1.0000 0.1399243119
H   H26       1.0  0.35698  0.75194  0.99227  1.0000 0.1495521484
H   H27       1.0  0.51968  0.65821  0.97046  1.0000 0.1272115489
H   H28       1.0  0.63316  0.76074  0.86731  1.0000 0.1399243119
H   H29       1.0  0.27385  0.86241  0.99742  1.0000 0.119520427
H   H30       1.0  0.98527  0.64076  0.92866  1.0000 0.1272115489
H   H31       1.0  0.44350  0.84220  0.08442  1.0000 0.119520427
H   H32       1.0  0.24415  0.00315  0.00529  1.0000 0.1399243119
H   H33       1.0  0.77483  0.68504  0.70125  1.0000 0.1103304811
H   H34       1.0  0.58716  0.69441  0.16536  1.0000 0.1103304811
H   H35       1.0  0.67241  0.78828  0.30875  1.0000 0.1103304811
H   H36       1.0  0.93805  0.85194  0.03324  1.0000 0.119520427
H   H37       1.0  0.89997  0.79853  0.85921  1.0000 0.1103304811
H   H38       1.0  0.39742  0.94568  0.18670  1.0000 0.1103304811
H   H39       1.0  0.95633  0.51869  0.57660  1.0000 0.1399243119
H   H40       1.0  0.82498  0.75043  0.64386  1.0000 0.1399243119
H   H41       1.0  0.45274  0.54626  0.98582  1.0000 0.1399243119
H   H42       1.0  0.50574  0.52607  0.95194  1.0000 0.1399243119
H   H43       1.0  0.38810  0.50449  0.92052  1.0000 0.1399243119
H   H44       1.0  0.09074  0.77610  0.51461  1.0000 0.1399243119
H   H45       1.0  0.35698  0.74806  0.49227  1.0000 0.1495521484
H   H46       1.0  0.51968  0.84179  0.47046  1.0000 0.1272115489
H   H47       1.0  0.63316  0.73926  0.36731  1.0000 0.1399243119
H   H48       1.0  0.27385  0.63759  0.49742  1.0000 0.119520427
H   H49       1.0  0.98527  0.85924  0.42866  1.0000 0.1272115489
H   H50       1.0  0.44350  0.65780  0.58442  1.0000 0.119520427
H   H51       1.0  0.24415  0.49685  0.50529  1.0000 0.1399243119
H   H52       1.0  0.77483  0.81496  0.20125  1.0000 0.1103304811
H   H53       1.0  0.58716  0.80559  0.66536  1.0000 0.1103304811
H   H54       1.0  0.67241  0.71172  0.80875  1.0000 0.1103304811
H   H55       1.0  0.93805  0.64806  0.53324  1.0000 0.119520427
H   H56       1.0  0.89997  0.70147  0.35921  1.0000 0.1103304811
H   H57       1.0  0.39742  0.55432  0.68670  1.0000 0.1103304811
H   H58       1.0  0.04367  0.01869  0.92340  1.0000 0.1399243119
H   H59       1.0  0.17502  0.25043  0.85614  1.0000 0.1399243119
H   H60       1.0  0.54726  0.04626  0.51418  1.0000 0.1399243119
H   H61       1.0  0.49426  0.02607  0.54806  1.0000 0.1399243119
H   H62       1.0  0.61190  0.00449  0.57948  1.0000 0.1399243119
H   H63       1.0  0.90926  0.27610  0.98539  1.0000 0.1399243119
H   H64       1.0  0.64302  0.24806  0.00773  1.0000 0.1495521484
H   H65       1.0  0.48032  0.34179  0.02954  1.0000 0.1272115489
H   H66       1.0  0.36684  0.23926  0.13269  1.0000 0.1399243119
H   H67       1.0  0.72615  0.13759  0.00258  1.0000 0.119520427
H   H68       1.0  0.01473  0.35924  0.07134  1.0000 0.1272115489
H   H69       1.0  0.55650  0.15780  0.91558  1.0000 0.119520427
H   H70       1.0  0.75585  0.99685  0.99471  1.0000 0.1399243119
H   H71       1.0  0.22517  0.31496  0.29875  1.0000 0.1103304811
H   H72       1.0  0.41284  0.30559  0.83464  1.0000 0.1103304811
H   H73       1.0  0.32759  0.21172  0.69125  1.0000 0.1103304811
H   H74       1.0  0.06195  0.14806  0.96676  1.0000 0.119520427
H   H75       1.0  0.10003  0.20147  0.14079  1.0000 0.1103304811
H   H76       1.0  0.60258  0.05432  0.81330  1.0000 0.1103304811
C   C1        1.0  0.50700  0.21840  0.62520  1.0000 0.5869281011
C   C2        1.0  0.93790  0.46250  0.44060  1.0000 -0.0762552602
C   C3        1.0  0.73530  0.27640  0.35840  1.0000 0.6104777771
C   C4        1.0  0.79970  0.22170  0.56490  1.0000 -0.040415655
C   C5        1.0  0.02970  0.28980  0.36320  1.0000 0.6016172263
C   C6        1.0  0.15500  0.27220  0.43140  1.0000 -0.0637525512
C   C7        1.0  0.81420  0.20340  0.63570  1.0000 0.6192721444
C   C8        1.0  0.75330  0.25460  0.42700  1.0000 -0.0637525512
C   C9        1.0  0.87090  0.42640  0.37260  1.0000 0.6016172263
C   C10       1.0  0.02500  0.48910  0.45360  1.0000 -0.1904332136
C   C11       1.0  0.67200  0.26170  0.43370  1.0000 0.1103304811
C   C12       1.0  0.21320  0.25160  0.41140  1.0000 -0.177264331
C   C13       1.0  0.91650  0.47420  0.49120  1.0000 0.119520427
C   C14       1.0  0.32640  0.23430  0.47220  1.0000 0.119520427
C   C15       1.0  0.56610  0.46670  0.06190  1.0000 -0.5806218517
C   C16       1.0  0.63820  0.42940  0.13270  1.0000 0.7057402598
C   C17       1.0  0.38640  0.23790  0.55580  1.0000 -0.0637525512
C   C18       1.0  0.87930  0.21400  0.55870  1.0000 0.1103304811
C   C19       1.0  0.85510  0.23000  0.48940  1.0000 -0.1904332136
C   C20       1.0  0.69660  0.24600  0.50310  1.0000 -0.1993620527
C   C21       1.0  0.44990  0.17320  0.48100  1.0000 0.1042355913
C   C22       1.0  0.21570  0.27590  0.51520  1.0000 0.1272115489
C   C23       1.0  0.32900  0.25870  0.57750  1.0000 -0.1993620527
C   C24       1.0  0.74970  0.39200  0.49870  1.0000 0.0724499951
C   C25       1.0  0.04690  0.15690  0.61950  1.0000 0.081304727
C   C26       1.0  0.52050  0.32280  0.36950  1.0000 0.0901243257
C   C27       1.0  0.76670  0.47030  0.49440  1.0000 -0.040415655
C   C28       1.0  0.15910  0.18160  0.74230  1.0000 0.1495521484
C   C29       1.0  0.41320  0.19360  0.37630  1.0000 0.1272115489
C   C30       1.0  0.39550  0.29310  0.24690  1.0000 0.1763347219
C   C31       1.0  0.08660  0.33280  0.51040  1.0000 0.119520427
C   C32       1.0  0.10780  0.30290  0.60360  1.0000 0.1272115489
C   C33       1.0  0.53380  0.42730  0.27940  1.0000 0.4869171994
C   C34       1.0  0.49300  0.71840  0.87480  1.0000 0.5869281011
C   C35       1.0  0.06210  0.96250  0.05940  1.0000 -0.0762552602
C   C36       1.0  0.26470  0.77640  0.14160  1.0000 0.6104777771
C   C37       1.0  0.20030  0.72170  0.93510  1.0000 -0.040415655
C   C38       1.0  0.97030  0.78980  0.13680  1.0000 0.6016172263
C   C39       1.0  0.84500  0.77220  0.06860  1.0000 -0.0637525512
C   C40       1.0  0.18580  0.70340  0.86430  1.0000 0.6192721444
C   C41       1.0  0.24670  0.75460  0.07300  1.0000 -0.0637525512
C   C42       1.0  0.12910  0.92640  0.12740  1.0000 0.6016172263
C   C43       1.0  0.97500  0.98910  0.04640  1.0000 -0.1904332136
C   C44       1.0  0.32800  0.76170  0.06630  1.0000 0.1103304811
C   C45       1.0  0.78680  0.75160  0.08860  1.0000 -0.177264331
C   C46       1.0  0.08350  0.97420  0.00880  1.0000 0.119520427
C   C47       1.0  0.67360  0.73430  0.02780  1.0000 0.119520427
C   C48       1.0  0.43390  0.96670  0.43810  1.0000 -0.5806218517
C   C49       1.0  0.36180  0.92940  0.36730  1.0000 0.7057402598
C   C50       1.0  0.61360  0.73790  0.94420  1.0000 -0.0637525512
C   C51       1.0  0.12070  0.71400  0.94130  1.0000 0.1103304811
C   C52       1.0  0.14490  0.73000  0.01060  1.0000 -0.1904332136
C   C53       1.0  0.30340  0.74600  0.99690  1.0000 -0.1993620527
C   C54       1.0  0.55010  0.67320  0.01900  1.0000 0.1103304811
C   C55       1.0  0.78430  0.77590  0.98480  1.0000 0.1272115489
C   C56       1.0  0.67100  0.75870  0.92250  1.0000 -0.1993620527
C   C57       1.0  0.25030  0.89200  0.00130  1.0000 0.0724499951
C   C58       1.0  0.95310  0.65690  0.88050  1.0000 0.081304727
C   C59       1.0  0.47950  0.82280  0.13050  1.0000 0.0901243257
C   C60       1.0  0.23330  0.97030  0.00560  1.0000 -0.040415655
C   C61       1.0  0.84090  0.68160  0.75770  1.0000 0.1495521484
C   C62       1.0  0.58680  0.69360  0.12370  1.0000 0.1272115489
C   C63       1.0  0.60450  0.79310  0.25310  1.0000 0.1763347219
C   C64       1.0  0.91340  0.83280  0.98960  1.0000 0.119520427
C   C65       1.0  0.89220  0.80290  0.89640  1.0000 0.1272115489
C   C66       1.0  0.46620  0.92730  0.22060  1.0000 0.4869171994
C   C67       1.0  0.49300  0.78160  0.37480  1.0000 0.5869281011
C   C68       1.0  0.06210  0.53750  0.55940  1.0000 -0.0762552602
C   C69       1.0  0.26470  0.72360  0.64160  1.0000 0.6104777771
C   C70       1.0  0.20030  0.77830  0.43510  1.0000 -0.040415655
C   C71       1.0  0.97030  0.71020  0.63680  1.0000 0.6016172263
C   C72       1.0  0.84500  0.72780  0.56860  1.0000 -0.0654507634
C   C73       1.0  0.18580  0.79660  0.36430  1.0000 0.6192721444
C   C74       1.0  0.24670  0.74540  0.57300  1.0000 -0.0637525512
C   C75       1.0  0.12910  0.57360  0.62740  1.0000 0.6016172263
C   C76       1.0  0.97500  0.51090  0.54640  1.0000 -0.1904332136
C   C77       1.0  0.32800  0.73830  0.56630  1.0000 0.1103304811
C   C78       1.0  0.78680  0.74840  0.58860  1.0000 -0.177264331
C   C79       1.0  0.08350  0.52580  0.50880  1.0000 0.119520427
C   C80       1.0  0.67360  0.76570  0.52780  1.0000 0.119520427
C   C81       1.0  0.43390  0.53330  0.93810  1.0000 -0.5806218517
C   C82       1.0  0.36180  0.57060  0.86730  1.0000 0.7057402598
C   C83       1.0  0.61360  0.76210  0.44420  1.0000 -0.0637525512
C   C84       1.0  0.12070  0.78600  0.44130  1.0000 0.1103304811
C   C85       1.0  0.14490  0.77000  0.51060  1.0000 -0.1904332136
C   C86       1.0  0.30340  0.75400  0.49690  1.0000 -0.1993620527
C   C87       1.0  0.55010  0.82680  0.51900  1.0000 0.1103304811
C   C88       1.0  0.78430  0.72410  0.48480  1.0000 0.1272115489
C   C89       1.0  0.67100  0.74130  0.42250  1.0000 -0.1993620527
C   C90       1.0  0.25030  0.60800  0.50130  1.0000 0.0724499951
C   C91       1.0  0.95310  0.84310  0.38050  1.0000 0.081304727
C   C92       1.0  0.47950  0.67720  0.63050  1.0000 0.0901243257
C   C93       1.0  0.23330  0.52970  0.50560  1.0000 -0.040415655
C   C94       1.0  0.84090  0.81840  0.25770  1.0000 0.1495521484
C   C95       1.0  0.58680  0.80640  0.62370  1.0000 0.1272115489
C   C96       1.0  0.60450  0.70690  0.75310  1.0000 0.1763347219
C   C97       1.0  0.91340  0.66720  0.48960  1.0000 0.119520427
C   C98       1.0  0.89220  0.69710  0.39640  1.0000 0.1272115489
C   C99       1.0  0.46620  0.57270  0.72060  1.0000 0.4869171994
C   C100      1.0  0.50700  0.28160  0.12520  1.0000 0.5869281011
C   C101      1.0  0.93790  0.03750  0.94060  1.0000 -0.0762552602
C   C102      1.0  0.73530  0.22360  0.85840  1.0000 0.6104777771
C   C103      1.0  0.79970  0.27830  0.06490  1.0000 -0.040415655
C   C104      1.0  0.02970  0.21020  0.86320  1.0000 0.6016172263
C   C105      1.0  0.15500  0.22780  0.93140  1.0000 -0.0637525512
C   C106      1.0  0.81420  0.29660  0.13570  1.0000 0.6192721444
C   C107      1.0  0.75330  0.24540  0.92700  1.0000 -0.0637525512
C   C108      1.0  0.87090  0.07360  0.87260  1.0000 0.6016172263
C   C109      1.0  0.02500  0.01090  0.95360  1.0000 -0.1904332136
C   C110      1.0  0.67200  0.23830  0.93370  1.0000 0.1103304811
C   C111      1.0  0.21320  0.24840  0.91140  1.0000 -0.177264331
C   C112      1.0  0.91650  0.02580  0.99120  1.0000 0.119520427
C   C113      1.0  0.32640  0.26570  0.97220  1.0000 0.119520427
C   C114      1.0  0.56610  0.03330  0.56190  1.0000 -0.5806218517
C   C115      1.0  0.63820  0.07060  0.63270  1.0000 0.7057402598
C   C116      1.0  0.38640  0.26210  0.05580  1.0000 -0.0637525512
C   C117      1.0  0.87930  0.28600  0.05870  1.0000 0.1103304811
C   C118      1.0  0.85510  0.27000  0.98940  1.0000 -0.1904332136
C   C119      1.0  0.69660  0.25400  0.00310  1.0000 -0.1993620527
C   C120      1.0  0.44990  0.32680  0.98100  1.0000 0.1042355913
C   C121      1.0  0.21570  0.22410  0.01520  1.0000 0.1272115489
C   C122      1.0  0.32900  0.24130  0.07750  1.0000 -0.1993620527
C   C123      1.0  0.74970  0.10800  0.99870  1.0000 0.0724499951
C   C124      1.0  0.04690  0.34310  0.11950  1.0000 0.081304727
C   C125      1.0  0.52050  0.17720  0.86950  1.0000 0.0901243257
C   C126      1.0  0.76670  0.02970  0.99440  1.0000 -0.040415655
C   C127      1.0  0.15910  0.31840  0.24230  1.0000 0.1495521484
C   C128      1.0  0.41320  0.30640  0.87630  1.0000 0.1272115489
C   C129      1.0  0.39550  0.20690  0.74690  1.0000 0.1763347219
C   C130      1.0  0.08660  0.16720  0.01040  1.0000 0.119520427
C   C131      1.0  0.10780  0.19710  0.10360  1.0000 0.1272115489
C   C132      1.0  0.53380  0.07270  0.77940  1.0000 0.4869171994
N   N1        1.0  0.99100  0.19180  0.62370  1.0000 0.119520427
N   N2        1.0  0.38050  0.21030  0.44920  1.0000 0.1272115489
N   N3        1.0  0.83530  0.44780  0.48840  1.0000 0.1495521484
N   N4        1.0  0.56110  0.28460  0.36790  1.0000 0.1399243119
N   N5        1.0  0.15600  0.29590  0.53860  1.0000 0.1103304811
N   N6        1.0  0.06660  0.20680  0.70440  1.0000 -0.2167219949
N   N7        1.0  0.41240  0.33080  0.29020  1.0000 -0.3139561099
N   N8        1.0  0.35630  0.22570  0.38040  1.0000 -0.2883120833
N   N9        1.0  0.15550  0.14880  0.69480  1.0000 -0.3395549563
N   N10       1.0  0.47340  0.15860  0.43640  1.0000 -0.3395549563
N   N11       1.0  0.17130  0.27300  0.60060  1.0000 -0.2883120833
N   N12       1.0  0.05610  0.33970  0.55010  1.0000 -0.3168717307
N   N13       1.0  0.48360  0.26380  0.29050  1.0000 -0.2167219949
N   N14       1.0  0.82290  0.40080  0.49080  1.0000 -0.1610968095
N   N15       1.0  0.71830  0.43420  0.49980  1.0000 -0.0876608716
N   N16       1.0  0.00900  0.69180  0.87630  1.0000 0.119520427
N   N17       1.0  0.61950  0.71030  0.05080  1.0000 0.1272115489
N   N18       1.0  0.16470  0.94780  0.01160  1.0000 0.1495521484
N   N19       1.0  0.43890  0.78460  0.13210  1.0000 0.1399243119
N   N20       1.0  0.84400  0.79590  0.96140  1.0000 0.1103304811
N   N21       1.0  0.93340  0.70680  0.79560  1.0000 -0.2167219949
N   N22       1.0  0.58760  0.83080  0.20980  1.0000 -0.3139561099
N   N23       1.0  0.64370  0.72570  0.11960  1.0000 -0.2883120833
N   N24       1.0  0.84450  0.64880  0.80520  1.0000 -0.3395549563
N   N25       1.0  0.52660  0.65860  0.06360  1.0000 -0.3395549563
N   N26       1.0  0.82870  0.77300  0.89940  1.0000 -0.2883120833
N   N27       1.0  0.94390  0.83970  0.94990  1.0000 -0.3168717307
N   N28       1.0  0.51640  0.76380  0.20950  1.0000 -0.2167219949
N   N29       1.0  0.17710  0.90080  0.00920  1.0000 -0.1610968095
N   N30       1.0  0.28170  0.93420  0.00020  1.0000 -0.0876608716
N   N31       1.0  0.00900  0.80820  0.37630  1.0000 0.119520427
N   N32       1.0  0.61950  0.78970  0.55080  1.0000 0.1272115489
N   N33       1.0  0.16470  0.55220  0.51160  1.0000 0.1495521484
N   N34       1.0  0.43890  0.71540  0.63210  1.0000 0.1399243119
N   N35       1.0  0.84400  0.70410  0.46140  1.0000 0.1103304811
N   N36       1.0  0.93340  0.79320  0.29560  1.0000 -0.2167219949
N   N37       1.0  0.58760  0.66920  0.70980  1.0000 -0.3139561099
N   N38       1.0  0.64370  0.77430  0.61960  1.0000 -0.2883120833
N   N39       1.0  0.84450  0.85120  0.30520  1.0000 -0.3395549563
N   N40       1.0  0.52660  0.84140  0.56360  1.0000 -0.3395549563
N   N41       1.0  0.82870  0.72700  0.39940  1.0000 -0.2883120833
N   N42       1.0  0.94390  0.66030  0.44990  1.0000 -0.3168717307
N   N43       1.0  0.51640  0.73620  0.70950  1.0000 -0.2167219949
N   N44       1.0  0.17710  0.59920  0.50920  1.0000 -0.1610968095
N   N45       1.0  0.28170  0.56580  0.50020  1.0000 -0.0876608716
N   N46       1.0  0.99100  0.30820  0.12370  1.0000 0.119520427
N   N47       1.0  0.38050  0.28970  0.94920  1.0000 0.1272115489
N   N48       1.0  0.83530  0.05220  0.98840  1.0000 0.1495521484
N   N49       1.0  0.56110  0.21540  0.86790  1.0000 0.1399243119
N   N50       1.0  0.15600  0.20410  0.03860  1.0000 0.1103304811
N   N51       1.0  0.06660  0.29320  0.20440  1.0000 -0.2167219949
N   N52       1.0  0.41240  0.16920  0.79020  1.0000 -0.3139561099
N   N53       1.0  0.35630  0.27430  0.88040  1.0000 -0.2883120833
N   N54       1.0  0.15550  0.35120  0.19480  1.0000 -0.3395549563
N   N55       1.0  0.47340  0.34140  0.93640  1.0000 -0.3395549563
N   N56       1.0  0.17130  0.22700  0.10060  1.0000 -0.2883120833
N   N57       1.0  0.05610  0.16030  0.05010  1.0000 -0.3168717307
N   N58       1.0  0.48360  0.23620  0.79050  1.0000 -0.2167219949
N   N59       1.0  0.82290  0.09920  0.99080  1.0000 -0.1610968095
N   N60       1.0  0.71830  0.06580  0.99980  1.0000 -0.0876608716
O   O1        1.0  0.76400  0.33410  0.24690  1.0000 -0.9413810653
O   O2        1.0  0.84530  0.16070  0.65920  1.0000 -0.5384807122
O   O3        1.0  0.01600  0.33090  0.33430  1.0000 -0.5604627413
O   O4        1.0  0.76930  0.41500  0.33840  1.0000 -0.5533230958
O   O5        1.0  0.92510  0.41010  0.35250  1.0000 -0.5806218517
O   O6        1.0  0.70190  0.32010  0.34070  1.0000 -0.5604627413
O   O7        1.0  0.51730  0.18230  0.66100  1.0000 -0.5055636001
O   O8        1.0  0.74180  0.42180  0.16550  1.0000 -0.5905392823
O   O9        1.0  0.79140  0.23430  0.66410  1.0000 -0.5604627413
O   O10       1.0  0.59280  0.24220  0.64470  1.0000 -0.5533230958
O   O11       1.0  0.95180  0.26200  0.34140  1.0000 -0.5200730843
O   O12       1.0  0.58890  0.41030  0.15310  1.0000 -0.5905392823
O   O13       1.0  0.75840  0.25080  0.32570  1.0000 -0.5384807122
O   O14       1.0  0.52960  0.39180  0.24450  1.0000 -0.4619467092
O   O15       1.0  0.44430  0.44040  0.27080  1.0000 -0.487545794
O   O16       1.0  0.23600  0.83410  0.25310  1.0000 -0.9413810653
O   O17       1.0  0.15470  0.66070  0.84080  1.0000 -0.5384807122
O   O18       1.0  0.98400  0.83090  0.16570  1.0000 -0.5604627413
O   O19       1.0  0.23070  0.91500  0.16160  1.0000 -0.5533230958
O   O20       1.0  0.07490  0.91010  0.14750  1.0000 -0.5806218517
O   O21       1.0  0.29810  0.82010  0.15930  1.0000 -0.5604627413
O   O22       1.0  0.48270  0.68230  0.83900  1.0000 -0.5055636001
O   O23       1.0  0.25820  0.92180  0.33450  1.0000 -0.5905392823
O   O24       1.0  0.20860  0.73430  0.83590  1.0000 -0.5604627413
O   O25       1.0  0.40720  0.74220  0.85530  1.0000 -0.5533230958
O   O26       1.0  0.04820  0.76200  0.15860  1.0000 -0.5200730843
O   O27       1.0  0.41110  0.91030  0.34690  1.0000 -0.5905392823
O   O28       1.0  0.24160  0.75080  0.17430  1.0000 -0.5384807122
O   O29       1.0  0.47040  0.89180  0.25550  1.0000 -0.4619467092
O   O30       1.0  0.55570  0.94040  0.22920  1.0000 -0.487545794
O   O31       1.0  0.23600  0.66590  0.75310  1.0000 -0.9413810653
O   O32       1.0  0.15470  0.83930  0.34080  1.0000 -0.5384807122
O   O33       1.0  0.98400  0.66910  0.66570  1.0000 -0.5604627413
O   O34       1.0  0.23070  0.58500  0.66160  1.0000 -0.5533230958
O   O35       1.0  0.07490  0.58990  0.64750  1.0000 -0.5806218517
O   O36       1.0  0.29810  0.67990  0.65930  1.0000 -0.5604627413
O   O37       1.0  0.48270  0.81770  0.33900  1.0000 -0.5055636001
O   O38       1.0  0.25820  0.57820  0.83450  1.0000 -0.5905392823
O   O39       1.0  0.20860  0.76570  0.33590  1.0000 -0.5604627413
O   O40       1.0  0.40720  0.75780  0.35530  1.0000 -0.5533230958
O   O41       1.0  0.04820  0.73800  0.65860  1.0000 -0.5200730843
O   O42       1.0  0.41110  0.58970  0.84690  1.0000 -0.5905392823
O   O43       1.0  0.24160  0.74920  0.67430  1.0000 -0.5384807122
O   O44       1.0  0.47040  0.60820  0.75550  1.0000 -0.4619467092
O   O45       1.0  0.55570  0.55960  0.72920  1.0000 -0.487545794
O   O46       1.0  0.76400  0.16590  0.74690  1.0000 -0.9413810653
O   O47       1.0  0.84530  0.33930  0.15920  1.0000 -0.5384807122
O   O48       1.0  0.01600  0.16910  0.83430  1.0000 -0.5604627413
O   O49       1.0  0.76930  0.08500  0.83840  1.0000 -0.5533230958
O   O50       1.0  0.92510  0.08990  0.85250  1.0000 -0.5806218517
O   O51       1.0  0.70190  0.17990  0.84070  1.0000 -0.5604627413
O   O52       1.0  0.51730  0.31770  0.16100  1.0000 -0.5055636001
O   O53       1.0  0.74180  0.07820  0.66550  1.0000 -0.5905392823
O   O54       1.0  0.79140  0.26570  0.16410  1.0000 -0.5604627413
O   O55       1.0  0.59280  0.25780  0.14470  1.0000 -0.5533230958
O   O56       1.0  0.95180  0.23800  0.84140  1.0000 -0.5200730843
O   O57       1.0  0.58890  0.08970  0.65310  1.0000 -0.5905392823
O   O58       1.0  0.75840  0.24920  0.82570  1.0000 -0.5384807122
O   O59       1.0  0.52960  0.10820  0.74450  1.0000 -0.4619467092
O   O60       1.0  0.44430  0.05960  0.77080  1.0000 -0.487545794
