# DDEC6 charges by PACMAN v1.1 (https://github.com/mtap-research/PACMAN-charge/)
data_2020[Cu][kgm]2[ASR]3
_chemical_formula_sum              "Cu6 H42 C84 N6 O24"
_cell_length_a       23.515
_cell_length_b       23.515
_cell_length_c       11.052
_cell_angle_alpha    90
_cell_angle_beta     90
_cell_angle_gamma    120

_symmetry_space_group_name_H-M    "P 1"
_symmetry_Int_Tables_number       1

loop_
  _symmetry_equiv_pos_as_xyz
  'x, y, z'

loop_
  _atom_site_type_symbol
  _atom_site_label
  _atom_site_symmetry_multiplicity
  _atom_site_fract_x
  _atom_site_fract_y
  _atom_site_fract_z
  _atom_site_occupancy
  _atom_site_charge
Cu  Cu1       1.0  0.52640  0.47360  0.56787  1.0000 0.8519382305
Cu  Cu2       1.0  0.94721  0.47360  0.56787  1.0000 0.8519382305
Cu  Cu3       1.0  0.52640  0.05279  0.56787  1.0000 0.8519382305
Cu  Cu4       1.0  0.05279  0.52639  0.43213  1.0000 0.8519382305
Cu  Cu5       1.0  0.47361  0.52639  0.43213  1.0000 0.8519382305
Cu  Cu6       1.0  0.47361  0.94721  0.43213  1.0000 0.8519382305
H   H1        1.0  0.37771  0.37096  0.16810  1.0000 0.1272586462
H   H2        1.0  0.33177  0.28152  0.04780  1.0000 0.1205595088
H   H3        1.0  0.45652  0.28930  0.38033  1.0000 0.1443946041
H   H4        1.0  0.99325  0.62229  0.16810  1.0000 0.1272586462
H   H5        1.0  0.94975  0.66823  0.04780  1.0000 0.1205595088
H   H6        1.0  0.83278  0.54348  0.38033  1.0000 0.1443946041
H   H7        1.0  0.62904  0.00675  0.16810  1.0000 0.1272586462
H   H8        1.0  0.71848  0.05025  0.04780  1.0000 0.1205595088
H   H9        1.0  0.71070  0.16722  0.38033  1.0000 0.1443946041
H   H10       1.0  0.00675  0.62904  0.83190  1.0000 0.1272586462
H   H11       1.0  0.05025  0.71848  0.95220  1.0000 0.1205595088
H   H12       1.0  0.16722  0.71070  0.61967  1.0000 0.1443946041
H   H13       1.0  0.37096  0.37771  0.83190  1.0000 0.1272586462
H   H14       1.0  0.28152  0.33177  0.95220  1.0000 0.1205595088
H   H15       1.0  0.28930  0.45652  0.61967  1.0000 0.1443946041
H   H16       1.0  0.62229  0.99325  0.83190  1.0000 0.1272586462
H   H17       1.0  0.66823  0.94975  0.95220  1.0000 0.1205595088
H   H18       1.0  0.54348  0.83278  0.61967  1.0000 0.1443946041
H   H19       1.0  0.62229  0.62904  0.83190  1.0000 0.1272586462
H   H20       1.0  0.66823  0.71848  0.95220  1.0000 0.1205595088
H   H21       1.0  0.54348  0.71070  0.61967  1.0000 0.1443946041
H   H22       1.0  0.00675  0.37771  0.83190  1.0000 0.1272586462
H   H23       1.0  0.05025  0.33177  0.95220  1.0000 0.1205595088
H   H24       1.0  0.16722  0.45652  0.61967  1.0000 0.1443946041
H   H25       1.0  0.37096  0.99325  0.83190  1.0000 0.1272586462
H   H26       1.0  0.28152  0.94975  0.95220  1.0000 0.1205595088
H   H27       1.0  0.28930  0.83278  0.61967  1.0000 0.1443946041
H   H28       1.0  0.99325  0.37096  0.16810  1.0000 0.1272586462
H   H29       1.0  0.94975  0.28152  0.04780  1.0000 0.1205595088
H   H30       1.0  0.83278  0.28930  0.38033  1.0000 0.1443946041
H   H31       1.0  0.62904  0.62229  0.16810  1.0000 0.1272586462
H   H32       1.0  0.71848  0.66823  0.04780  1.0000 0.1205595088
H   H33       1.0  0.71070  0.54348  0.38033  1.0000 0.1443946041
H   H34       1.0  0.37771  0.00675  0.16810  1.0000 0.1272586462
H   H35       1.0  0.33177  0.05025  0.04780  1.0000 0.1205595088
H   H36       1.0  0.45652  0.16722  0.38033  1.0000 0.1443946041
H   H37       1.0  0.32224  0.16112  0.01382  1.0000 0.2814218528
H   H38       1.0  0.83888  0.67776  0.01382  1.0000 0.2814218528
H   H39       1.0  0.83888  0.16112  0.01382  1.0000 0.2814218528
H   H40       1.0  0.16112  0.83888  0.98618  1.0000 0.2814218528
H   H41       1.0  0.16112  0.32224  0.98618  1.0000 0.2814218528
H   H42       1.0  0.67776  0.83888  0.98618  1.0000 0.2814218528
C   C1        1.0  0.44975  0.39832  0.36650  1.0000 0.5733697441
C   C2        1.0  0.42230  0.34006  0.28740  1.0000 -0.0435412493
C   C3        1.0  0.38440  0.33600  0.18530  1.0000 -0.0979165128
C   C4        1.0  0.35800  0.28370  0.11270  1.0000 -0.1903426645
C   C5        1.0  0.37020  0.23280  0.13510  1.0000 0.1545059931
C   C6        1.0  0.40520  0.23356  0.23910  1.0000 -0.0306254164
C   C7        1.0  0.43200  0.28773  0.31310  1.0000 -0.1266954626
C   C8        1.0  0.94857  0.55025  0.36650  1.0000 0.5733697441
C   C9        1.0  0.91776  0.57770  0.28740  1.0000 -0.0435412493
C   C10       1.0  0.95160  0.61560  0.18530  1.0000 -0.0979165128
C   C11       1.0  0.92570  0.64200  0.11270  1.0000 -0.1903426645
C   C12       1.0  0.86260  0.62980  0.13510  1.0000 0.1545059931
C   C13       1.0  0.82836  0.59480  0.23910  1.0000 -0.0306254164
C   C14       1.0  0.85573  0.56800  0.31310  1.0000 -0.1266954626
C   C15       1.0  0.60168  0.05143  0.36650  1.0000 0.5733697441
C   C16       1.0  0.65994  0.08224  0.28740  1.0000 -0.0435412493
C   C17       1.0  0.66400  0.04840  0.18530  1.0000 -0.0979165128
C   C18       1.0  0.71630  0.07430  0.11270  1.0000 -0.1903426645
C   C19       1.0  0.76720  0.13740  0.13510  1.0000 0.1545059931
C   C20       1.0  0.76644  0.17164  0.23910  1.0000 -0.0306254164
C   C21       1.0  0.71227  0.14427  0.31310  1.0000 -0.1266954626
C   C22       1.0  0.05143  0.60168  0.63350  1.0000 0.5733697441
C   C23       1.0  0.08224  0.65994  0.71260  1.0000 -0.0435412493
C   C24       1.0  0.04840  0.66400  0.81470  1.0000 -0.0979165128
C   C25       1.0  0.07430  0.71630  0.88730  1.0000 -0.1903426645
C   C26       1.0  0.13740  0.76720  0.86490  1.0000 0.1545059931
C   C27       1.0  0.17164  0.76644  0.76090  1.0000 -0.0306254164
C   C28       1.0  0.14427  0.71227  0.68690  1.0000 -0.1266954626
C   C29       1.0  0.39832  0.44975  0.63350  1.0000 0.5733697441
C   C30       1.0  0.34006  0.42230  0.71260  1.0000 -0.0435412493
C   C31       1.0  0.33600  0.38440  0.81470  1.0000 -0.0979165128
C   C32       1.0  0.28370  0.35800  0.88730  1.0000 -0.1903426645
C   C33       1.0  0.23280  0.37020  0.86490  1.0000 0.1545059931
C   C34       1.0  0.23356  0.40520  0.76090  1.0000 -0.0306254164
C   C35       1.0  0.28773  0.43200  0.68690  1.0000 -0.1266954626
C   C36       1.0  0.55025  0.94857  0.63350  1.0000 0.5733697441
C   C37       1.0  0.57770  0.91776  0.71260  1.0000 -0.0435412493
C   C38       1.0  0.61560  0.95160  0.81470  1.0000 -0.0979165128
C   C39       1.0  0.64200  0.92570  0.88730  1.0000 -0.1903426645
C   C40       1.0  0.62980  0.86260  0.86490  1.0000 0.1545059931
C   C41       1.0  0.59480  0.82836  0.76090  1.0000 -0.0306254164
C   C42       1.0  0.56800  0.85573  0.68690  1.0000 -0.1266954626
C   C43       1.0  0.55025  0.60168  0.63350  1.0000 0.5733697441
C   C44       1.0  0.57770  0.65994  0.71260  1.0000 -0.0435412493
C   C45       1.0  0.61560  0.66400  0.81470  1.0000 -0.0979165128
C   C46       1.0  0.64200  0.71630  0.88730  1.0000 -0.1903426645
C   C47       1.0  0.62980  0.76720  0.86490  1.0000 0.1545059931
C   C48       1.0  0.59480  0.76644  0.76090  1.0000 -0.0306254164
C   C49       1.0  0.56800  0.71227  0.68690  1.0000 -0.1266954626
C   C50       1.0  0.05143  0.44975  0.63350  1.0000 0.5733697441
C   C51       1.0  0.08224  0.42230  0.71260  1.0000 -0.0435412493
C   C52       1.0  0.04840  0.38440  0.81470  1.0000 -0.0979165128
C   C53       1.0  0.07430  0.35800  0.88730  1.0000 -0.1903426645
C   C54       1.0  0.13740  0.37020  0.86490  1.0000 0.1545059931
C   C55       1.0  0.17164  0.40520  0.76090  1.0000 -0.0306254164
C   C56       1.0  0.14427  0.43200  0.68690  1.0000 -0.1266954626
C   C57       1.0  0.39832  0.94857  0.63350  1.0000 0.5733697441
C   C58       1.0  0.34006  0.91776  0.71260  1.0000 -0.0435412493
C   C59       1.0  0.33600  0.95160  0.81470  1.0000 -0.0979165128
C   C60       1.0  0.28370  0.92570  0.88730  1.0000 -0.1903426645
C   C61       1.0  0.23280  0.86260  0.86490  1.0000 0.1545059931
C   C62       1.0  0.23356  0.82836  0.76090  1.0000 -0.0306254164
C   C63       1.0  0.28773  0.85573  0.68690  1.0000 -0.1266954626
C   C64       1.0  0.94857  0.39832  0.36650  1.0000 0.5733697441
C   C65       1.0  0.91776  0.34006  0.28740  1.0000 -0.0435412493
C   C66       1.0  0.95160  0.33600  0.18530  1.0000 -0.0979165128
C   C67       1.0  0.92570  0.28370  0.11270  1.0000 -0.1903426645
C   C68       1.0  0.86260  0.23280  0.13510  1.0000 0.1545059931
C   C69       1.0  0.82836  0.23356  0.23910  1.0000 -0.0306254164
C   C70       1.0  0.85573  0.28773  0.31310  1.0000 -0.1266954626
C   C71       1.0  0.60168  0.55025  0.36650  1.0000 0.5733697441
C   C72       1.0  0.65994  0.57770  0.28740  1.0000 -0.0435412493
C   C73       1.0  0.66400  0.61560  0.18530  1.0000 -0.0979165128
C   C74       1.0  0.71630  0.64200  0.11270  1.0000 -0.1903426645
C   C75       1.0  0.76720  0.62980  0.13510  1.0000 0.1545059931
C   C76       1.0  0.76644  0.59480  0.23910  1.0000 -0.0306254164
C   C77       1.0  0.71227  0.56800  0.31310  1.0000 -0.1266954626
C   C78       1.0  0.44975  0.05143  0.36650  1.0000 0.5733697441
C   C79       1.0  0.42230  0.08224  0.28740  1.0000 -0.0435412493
C   C80       1.0  0.38440  0.04840  0.18530  1.0000 -0.0979165128
C   C81       1.0  0.35800  0.07430  0.11270  1.0000 -0.1903426645
C   C82       1.0  0.37020  0.13740  0.13510  1.0000 0.1545059931
C   C83       1.0  0.40520  0.17164  0.23910  1.0000 -0.0306254164
C   C84       1.0  0.43200  0.14427  0.31310  1.0000 -0.1266954626
N   N1        1.0  0.34710  0.17355  0.07670  1.0000 -0.3033526315
N   N2        1.0  0.82645  0.65290  0.07670  1.0000 -0.3033526315
N   N3        1.0  0.82645  0.17355  0.07670  1.0000 -0.3033526315
N   N4        1.0  0.17355  0.82645  0.92330  1.0000 -0.3033526315
N   N5        1.0  0.17355  0.34710  0.92330  1.0000 -0.3033526315
N   N6        1.0  0.65290  0.82645  0.92330  1.0000 -0.3033526315
O   O1        1.0  0.48294  0.39895  0.45650  1.0000 -0.5197765801
O   O2        1.0  0.43923  0.44418  0.33930  1.0000 -0.5261943363
O   O3        1.0  0.91601  0.51706  0.45650  1.0000 -0.5197765801
O   O4        1.0  0.00495  0.56077  0.33930  1.0000 -0.5261943363
O   O5        1.0  0.60105  0.08399  0.45650  1.0000 -0.5197765801
O   O6        1.0  0.55582  0.99505  0.33930  1.0000 -0.5261943363
O   O7        1.0  0.08399  0.60105  0.54350  1.0000 -0.5197765801
O   O8        1.0  0.99505  0.55582  0.66070  1.0000 -0.5261943363
O   O9        1.0  0.39895  0.48294  0.54350  1.0000 -0.5197765801
O   O10       1.0  0.44418  0.43923  0.66070  1.0000 -0.5261943363
O   O11       1.0  0.51706  0.91601  0.54350  1.0000 -0.5197765801
O   O12       1.0  0.56077  0.00495  0.66070  1.0000 -0.5261943363
O   O13       1.0  0.51706  0.60105  0.54350  1.0000 -0.5197765801
O   O14       1.0  0.56077  0.55582  0.66070  1.0000 -0.5261943363
O   O15       1.0  0.08399  0.48294  0.54350  1.0000 -0.5197765801
O   O16       1.0  0.99505  0.43923  0.66070  1.0000 -0.5261943363
O   O17       1.0  0.39895  0.91601  0.54350  1.0000 -0.5197765801
O   O18       1.0  0.44418  0.00495  0.66070  1.0000 -0.5261943363
O   O19       1.0  0.91601  0.39895  0.45650  1.0000 -0.5197765801
O   O20       1.0  0.00495  0.44418  0.33930  1.0000 -0.5261943363
O   O21       1.0  0.60105  0.51706  0.45650  1.0000 -0.5197765801
O   O22       1.0  0.55582  0.56077  0.33930  1.0000 -0.5261943363
O   O23       1.0  0.48294  0.08399  0.45650  1.0000 -0.5197765801
O   O24       1.0  0.43923  0.99505  0.33930  1.0000 -0.5261943363
