# DDEC6 charges by PACMAN v1.1 (https://github.com/mtap-research/PACMAN-charge/)
data_2020[DyCu][nan]3[ASR]1
_chemical_formula_sum              "Dy8 Cu16 H112 C168 I12 N28 O56"
_cell_length_a       9.2269
_cell_length_b       22.3621
_cell_length_c       30.5808
_cell_angle_alpha    90
_cell_angle_beta     90
_cell_angle_gamma    90

_symmetry_space_group_name_H-M    "P 1"
_symmetry_Int_Tables_number       1

loop_
  _symmetry_equiv_pos_as_xyz
  'x, y, z'

loop_
  _atom_site_type_symbol
  _atom_site_label
  _atom_site_symmetry_multiplicity
  _atom_site_fract_x
  _atom_site_fract_y
  _atom_site_fract_z
  _atom_site_occupancy
  _atom_site_charge
Dy  Dy1       1.0  0.00933  0.45883  0.51802  1.0000 2.161722298
Dy  Dy2       1.0  0.54248  0.43146  0.51202  1.0000 2.161722298
Dy  Dy3       1.0  0.49067  0.54117  0.01802  1.0000 2.161722298
Dy  Dy4       1.0  0.95752  0.56854  0.01202  1.0000 2.161722298
Dy  Dy5       1.0  0.99067  0.95883  0.98198  1.0000 2.161722298
Dy  Dy6       1.0  0.45752  0.93146  0.98798  1.0000 2.161722298
Dy  Dy7       1.0  0.50933  0.04117  0.48198  1.0000 2.161722298
Dy  Dy8       1.0  0.04248  0.06854  0.48798  1.0000 2.161722298
Cu  Cu1       1.0  0.49197  0.64035  0.74475  1.0000 0.1973853924
Cu  Cu2       1.0  0.27479  0.76202  0.67725  1.0000 0.1889524062
Cu  Cu3       1.0  0.94134  0.87591  0.72526  1.0000 0.1889524062
Cu  Cu4       1.0  0.25776  0.71538  0.75543  1.0000 0.1524588123
Cu  Cu5       1.0  0.00803  0.35965  0.24475  1.0000 0.1973853924
Cu  Cu6       1.0  0.22521  0.23798  0.17725  1.0000 0.1889524062
Cu  Cu7       1.0  0.55866  0.12409  0.22526  1.0000 0.1889524062
Cu  Cu8       1.0  0.24224  0.28462  0.25543  1.0000 0.1524588123
Cu  Cu9       1.0  0.50803  0.14035  0.75525  1.0000 0.1973853924
Cu  Cu10      1.0  0.72521  0.26202  0.82275  1.0000 0.1889524062
Cu  Cu11      1.0  0.05866  0.37591  0.77474  1.0000 0.1889524062
Cu  Cu12      1.0  0.74224  0.21538  0.74457  1.0000 0.1524588123
Cu  Cu13      1.0  0.99197  0.85965  0.25525  1.0000 0.1973853924
Cu  Cu14      1.0  0.77479  0.73798  0.32275  1.0000 0.1889524062
Cu  Cu15      1.0  0.44134  0.62409  0.27474  1.0000 0.1889524062
Cu  Cu16      1.0  0.75776  0.78462  0.24457  1.0000 0.1524588123
H   H1        1.0  0.46615  0.59025  0.90162  1.0000 0.1394812398
H   H2        1.0  0.39095  0.60526  0.83108  1.0000 0.0993777522
H   H3        1.0  0.42494  0.82573  0.88833  1.0000 0.1394812398
H   H4        1.0  0.95780  0.96157  0.79780  1.0000 0.1073657503
H   H5        1.0  0.85460  0.65257  0.86717  1.0000 0.1394812398
H   H6        1.0  0.67752  0.81648  0.85954  1.0000 0.1394812398
H   H7        1.0  0.03092  0.74479  0.82100  1.0000 0.0918740586
H   H8        1.0  0.06540  0.92473  0.58738  1.0000 0.1302358762
H   H9        1.0  0.44436  0.77498  0.82251  1.0000 0.0918740586
H   H10       1.0  0.78866  0.62697  0.70319  1.0000 0.1073657503
H   H11       1.0  0.87618  0.97512  0.86777  1.0000 0.1394812398
H   H12       1.0  0.89889  0.57479  0.64825  1.0000 0.1302358762
H   H13       1.0  0.49649  0.70022  0.61899  1.0000 0.0918740586
H   H14       1.0  0.42244  0.54305  0.68127  1.0000 0.0993777522
H   H15       1.0  0.72845  0.86878  0.65051  1.0000 0.0993777522
H   H16       1.0  0.46858  0.87907  0.55230  1.0000 0.1394812398
H   H17       1.0  0.51090  0.62270  0.56979  1.0000 0.1394812398
H   H18       1.0  0.76850  0.80602  0.78914  1.0000 0.0918740586
H   H19       1.0  0.52631  0.49104  0.62361  1.0000 0.1394812398
H   H20       1.0  0.47428  0.81501  0.61136  1.0000 0.0993777522
H   H21       1.0  0.76812  0.66584  0.79846  1.0000 0.0993777522
H   H22       1.0  0.99886  0.79624  0.88593  1.0000 0.1302358762
H   H23       1.0  0.07667  0.85646  0.64237  1.0000 0.0918740586
H   H24       1.0  0.99301  0.99490  0.68818  1.0000 0.1073657503
H   H25       1.0  0.09008  0.58922  0.59204  1.0000 0.1394812398
H   H26       1.0  0.09357  0.66375  0.64388  1.0000 0.0993777522
H   H27       1.0  0.66348  0.92480  0.58990  1.0000 0.1394812398
H   H28       1.0  0.94104  0.05055  0.62727  1.0000 0.1524588123
H   H29       1.0  0.03385  0.40975  0.40162  1.0000 0.1394812398
H   H30       1.0  0.10905  0.39474  0.33108  1.0000 0.0993777522
H   H31       1.0  0.07506  0.17427  0.38833  1.0000 0.1394812398
H   H32       1.0  0.54220  0.03843  0.29780  1.0000 0.1073657503
H   H33       1.0  0.64540  0.34743  0.36717  1.0000 0.1394812398
H   H34       1.0  0.82248  0.18352  0.35954  1.0000 0.1394812398
H   H35       1.0  0.46908  0.25521  0.32100  1.0000 0.0918740586
H   H36       1.0  0.43460  0.07527  0.08738  1.0000 0.1302358762
H   H37       1.0  0.05564  0.22502  0.32251  1.0000 0.0918740586
H   H38       1.0  0.71134  0.37303  0.20319  1.0000 0.1073657503
H   H39       1.0  0.62382  0.02488  0.36777  1.0000 0.1394812398
H   H40       1.0  0.60111  0.42521  0.14825  1.0000 0.1302358762
H   H41       1.0  0.00351  0.29978  0.11899  1.0000 0.0918740586
H   H42       1.0  0.07756  0.45695  0.18127  1.0000 0.0993777522
H   H43       1.0  0.77155  0.13122  0.15051  1.0000 0.0993777522
H   H44       1.0  0.03142  0.12093  0.05230  1.0000 0.1394812398
H   H45       1.0  0.98910  0.37730  0.06979  1.0000 0.1394812398
H   H46       1.0  0.73150  0.19398  0.28914  1.0000 0.0918740586
H   H47       1.0  0.97369  0.50896  0.12361  1.0000 0.1394812398
H   H48       1.0  0.02572  0.18499  0.11136  1.0000 0.0993777522
H   H49       1.0  0.73188  0.33416  0.29846  1.0000 0.0993777522
H   H50       1.0  0.50114  0.20376  0.38593  1.0000 0.1302358762
H   H51       1.0  0.42333  0.14354  0.14237  1.0000 0.0918740586
H   H52       1.0  0.50699  0.00510  0.18818  1.0000 0.1073657503
H   H53       1.0  0.40992  0.41078  0.09204  1.0000 0.1394812398
H   H54       1.0  0.40643  0.33625  0.14388  1.0000 0.0993777522
H   H55       1.0  0.83652  0.07520  0.08990  1.0000 0.1394812398
H   H56       1.0  0.55896  0.94945  0.12727  1.0000 0.1524588123
H   H57       1.0  0.53385  0.09025  0.59838  1.0000 0.1394812398
H   H58       1.0  0.60905  0.10526  0.66892  1.0000 0.0993777522
H   H59       1.0  0.57506  0.32573  0.61167  1.0000 0.1394812398
H   H60       1.0  0.04220  0.46157  0.70220  1.0000 0.1073657503
H   H61       1.0  0.14540  0.15257  0.63283  1.0000 0.1394812398
H   H62       1.0  0.32248  0.31648  0.64046  1.0000 0.1394812398
H   H63       1.0  0.96908  0.24479  0.67900  1.0000 0.0918740586
H   H64       1.0  0.93460  0.42473  0.91262  1.0000 0.1302358762
H   H65       1.0  0.55564  0.27498  0.67749  1.0000 0.0918740586
H   H66       1.0  0.21134  0.12697  0.79681  1.0000 0.1073657503
H   H67       1.0  0.12382  0.47512  0.63223  1.0000 0.1394812398
H   H68       1.0  0.10111  0.07479  0.85175  1.0000 0.1302358762
H   H69       1.0  0.50351  0.20022  0.88101  1.0000 0.0918740586
H   H70       1.0  0.57756  0.04305  0.81873  1.0000 0.0993777522
H   H71       1.0  0.27155  0.36878  0.84949  1.0000 0.0993777522
H   H72       1.0  0.53142  0.37907  0.94770  1.0000 0.1394812398
H   H73       1.0  0.48910  0.12270  0.93021  1.0000 0.1394812398
H   H74       1.0  0.23150  0.30602  0.71086  1.0000 0.0918740586
H   H75       1.0  0.47369  0.99104  0.87639  1.0000 0.1394812398
H   H76       1.0  0.52572  0.31501  0.88864  1.0000 0.0993777522
H   H77       1.0  0.23188  0.16584  0.70154  1.0000 0.0993777522
H   H78       1.0  0.00114  0.29624  0.61407  1.0000 0.1302358762
H   H79       1.0  0.92333  0.35646  0.85763  1.0000 0.0918740586
H   H80       1.0  0.00699  0.49490  0.81182  1.0000 0.1073657503
H   H81       1.0  0.90992  0.08922  0.90796  1.0000 0.1394812398
H   H82       1.0  0.90643  0.16375  0.85612  1.0000 0.0993777522
H   H83       1.0  0.33652  0.42480  0.91010  1.0000 0.1394812398
H   H84       1.0  0.05896  0.55055  0.87273  1.0000 0.1524588123
H   H85       1.0  0.96615  0.90975  0.09838  1.0000 0.1394812398
H   H86       1.0  0.89095  0.89474  0.16892  1.0000 0.0993777522
H   H87       1.0  0.92494  0.67427  0.11167  1.0000 0.1394812398
H   H88       1.0  0.45780  0.53843  0.20220  1.0000 0.1073657503
H   H89       1.0  0.35460  0.84743  0.13283  1.0000 0.1394812398
H   H90       1.0  0.17752  0.68352  0.14046  1.0000 0.1394812398
H   H91       1.0  0.53092  0.75521  0.17900  1.0000 0.0918740586
H   H92       1.0  0.56540  0.57527  0.41262  1.0000 0.1302358762
H   H93       1.0  0.94436  0.72502  0.17749  1.0000 0.0918740586
H   H94       1.0  0.28866  0.87303  0.29681  1.0000 0.1073657503
H   H95       1.0  0.37618  0.52488  0.13223  1.0000 0.1394812398
H   H96       1.0  0.39889  0.92521  0.35175  1.0000 0.1302358762
H   H97       1.0  0.99649  0.79978  0.38101  1.0000 0.0918740586
H   H98       1.0  0.92244  0.95695  0.31873  1.0000 0.0993777522
H   H99       1.0  0.22845  0.63122  0.34949  1.0000 0.0993777522
H   H100      1.0  0.96858  0.62093  0.44770  1.0000 0.1394812398
H   H101      1.0  0.01090  0.87730  0.43021  1.0000 0.1394812398
H   H102      1.0  0.26850  0.69398  0.21086  1.0000 0.0918740586
H   H103      1.0  0.02631  0.00896  0.37639  1.0000 0.1394812398
H   H104      1.0  0.97428  0.68499  0.38864  1.0000 0.0993777522
H   H105      1.0  0.26812  0.83416  0.20154  1.0000 0.0993777522
H   H106      1.0  0.49886  0.70376  0.11407  1.0000 0.1302358762
H   H107      1.0  0.57667  0.64354  0.35763  1.0000 0.0918740586
H   H108      1.0  0.49301  0.50510  0.31182  1.0000 0.1073657503
H   H109      1.0  0.59008  0.91078  0.40796  1.0000 0.1394812398
H   H110      1.0  0.59357  0.83625  0.35612  1.0000 0.0993777522
H   H111      1.0  0.16348  0.57520  0.41010  1.0000 0.1394812398
H   H112      1.0  0.44104  0.44945  0.37273  1.0000 0.1524588123
C   C1        1.0  0.53060  0.60500  0.88090  1.0000 -0.1414165967
C   C2        1.0  0.76860  0.02760  0.56000  1.0000 0.6507023901
C   C3        1.0  0.29970  0.54590  0.54330  1.0000 0.6375798439
C   C4        1.0  0.48610  0.61460  0.83840  1.0000 0.0486217516
C   C5        1.0  0.34290  0.80950  0.87530  1.0000 -0.1498223727
C   C6        1.0  0.26260  0.95630  0.52770  1.0000 0.6375798439
C   C7        1.0  0.79990  0.99190  0.60100  1.0000 0.0201702194
C   C8        1.0  0.79160  0.49820  0.58930  1.0000 0.6135074154
C   C9        1.0  0.90140  0.93180  0.81050  1.0000 0.05815289
C   C10       1.0  0.70620  0.90500  0.91650  1.0000 0.6261539713
C   C11       1.0  0.75970  0.64170  0.86070  1.0000 -0.1590667163
C   C12       1.0  0.73530  0.84640  0.84770  1.0000 -0.168896836
C   C13       1.0  0.19710  0.85060  0.93680  1.0000 0.6507023901
C   C14       1.0  0.72310  0.60370  0.93840  1.0000 0.6375798439
C   C15       1.0  0.76720  0.89680  0.87210  1.0000 0.0201702194
C   C16       1.0  0.11170  0.76100  0.83480  1.0000 0.0704162434
C   C17       1.0  0.30240  0.59720  0.57480  1.0000 0.0113101115
C   C18       1.0  0.14960  0.90250  0.59140  1.0000 -0.1498223727
C   C19       1.0  0.67390  0.61780  0.89230  1.0000 0.0201702194
C   C20       1.0  0.35380  0.77840  0.83570  1.0000 0.0704162434
C   C21       1.0  0.73500  0.59940  0.68710  1.0000 0.05815289
C   C22       1.0  0.26530  0.91060  0.56360  1.0000 0.0201702194
C   C23       1.0  0.85240  0.94040  0.85260  1.0000 -0.1498223727
C   C24       1.0  0.80070  0.56880  0.65360  1.0000 -0.1498223727
C   C25       1.0  0.41470  0.67700  0.61380  1.0000 0.0704162434
C   C26       1.0  0.51880  0.55030  0.67410  1.0000 0.081126313
C   C27       1.0  0.72480  0.52960  0.62770  1.0000 0.0113101115
C   C28       1.0  0.77260  0.90560  0.64600  1.0000 0.081126313
C   C29       1.0  0.38900  0.87610  0.57080  1.0000 -0.1590667163
C   C30       1.0  0.42370  0.63090  0.58380  1.0000 -0.1498223727
C   C31       1.0  0.20940  0.81560  0.89460  1.0000 0.0276639138
C   C32       1.0  0.79020  0.84040  0.80500  1.0000 0.081126313
C   C33       1.0  0.58080  0.51890  0.63910  1.0000 -0.1498223727
C   C34       1.0  0.39080  0.83720  0.60610  1.0000 0.05815289
C   C35       1.0  0.70600  0.64990  0.81940  1.0000 0.05815289
C   C36       1.0  0.09110  0.79190  0.87400  1.0000 -0.1498223727
C   C37       1.0  0.15770  0.86200  0.62470  1.0000 0.0704162434
C   C38       1.0  0.92860  0.97960  0.66760  1.0000 0.0486217516
C   C39       1.0  0.17480  0.61050  0.59740  1.0000 -0.1498223727
C   C40       1.0  0.17730  0.65600  0.62790  1.0000 0.0704162434
C   C41       1.0  0.73410  0.93900  0.60890  1.0000 -0.1590667163
C   C42       1.0  0.89720  0.01350  0.63130  1.0000 -0.1498223727
C   C43       1.0  0.96940  0.39500  0.38090  1.0000 -0.1414165967
C   C44       1.0  0.73140  0.97240  0.06000  1.0000 0.6507023901
C   C45       1.0  0.20030  0.45410  0.04330  1.0000 0.6375798439
C   C46       1.0  0.01390  0.38540  0.33840  1.0000 0.0486217516
C   C47       1.0  0.15710  0.19050  0.37530  1.0000 -0.1498223727
C   C48       1.0  0.23740  0.04370  0.02770  1.0000 0.6375798439
C   C49       1.0  0.70010  0.00810  0.10100  1.0000 0.0201702194
C   C50       1.0  0.70840  0.50180  0.08930  1.0000 0.6135074154
C   C51       1.0  0.59860  0.06820  0.31050  1.0000 0.05815289
C   C52       1.0  0.79380  0.09500  0.41650  1.0000 0.6261539713
C   C53       1.0  0.74030  0.35830  0.36070  1.0000 -0.1590667163
C   C54       1.0  0.76470  0.15360  0.34770  1.0000 -0.168896836
C   C55       1.0  0.30290  0.14940  0.43680  1.0000 0.6507023901
C   C56       1.0  0.77690  0.39630  0.43840  1.0000 0.6375798439
C   C57       1.0  0.73280  0.10320  0.37210  1.0000 0.0201702194
C   C58       1.0  0.38830  0.23900  0.33480  1.0000 0.0704162434
C   C59       1.0  0.19760  0.40280  0.07480  1.0000 0.0113101115
C   C60       1.0  0.35040  0.09750  0.09140  1.0000 -0.1498223727
C   C61       1.0  0.82610  0.38220  0.39230  1.0000 0.0201702194
C   C62       1.0  0.14620  0.22160  0.33570  1.0000 0.0704162434
C   C63       1.0  0.76500  0.40060  0.18710  1.0000 0.05815289
C   C64       1.0  0.23470  0.08940  0.06360  1.0000 0.0201702194
C   C65       1.0  0.64760  0.05960  0.35260  1.0000 -0.1414165967
C   C66       1.0  0.69930  0.43120  0.15360  1.0000 -0.1498223727
C   C67       1.0  0.08530  0.32300  0.11380  1.0000 0.0704162434
C   C68       1.0  0.98120  0.44970  0.17410  1.0000 0.081126313
C   C69       1.0  0.77520  0.47040  0.12770  1.0000 0.0113101115
C   C70       1.0  0.72740  0.09440  0.14600  1.0000 0.081126313
C   C71       1.0  0.11100  0.12390  0.07080  1.0000 -0.1590667163
C   C72       1.0  0.07630  0.36910  0.08380  1.0000 -0.1498223727
C   C73       1.0  0.29060  0.18440  0.39460  1.0000 0.0276639138
C   C74       1.0  0.70980  0.15960  0.30500  1.0000 0.081126313
C   C75       1.0  0.91920  0.48110  0.13910  1.0000 -0.1498223727
C   C76       1.0  0.10920  0.16280  0.10610  1.0000 0.05815289
C   C77       1.0  0.79400  0.35010  0.31940  1.0000 0.05815289
C   C78       1.0  0.40890  0.20810  0.37400  1.0000 -0.1498223727
C   C79       1.0  0.34230  0.13800  0.12470  1.0000 0.0704162434
C   C80       1.0  0.57140  0.02040  0.16760  1.0000 0.0486217516
C   C81       1.0  0.32520  0.38950  0.09740  1.0000 -0.1498223727
C   C82       1.0  0.32270  0.34400  0.12790  1.0000 0.0704162434
C   C83       1.0  0.76590  0.06100  0.10890  1.0000 -0.1590667163
C   C84       1.0  0.60280  0.98650  0.13130  1.0000 -0.1498223727
C   C85       1.0  0.46940  0.10500  0.61910  1.0000 -0.1414165967
C   C86       1.0  0.23140  0.52760  0.94000  1.0000 0.6507023901
C   C87       1.0  0.70030  0.04590  0.95670  1.0000 0.6375798439
C   C88       1.0  0.51390  0.11460  0.66160  1.0000 0.0486217516
C   C89       1.0  0.65710  0.30950  0.62470  1.0000 -0.1498223727
C   C90       1.0  0.73740  0.45630  0.97230  1.0000 0.6375798439
C   C91       1.0  0.20010  0.49190  0.89900  1.0000 0.0201702194
C   C92       1.0  0.20840  0.99820  0.91070  1.0000 0.6135074154
C   C93       1.0  0.09860  0.43180  0.68950  1.0000 0.05815289
C   C94       1.0  0.29380  0.40500  0.58350  1.0000 0.6261539713
C   C95       1.0  0.24030  0.14170  0.63930  1.0000 -0.1590667163
C   C96       1.0  0.26470  0.34640  0.65230  1.0000 -0.168896836
C   C97       1.0  0.80290  0.35060  0.56320  1.0000 0.6507023901
C   C98       1.0  0.27690  0.10370  0.56160  1.0000 0.6375798439
C   C99       1.0  0.23280  0.39680  0.62790  1.0000 0.0201702194
C   C100      1.0  0.88830  0.26100  0.66520  1.0000 0.0704162434
C   C101      1.0  0.69760  0.09720  0.92520  1.0000 0.0113101115
C   C102      1.0  0.85040  0.40250  0.90860  1.0000 -0.1498223727
C   C103      1.0  0.32610  0.11780  0.60770  1.0000 0.0201702194
C   C104      1.0  0.64620  0.27840  0.66430  1.0000 0.0704162434
C   C105      1.0  0.26500  0.09940  0.81290  1.0000 0.05815289
C   C106      1.0  0.73470  0.41060  0.93640  1.0000 0.0201702194
C   C107      1.0  0.14760  0.44040  0.64740  1.0000 -0.1414165967
C   C108      1.0  0.19930  0.06880  0.84640  1.0000 -0.1498223727
C   C109      1.0  0.58530  0.17700  0.88620  1.0000 0.0704162434
C   C110      1.0  0.48120  0.05030  0.82590  1.0000 0.081126313
C   C111      1.0  0.27520  0.02960  0.87230  1.0000 0.0113101115
C   C112      1.0  0.22740  0.40560  0.85400  1.0000 0.081126313
C   C113      1.0  0.61100  0.37610  0.92920  1.0000 -0.1590667163
C   C114      1.0  0.57630  0.13090  0.91620  1.0000 -0.1498223727
C   C115      1.0  0.79060  0.31560  0.60540  1.0000 0.0276639138
C   C116      1.0  0.20980  0.34040  0.69500  1.0000 0.081126313
C   C117      1.0  0.41920  0.01890  0.86090  1.0000 -0.1498223727
C   C118      1.0  0.60920  0.33720  0.89390  1.0000 0.05815289
C   C119      1.0  0.29400  0.14990  0.68060  1.0000 0.05815289
C   C120      1.0  0.90890  0.29190  0.62600  1.0000 -0.1498223727
C   C121      1.0  0.84230  0.36200  0.87530  1.0000 0.0704162434
C   C122      1.0  0.07140  0.47960  0.83240  1.0000 0.0486217516
C   C123      1.0  0.82520  0.11050  0.90260  1.0000 -0.1498223727
C   C124      1.0  0.82270  0.15600  0.87210  1.0000 0.0704162434
C   C125      1.0  0.26590  0.43900  0.89110  1.0000 -0.1590667163
C   C126      1.0  0.10280  0.51350  0.86870  1.0000 -0.1498223727
C   C127      1.0  0.03060  0.89500  0.11910  1.0000 -0.1414165967
C   C128      1.0  0.26860  0.47240  0.44000  1.0000 0.6507023901
C   C129      1.0  0.79970  0.95410  0.45670  1.0000 0.6375798439
C   C130      1.0  0.98610  0.88540  0.16160  1.0000 0.0486217516
C   C131      1.0  0.84290  0.69050  0.12470  1.0000 -0.1498223727
C   C132      1.0  0.76260  0.54370  0.47230  1.0000 0.6375798439
C   C133      1.0  0.29990  0.50810  0.39900  1.0000 0.0201702194
C   C134      1.0  0.29160  0.00180  0.41070  1.0000 0.6135074154
C   C135      1.0  0.40140  0.56820  0.18950  1.0000 0.05815289
C   C136      1.0  0.20620  0.59500  0.08350  1.0000 0.6261539713
C   C137      1.0  0.25970  0.85830  0.13930  1.0000 -0.1590667163
C   C138      1.0  0.23530  0.65360  0.15230  1.0000 -0.168896836
C   C139      1.0  0.69710  0.64940  0.06320  1.0000 0.6507023901
C   C140      1.0  0.22310  0.89630  0.06160  1.0000 0.6375798439
C   C141      1.0  0.26720  0.60320  0.12790  1.0000 0.0201702194
C   C142      1.0  0.61170  0.73900  0.16520  1.0000 0.0704162434
C   C143      1.0  0.80240  0.90280  0.42520  1.0000 0.0113101115
C   C144      1.0  0.64960  0.59750  0.40860  1.0000 -0.1498223727
C   C145      1.0  0.17390  0.88220  0.10770  1.0000 0.0201702194
C   C146      1.0  0.85380  0.72160  0.16430  1.0000 0.0704162434
C   C147      1.0  0.23500  0.90060  0.31290  1.0000 0.05815289
C   C148      1.0  0.76530  0.58940  0.43640  1.0000 0.0201702194
C   C149      1.0  0.35240  0.55960  0.14740  1.0000 -0.1414165967
C   C150      1.0  0.30070  0.93120  0.34640  1.0000 -0.1498223727
C   C151      1.0  0.91470  0.82300  0.38620  1.0000 0.0704162434
C   C152      1.0  0.01880  0.94970  0.32590  1.0000 0.081126313
C   C153      1.0  0.22480  0.97040  0.37230  1.0000 0.0113101115
C   C154      1.0  0.27260  0.59440  0.35400  1.0000 0.081126313
C   C155      1.0  0.88900  0.62390  0.42920  1.0000 -0.1590667163
C   C156      1.0  0.92370  0.86910  0.41620  1.0000 -0.1498223727
C   C157      1.0  0.70940  0.68440  0.10540  1.0000 0.0276639138
C   C158      1.0  0.29020  0.65960  0.19500  1.0000 0.081126313
C   C159      1.0  0.08080  0.98110  0.36090  1.0000 -0.1498223727
C   C160      1.0  0.89080  0.66280  0.39390  1.0000 0.05815289
C   C161      1.0  0.20600  0.85010  0.18060  1.0000 0.05815289
C   C162      1.0  0.59110  0.70810  0.12600  1.0000 -0.1498223727
C   C163      1.0  0.65770  0.63800  0.37530  1.0000 0.0704162434
C   C164      1.0  0.42860  0.52040  0.33240  1.0000 0.0486217516
C   C165      1.0  0.67480  0.88950  0.40260  1.0000 -0.1498223727
C   C166      1.0  0.67730  0.84400  0.37210  1.0000 0.0704162434
C   C167      1.0  0.23410  0.56100  0.39110  1.0000 -0.1590667163
C   C168      1.0  0.39720  0.48650  0.36870  1.0000 -0.1498223727
I   I1        1.0  0.21428  0.60091  0.74823  1.0000 -0.4449466809
I   I2        1.0  0.51505  0.75595  0.72242  1.0000 -0.3896383315
I   I3        1.0  0.01479  0.76303  0.71377  1.0000 -0.3896383315
I   I4        1.0  0.28572  0.39909  0.24823  1.0000 -0.4449466809
I   I5        1.0  0.98495  0.24405  0.22242  1.0000 -0.3896383315
I   I6        1.0  0.48521  0.23697  0.21377  1.0000 -0.3896383315
I   I7        1.0  0.78572  0.10091  0.75177  1.0000 -0.4449466809
I   I8        1.0  0.48495  0.25595  0.77758  1.0000 -0.3896383315
I   I9        1.0  0.98521  0.26303  0.78623  1.0000 -0.3896383315
I   I10       1.0  0.71428  0.89909  0.25177  1.0000 -0.4449466809
I   I11       1.0  0.01505  0.74405  0.27758  1.0000 -0.3896383315
I   I12       1.0  0.51479  0.73697  0.28623  1.0000 -0.3896383315
N   N1        1.0  0.29390  0.68940  0.63560  1.0000 -0.1790228772
N   N2        1.0  0.57300  0.63680  0.80710  1.0000 -0.1790228772
N   N3        1.0  0.27680  0.83010  0.63320  1.0000 -0.168896836
N   N4        1.0  0.86980  0.92470  0.67480  1.0000 -0.1790228772
N   N5        1.0  0.59330  0.59030  0.69740  1.0000 -0.1790228772
N   N6        1.0  0.87170  0.88220  0.78670  1.0000 -0.168896836
N   N7        1.0  0.24050  0.75360  0.81610  1.0000 -0.168896836
N   N8        1.0  0.20610  0.31060  0.13560  1.0000 -0.1790228772
N   N9        1.0  0.92700  0.36320  0.30710  1.0000 -0.1790228772
N   N10       1.0  0.22320  0.16990  0.13320  1.0000 -0.168896836
N   N11       1.0  0.63020  0.07530  0.17480  1.0000 -0.1790228772
N   N12       1.0  0.90670  0.40970  0.19740  1.0000 -0.1790228772
N   N13       1.0  0.62830  0.11780  0.28670  1.0000 -0.168896836
N   N14       1.0  0.25950  0.24640  0.31610  1.0000 -0.168896836
N   N15       1.0  0.70610  0.18940  0.86440  1.0000 -0.1790228772
N   N16       1.0  0.42700  0.13680  0.69290  1.0000 -0.1790228772
N   N17       1.0  0.72320  0.33010  0.86680  1.0000 -0.168896836
N   N18       1.0  0.13020  0.42470  0.82520  1.0000 -0.1790228772
N   N19       1.0  0.40670  0.09030  0.80260  1.0000 -0.1790228772
N   N20       1.0  0.12830  0.38220  0.71330  1.0000 -0.168896836
N   N21       1.0  0.75950  0.25360  0.68390  1.0000 -0.168896836
N   N22       1.0  0.79390  0.81060  0.36440  1.0000 -0.1790228772
N   N23       1.0  0.07300  0.86320  0.19290  1.0000 -0.1790228772
N   N24       1.0  0.77680  0.66990  0.36680  1.0000 -0.168896836
N   N25       1.0  0.36980  0.57530  0.32520  1.0000 -0.1790228772
N   N26       1.0  0.09330  0.90970  0.30260  1.0000 -0.1790228772
N   N27       1.0  0.37170  0.61780  0.21330  1.0000 -0.168896836
N   N28       1.0  0.74050  0.74640  0.18390  1.0000 -0.168896836
O   O1        1.0  0.17820  0.53320  0.52790  1.0000 -0.6511034488
O   O2        1.0  0.37770  0.96260  0.50560  1.0000 -0.6839319214
O   O3        1.0  0.15050  0.98810  0.52500  1.0000 -0.6596035033
O   O4        1.0  0.63830  0.03170  0.54790  1.0000 -0.6596035033
O   O5        1.0  0.57170  0.90350  0.92070  1.0000 -0.6390039667
O   O6        1.0  0.07290  0.87240  0.94560  1.0000 -0.6721888825
O   O7        1.0  0.87480  0.05100  0.54130  1.0000 -0.6596035033
O   O8        1.0  0.63140  0.58680  0.96550  1.0000 -0.6839319214
O   O9        1.0  0.30820  0.85510  0.96020  1.0000 -0.6596035033
O   O10       1.0  0.79410  0.91620  0.94770  1.0000 -0.7063030943
O   O11       1.0  0.92690  0.50280  0.58450  1.0000 -0.6511034488
O   O12       1.0  0.41790  0.51890  0.53680  1.0000 -0.6511034488
O   O13       1.0  0.85740  0.60920  0.94580  1.0000 -0.6511034488
O   O14       1.0  0.71000  0.47120  0.56330  1.0000 -0.6721888825
O   O15       1.0  0.32180  0.46680  0.02790  1.0000 -0.6511034488
O   O16       1.0  0.12230  0.03740  0.00560  1.0000 -0.6839319214
O   O17       1.0  0.34950  0.01190  0.02500  1.0000 -0.6596035033
O   O18       1.0  0.86170  0.96830  0.04790  1.0000 -0.6596035033
O   O19       1.0  0.92830  0.09650  0.42070  1.0000 -0.6390039667
O   O20       1.0  0.42710  0.12760  0.44560  1.0000 -0.6721888825
O   O21       1.0  0.62520  0.94900  0.04130  1.0000 -0.6596035033
O   O22       1.0  0.86860  0.41320  0.46550  1.0000 -0.6839319214
O   O23       1.0  0.19180  0.14490  0.46020  1.0000 -0.6596035033
O   O24       1.0  0.70590  0.08380  0.44770  1.0000 -0.7063030943
O   O25       1.0  0.57310  0.49720  0.08450  1.0000 -0.6511034488
O   O26       1.0  0.08210  0.48110  0.03680  1.0000 -0.6511034488
O   O27       1.0  0.64260  0.39080  0.44580  1.0000 -0.6511034488
O   O28       1.0  0.79000  0.52880  0.06330  1.0000 -0.6721888825
O   O29       1.0  0.82180  0.03320  0.97210  1.0000 -0.6511034488
O   O30       1.0  0.62230  0.46260  0.99440  1.0000 -0.6839319214
O   O31       1.0  0.84950  0.48810  0.97500  1.0000 -0.6596035033
O   O32       1.0  0.36170  0.53170  0.95210  1.0000 -0.6596035033
O   O33       1.0  0.42830  0.40350  0.57930  1.0000 -0.6390039667
O   O34       1.0  0.92710  0.37240  0.55440  1.0000 -0.6721888825
O   O35       1.0  0.12520  0.55100  0.95870  1.0000 -0.6596035033
O   O36       1.0  0.36860  0.08680  0.53450  1.0000 -0.6839319214
O   O37       1.0  0.69180  0.35510  0.53980  1.0000 -0.6596035033
O   O38       1.0  0.20590  0.41620  0.55230  1.0000 -0.7063030943
O   O39       1.0  0.07310  0.00280  0.91550  1.0000 -0.6511034488
O   O40       1.0  0.58210  0.01890  0.96320  1.0000 -0.6511034488
O   O41       1.0  0.14260  0.10920  0.55420  1.0000 -0.6511034488
O   O42       1.0  0.29000  0.97120  0.93670  1.0000 -0.6721888825
O   O43       1.0  0.67820  0.96680  0.47210  1.0000 -0.6511034488
O   O44       1.0  0.87770  0.53740  0.49440  1.0000 -0.6839319214
O   O45       1.0  0.65050  0.51190  0.47500  1.0000 -0.6596035033
O   O46       1.0  0.13830  0.46830  0.45210  1.0000 -0.6596035033
O   O47       1.0  0.07170  0.59650  0.07930  1.0000 -0.6390039667
O   O48       1.0  0.57290  0.62760  0.05440  1.0000 -0.6721888825
O   O49       1.0  0.37480  0.44900  0.45870  1.0000 -0.6596035033
O   O50       1.0  0.13140  0.91320  0.03450  1.0000 -0.6839319214
O   O51       1.0  0.80820  0.64490  0.03980  1.0000 -0.6596035033
O   O52       1.0  0.29410  0.58380  0.05230  1.0000 -0.7063030943
O   O53       1.0  0.42690  0.99720  0.41550  1.0000 -0.6511034488
O   O54       1.0  0.91790  0.98110  0.46320  1.0000 -0.6511034488
O   O55       1.0  0.35740  0.89080  0.05420  1.0000 -0.6511034488
O   O56       1.0  0.21000  0.02880  0.43670  1.0000 -0.6721888825
