# DDEC6 charges by PACMAN v1.1 (https://github.com/mtap-research/PACMAN-charge/)
data_2020[Co][sql]2[ASR]7
_chemical_formula_sum              "Co4 H72 C80 N8 O10 F8"
_cell_length_a       12.3295
_cell_length_b       15.1613
_cell_length_c       18.2077
_cell_angle_alpha    85.341
_cell_angle_beta     109.725
_cell_angle_gamma    105.412

_symmetry_space_group_name_H-M    "P 1"
_symmetry_Int_Tables_number       1

loop_
  _symmetry_equiv_pos_as_xyz
  'x, y, z'

loop_
  _atom_site_type_symbol
  _atom_site_label
  _atom_site_symmetry_multiplicity
  _atom_site_fract_x
  _atom_site_fract_y
  _atom_site_fract_z
  _atom_site_occupancy
  _atom_site_charge
Co  Co1       1.0  0.53719  0.15870  0.27556  1.0000 0.7208353625
Co  Co2       1.0  0.71419  0.38500  0.25608  1.0000 0.7208353625
Co  Co3       1.0  0.46281  0.84130  0.72444  1.0000 0.7208353625
Co  Co4       1.0  0.28581  0.61500  0.74392  1.0000 0.7208353625
H   H1        1.0  0.52150  0.27730  0.16010  1.0000 0.3589308606
H   H2        1.0  0.62890  0.23670  0.16720  1.0000 0.3589308606
H   H3        1.0  0.99480  0.30760  0.31730  1.0000 0.1083380157
H   H4        1.0  0.18610  0.28660  0.35530  1.0000 0.1313881597
H   H5        1.0  0.08400  0.06530  0.47690  1.0000 0.1641505705
H   H6        1.0  0.41500  0.46210  0.29550  1.0000 0.1083380157
H   H7        1.0  0.30240  0.52140  0.34720  1.0000 0.136309457
H   H8        1.0  0.39240  0.37090  0.53950  1.0000 0.1716145174
H   H9        1.0  0.77360  0.53070  0.13760  1.0000 0.0916901128
H   H10       1.0  0.69840  0.63790  0.05470  1.0000 0.1313881597
H   H11       1.0  0.39080  0.54050  0.09570  1.0000 0.1313881597
H   H12       1.0  0.47110  0.43320  0.17550  1.0000 0.1003696917
H   H13       1.0  0.53290  0.70330  0.98380  1.0000 0.1003696917
H   H14       1.0  0.40680  0.65980  0.99190  1.0000 0.1083380157
H   H15       1.0  0.45860  0.74040  0.10690  1.0000 0.1003696917
H   H16       1.0  0.59180  0.77430  0.11020  1.0000 0.1003696917
H   H17       1.0  0.40390  0.83250  0.99480  1.0000 0.1003696917
H   H18       1.0  0.53870  0.86880  0.00200  1.0000 0.1003696917
H   H19       1.0  0.67030  0.98650  0.10250  1.0000 0.1313881597
H   H20       1.0  0.68710  0.09310  0.19010  1.0000 0.1003696917
H   H21       1.0  0.35700  0.99350  0.17910  1.0000 0.1003696917
H   H22       1.0  0.33300  0.88030  0.09480  1.0000 0.1313881597
H   H23       1.0  0.78170  0.50750  0.40320  1.0000 0.1003696917
H   H24       1.0  0.93880  0.61090  0.48430  1.0000 0.1313881597
H   H25       1.0  0.12650  0.60080  0.34680  1.0000 0.136309457
H   H26       1.0  0.96520  0.49800  0.26970  1.0000 0.0916901128
H   H27       1.0  0.12810  0.72290  0.50720  1.0000 0.1083380157
H   H28       1.0  0.21410  0.66220  0.50970  1.0000 0.1206732587
H   H29       1.0  0.15980  0.79100  0.38960  1.0000 0.0801987707
H   H30       1.0  0.25640  0.73670  0.40170  1.0000 0.0801987707
H   H31       1.0  0.37370  0.81650  0.51840  1.0000 0.1206732587
H   H32       1.0  0.27550  0.86780  0.51080  1.0000 0.1083380157
H   H33       1.0  0.24980  0.99260  0.41350  1.0000 0.136309457
H   H34       1.0  0.33710  0.10490  0.34550  1.0000 0.1003696917
H   H35       1.0  0.58760  0.98410  0.36790  1.0000 0.1003696917
H   H36       1.0  0.50840  0.86800  0.43820  1.0000 0.136309457
H   H37       1.0  0.47850  0.72270  0.83990  1.0000 0.3589308606
H   H38       1.0  0.37110  0.76330  0.83280  1.0000 0.3589308606
H   H39       1.0  0.00520  0.69240  0.68270  1.0000 0.1083380157
H   H40       1.0  0.81390  0.71340  0.64470  1.0000 0.1313881597
H   H41       1.0  0.91600  0.93470  0.52310  1.0000 0.1641505705
H   H42       1.0  0.58500  0.53790  0.70450  1.0000 0.1083380157
H   H43       1.0  0.69760  0.47860  0.65280  1.0000 0.136309457
H   H44       1.0  0.60760  0.62910  0.46050  1.0000 0.1716145174
H   H45       1.0  0.22640  0.46930  0.86240  1.0000 0.0916901128
H   H46       1.0  0.30160  0.36210  0.94530  1.0000 0.1313881597
H   H47       1.0  0.60920  0.45950  0.90430  1.0000 0.1313881597
H   H48       1.0  0.52890  0.56680  0.82450  1.0000 0.1003696917
H   H49       1.0  0.46710  0.29670  0.01620  1.0000 0.1003696917
H   H50       1.0  0.59320  0.34020  0.00810  1.0000 0.1083380157
H   H51       1.0  0.54140  0.25960  0.89310  1.0000 0.1003696917
H   H52       1.0  0.40820  0.22570  0.88980  1.0000 0.1003696917
H   H53       1.0  0.59610  0.16750  0.00520  1.0000 0.1003696917
H   H54       1.0  0.46130  0.13120  0.99800  1.0000 0.1003696917
H   H55       1.0  0.32970  0.01350  0.89750  1.0000 0.1313881597
H   H56       1.0  0.31290  0.90690  0.80990  1.0000 0.1003696917
H   H57       1.0  0.64300  0.00650  0.82090  1.0000 0.1003696917
H   H58       1.0  0.66700  0.11970  0.90520  1.0000 0.1313881597
H   H59       1.0  0.21830  0.49250  0.59680  1.0000 0.1003696917
H   H60       1.0  0.06120  0.38910  0.51570  1.0000 0.136309457
H   H61       1.0  0.87350  0.39920  0.65320  1.0000 0.1313881597
H   H62       1.0  0.03480  0.50200  0.73030  1.0000 0.0916901128
H   H63       1.0  0.87190  0.27710  0.49280  1.0000 0.1083380157
H   H64       1.0  0.78590  0.33780  0.49030  1.0000 0.1206732587
H   H65       1.0  0.84020  0.20900  0.61040  1.0000 0.0801987707
H   H66       1.0  0.74360  0.26330  0.59830  1.0000 0.0801987707
H   H67       1.0  0.62630  0.18350  0.48160  1.0000 0.1206732587
H   H68       1.0  0.72450  0.13220  0.48920  1.0000 0.1083380157
H   H69       1.0  0.75020  0.00740  0.58650  1.0000 0.136309457
H   H70       1.0  0.66290  0.89510  0.65450  1.0000 0.1003696917
H   H71       1.0  0.41240  0.01590  0.63210  1.0000 0.1003696917
H   H72       1.0  0.49160  0.13200  0.56180  1.0000 0.136309457
C   C1        1.0  0.79970  0.21600  0.34249  1.0000 0.5935640679
C   C2        1.0  0.92130  0.19740  0.37009  1.0000 -0.1855855687
C   C3        1.0  0.01200  0.25810  0.34853  1.0000 -0.0780162169
C   C4        1.0  0.12750  0.24720  0.37220  1.0000 -0.2591360861
C   C5        1.0  0.15170  0.17600  0.42140  1.0000 0.3056200491
C   C6        1.0  0.06600  0.11370  0.44430  1.0000 -0.3627217515
C   C7        1.0  0.95160  0.12600  0.41680  1.0000 0.2911764281
C   C8        1.0  0.54080  0.33930  0.34670  1.0000 0.5935640679
C   C9        1.0  0.47070  0.37790  0.38414  1.0000 -0.1702269717
C   C10       1.0  0.40990  0.44280  0.34430  1.0000 -0.0934364451
C   C11       1.0  0.34300  0.47900  0.37490  1.0000 -0.2504241271
C   C12       1.0  0.33790  0.45060  0.44740  1.0000 0.2911764281
C   C13       1.0  0.39610  0.38840  0.49010  1.0000 -0.3462064071
C   C14       1.0  0.46040  0.35270  0.45656  1.0000 0.278964092
C   C15       1.0  0.69570  0.53290  0.12964  1.0000 0.0602864639
C   C16       1.0  0.65110  0.59810  0.07990  1.0000 -0.2217219766
C   C17       1.0  0.53620  0.60450  0.06742  1.0000 0.1471925685
C   C18       1.0  0.46940  0.54050  0.10373  1.0000 -0.2217219766
C   C19       1.0  0.51860  0.47600  0.15215  1.0000 0.0700151013
C   C20       1.0  0.49100  0.68160  0.02087  1.0000 -0.2715515523
C   C21       1.0  0.51010  0.76010  0.07533  1.0000 -0.1615244352
C   C22       1.0  0.48440  0.84680  0.03140  1.0000 -0.2715515523
C   C23       1.0  0.49850  0.92060  0.08684  1.0000 0.1471925685
C   C24       1.0  0.60510  0.98600  0.11750  1.0000 -0.2217219766
C   C25       1.0  0.61440  0.05030  0.17020  1.0000 0.0700151013
C   C26       1.0  0.42150  0.99150  0.16430  1.0000 0.0602864639
C   C27       1.0  0.40570  0.92370  0.11240  1.0000 -0.2217219766
C   C28       1.0  0.85170  0.52720  0.39095  1.0000 0.0916901128
C   C29       1.0  0.94640  0.58980  0.44010  1.0000 -0.2100035111
C   C30       1.0  0.05260  0.62160  0.42440  1.0000 0.1716145174
C   C31       1.0  0.05690  0.58400  0.35950  1.0000 -0.2100035111
C   C32       1.0  0.95890  0.52180  0.31320  1.0000 0.0535822594
C   C33       1.0  0.15640  0.69270  0.47508  1.0000 -0.2591360861
C   C34       1.0  0.21870  0.76530  0.42860  1.0000 -0.140758927
C   C35       1.0  0.31220  0.84170  0.48145  1.0000 -0.2715515523
C   C36       1.0  0.36840  0.91640  0.43502  1.0000 0.1716145174
C   C37       1.0  0.31890  0.98920  0.40517  1.0000 -0.2100035111
C   C38       1.0  0.37130  0.05610  0.36348  1.0000 0.0700151013
C   C39       1.0  0.51810  0.98530  0.37686  1.0000 0.0801987707
C   C40       1.0  0.47140  0.91520  0.41979  1.0000 -0.2100035111
C   C41       1.0  0.20030  0.78400  0.65751  1.0000 0.5935640679
C   C42       1.0  0.07870  0.80260  0.62991  1.0000 -0.1855855687
C   C43       1.0  0.98800  0.74190  0.65147  1.0000 -0.0780162169
C   C44       1.0  0.87250  0.75280  0.62780  1.0000 -0.2591360861
C   C45       1.0  0.84830  0.82400  0.57860  1.0000 0.3056200491
C   C46       1.0  0.93400  0.88630  0.55570  1.0000 -0.3627217515
C   C47       1.0  0.04840  0.87400  0.58320  1.0000 0.2911764281
C   C48       1.0  0.45920  0.66070  0.65330  1.0000 0.5935640679
C   C49       1.0  0.52930  0.62210  0.61586  1.0000 -0.1702269717
C   C50       1.0  0.59010  0.55720  0.65570  1.0000 -0.0934364451
C   C51       1.0  0.65700  0.52100  0.62510  1.0000 -0.2504241271
C   C52       1.0  0.66210  0.54940  0.55260  1.0000 0.2911764281
C   C53       1.0  0.60390  0.61160  0.50990  1.0000 -0.3462064071
C   C54       1.0  0.53960  0.64730  0.54344  1.0000 0.278964092
C   C55       1.0  0.30430  0.46710  0.87036  1.0000 0.0602864639
C   C56       1.0  0.34890  0.40190  0.92010  1.0000 -0.2250563605
C   C57       1.0  0.46380  0.39550  0.93258  1.0000 0.1471925685
C   C58       1.0  0.53060  0.45950  0.89627  1.0000 -0.2217219766
C   C59       1.0  0.48140  0.52400  0.84785  1.0000 0.0700151013
C   C60       1.0  0.50900  0.31840  0.97913  1.0000 -0.2715515523
C   C61       1.0  0.48990  0.23990  0.92467  1.0000 -0.1615244352
C   C62       1.0  0.51560  0.15320  0.96860  1.0000 -0.2715515523
C   C63       1.0  0.50150  0.07940  0.91316  1.0000 0.1471925685
C   C64       1.0  0.39490  0.01400  0.88250  1.0000 -0.2217219766
C   C65       1.0  0.38560  0.94970  0.82980  1.0000 0.0602864639
C   C66       1.0  0.57850  0.00850  0.83570  1.0000 0.0602864639
C   C67       1.0  0.59430  0.07630  0.88760  1.0000 -0.2217219766
C   C68       1.0  0.14830  0.47280  0.60905  1.0000 0.0916901128
C   C69       1.0  0.05360  0.41020  0.55990  1.0000 -0.2100035111
C   C70       1.0  0.94740  0.37840  0.57560  1.0000 0.1716145174
C   C71       1.0  0.94310  0.41600  0.64050  1.0000 -0.2100035111
C   C72       1.0  0.04110  0.47820  0.68680  1.0000 0.0535822594
C   C73       1.0  0.84360  0.30730  0.52492  1.0000 -0.2591360861
C   C74       1.0  0.78130  0.23470  0.57140  1.0000 -0.140758927
C   C75       1.0  0.68780  0.15830  0.51855  1.0000 -0.2715515523
C   C76       1.0  0.63160  0.08360  0.56498  1.0000 0.1753140287
C   C77       1.0  0.68110  0.01080  0.59483  1.0000 -0.2100035111
C   C78       1.0  0.62870  0.94390  0.63652  1.0000 0.0700151013
C   C79       1.0  0.48190  0.01470  0.62314  1.0000 0.0801987707
C   C80       1.0  0.52860  0.08480  0.58021  1.0000 -0.2100035111
N   N1        1.0  0.63170  0.47245  0.16703  1.0000 -0.2992363749
N   N2        1.0  0.52480  0.05465  0.19447  1.0000 -0.2992363749
N   N3        1.0  0.85590  0.49380  0.32710  1.0000 -0.2591360861
N   N4        1.0  0.46910  0.05483  0.34742  1.0000 -0.2715515523
N   N5        1.0  0.36830  0.52755  0.83297  1.0000 -0.2992363749
N   N6        1.0  0.47520  0.94535  0.80553  1.0000 -0.2992363749
N   N7        1.0  0.14410  0.50620  0.67290  1.0000 -0.2591360861
N   N8        1.0  0.53090  0.94517  0.65258  1.0000 -0.2715515523
O   O1        1.0  0.59160  0.26186  0.19679  1.0000 -0.743057753
O   O2        1.0  0.80082  0.29911  0.33464  1.0000 -0.5673200889
O   O3        1.0  0.71001  0.14862  0.32958  1.0000 -0.5585981561
O   O4        1.0  0.53098  0.25487  0.35070  1.0000 -0.5473632468
O   O5        1.0  0.60155  0.39721  0.31307  1.0000 -0.5673200889
O   O6        1.0  0.40840  0.73814  0.80321  1.0000 -0.7450838937
O   O7        1.0  0.19918  0.70089  0.66536  1.0000 -0.5673200889
O   O8        1.0  0.28999  0.85138  0.67042  1.0000 -0.5585981561
O   O9        1.0  0.46902  0.74513  0.64930  1.0000 -0.5473632468
O   O10       1.0  0.39845  0.60279  0.68693  1.0000 -0.5673200889
F   F1        1.0  0.26381  0.16582  0.44829  1.0000 -0.1702269717
F   F2        1.0  0.86796  0.06417  0.44068  1.0000 -0.1615244352
F   F3        1.0  0.27300  0.48605  0.47881  1.0000 -0.1615244352
F   F4        1.0  0.52020  0.29380  0.49987  1.0000 -0.1469939528
F   F5        1.0  0.73619  0.83418  0.55171  1.0000 -0.1702269717
F   F6        1.0  0.13204  0.93583  0.55932  1.0000 -0.1615244352
F   F7        1.0  0.72700  0.51395  0.52119  1.0000 -0.1615244352
F   F8        1.0  0.47980  0.70620  0.50013  1.0000 -0.1469939528
