# DDEC6 charges by PACMAN v1.1 (https://github.com/mtap-research/PACMAN-charge/)
data_2020[ZnRu][sql]2[ASR]1
_chemical_formula_sum              "Zn2 H80 Ru4 C128 N24 O16"
_cell_length_a       8.7691
_cell_length_b       16.6224
_cell_length_c       26.8715
_cell_angle_alpha    90
_cell_angle_beta     90
_cell_angle_gamma    90

_symmetry_space_group_name_H-M    "P 1"
_symmetry_Int_Tables_number       1

loop_
  _symmetry_equiv_pos_as_xyz
  'x, y, z'

loop_
  _atom_site_type_symbol
  _atom_site_label
  _atom_site_symmetry_multiplicity
  _atom_site_fract_x
  _atom_site_fract_y
  _atom_site_fract_z
  _atom_site_occupancy
  _atom_site_charge
Zn  Zn1       1.0  0.50000  0.21848  0.00000  1.0000 0.9539088087
Zn  Zn2       1.0  0.50000  0.71848  0.50000  1.0000 0.9539088087
H   H1        1.0  0.47815  0.19504  0.76435  1.0000 0.1208327349
H   H2        1.0  0.83779  0.62968  0.70762  1.0000 0.1105108002
H   H3        1.0  0.38232  0.49423  0.77160  1.0000 0.1105108002
H   H4        1.0  0.42887  0.14236  0.68593  1.0000 0.1105108002
H   H5        1.0  0.22100  0.32770  0.72752  1.0000 0.1208327349
H   H6        1.0  0.32177  0.61565  0.61937  1.0000 0.1585248239
H   H7        1.0  0.53396  0.25823  0.83990  1.0000 0.1401965368
H   H8        1.0  0.50712  0.21317  0.61611  1.0000 0.1208327349
H   H9        1.0  0.16272  0.56688  0.75648  1.0000 0.1208327349
H   H10       1.0  0.92910  0.72656  0.76242  1.0000 0.1208327349
H   H11       1.0  0.93502  0.49807  0.55124  1.0000 0.1465801062
H   H12       1.0  0.98943  0.37099  0.75781  1.0000 0.1105108002
H   H13       1.0  0.12579  0.43451  0.59731  1.0000 0.1585248239
H   H14       1.0  0.13115  0.62941  0.67978  1.0000 0.1105108002
H   H15       1.0  0.83556  0.57976  0.87574  1.0000 0.1327047906
H   H16       1.0  0.29132  0.36164  0.64701  1.0000 0.1105108002
H   H17       1.0  0.61150  0.34079  0.62532  1.0000 0.1208327349
H   H18       1.0  0.51792  0.59731  0.56544  1.0000 0.1401965368
H   H19       1.0  0.92874  0.70293  0.84657  1.0000 0.1208327349
H   H20       1.0  0.73314  0.45378  0.89802  1.0000 0.1401965368
H   H21       1.0  0.52185  0.19504  0.23565  1.0000 0.1208327349
H   H22       1.0  0.16221  0.62968  0.29238  1.0000 0.1105108002
H   H23       1.0  0.61768  0.49423  0.22840  1.0000 0.1105108002
H   H24       1.0  0.57113  0.14236  0.31407  1.0000 0.1105108002
H   H25       1.0  0.77900  0.32770  0.27248  1.0000 0.1208327349
H   H26       1.0  0.67823  0.61565  0.38063  1.0000 0.1585248239
H   H27       1.0  0.46604  0.25823  0.16010  1.0000 0.1401965368
H   H28       1.0  0.49288  0.21317  0.38389  1.0000 0.1208327349
H   H29       1.0  0.83728  0.56688  0.24352  1.0000 0.1208327349
H   H30       1.0  0.07090  0.72656  0.23758  1.0000 0.1208327349
H   H31       1.0  0.06498  0.49807  0.44876  1.0000 0.1465801062
H   H32       1.0  0.01057  0.37099  0.24219  1.0000 0.1105108002
H   H33       1.0  0.87421  0.43451  0.40269  1.0000 0.1585248239
H   H34       1.0  0.86885  0.62941  0.32022  1.0000 0.1105108002
H   H35       1.0  0.16444  0.57976  0.12426  1.0000 0.1327047906
H   H36       1.0  0.70868  0.36164  0.35299  1.0000 0.1105108002
H   H37       1.0  0.38850  0.34079  0.37468  1.0000 0.1208327349
H   H38       1.0  0.48208  0.59731  0.43456  1.0000 0.1401965368
H   H39       1.0  0.07126  0.70293  0.15343  1.0000 0.1208327349
H   H40       1.0  0.26686  0.45378  0.10198  1.0000 0.1401965368
H   H41       1.0  0.47815  0.69504  0.73565  1.0000 0.1208327349
H   H42       1.0  0.83779  0.12968  0.79238  1.0000 0.1105108002
H   H43       1.0  0.38232  0.99423  0.72840  1.0000 0.1105108002
H   H44       1.0  0.42887  0.64236  0.81407  1.0000 0.1105108002
H   H45       1.0  0.22100  0.82770  0.77248  1.0000 0.1208327349
H   H46       1.0  0.32177  0.11565  0.88063  1.0000 0.1585248239
H   H47       1.0  0.53396  0.75823  0.66010  1.0000 0.1401965368
H   H48       1.0  0.50712  0.71317  0.88389  1.0000 0.1208327349
H   H49       1.0  0.16272  0.06688  0.74352  1.0000 0.1208327349
H   H50       1.0  0.92910  0.22656  0.73758  1.0000 0.1208327349
H   H51       1.0  0.93502  0.99807  0.94876  1.0000 0.1465801062
H   H52       1.0  0.98943  0.87099  0.74219  1.0000 0.1105108002
H   H53       1.0  0.12579  0.93451  0.90269  1.0000 0.1585248239
H   H54       1.0  0.13115  0.12941  0.82022  1.0000 0.1105108002
H   H55       1.0  0.83556  0.07976  0.62426  1.0000 0.1327047906
H   H56       1.0  0.29132  0.86164  0.85299  1.0000 0.1105108002
H   H57       1.0  0.61150  0.84079  0.87468  1.0000 0.1208327349
H   H58       1.0  0.51792  0.09731  0.93456  1.0000 0.1401965368
H   H59       1.0  0.92874  0.20293  0.65343  1.0000 0.1208327349
H   H60       1.0  0.73314  0.95378  0.60198  1.0000 0.1401965368
H   H61       1.0  0.52185  0.69504  0.26435  1.0000 0.1208327349
H   H62       1.0  0.16221  0.12968  0.20762  1.0000 0.1105108002
H   H63       1.0  0.61768  0.99423  0.27160  1.0000 0.1105108002
H   H64       1.0  0.57113  0.64236  0.18593  1.0000 0.1105108002
H   H65       1.0  0.77900  0.82770  0.22752  1.0000 0.1208327349
H   H66       1.0  0.67823  0.11565  0.11937  1.0000 0.1585248239
H   H67       1.0  0.46604  0.75823  0.33990  1.0000 0.1401965368
H   H68       1.0  0.49288  0.71317  0.11611  1.0000 0.1208327349
H   H69       1.0  0.83728  0.06688  0.25648  1.0000 0.1208327349
H   H70       1.0  0.07090  0.22656  0.26242  1.0000 0.1208327349
H   H71       1.0  0.06498  0.99807  0.05124  1.0000 0.1465801062
H   H72       1.0  0.01057  0.87099  0.25781  1.0000 0.1105108002
H   H73       1.0  0.87421  0.93451  0.09731  1.0000 0.1585248239
H   H74       1.0  0.86885  0.12941  0.17978  1.0000 0.1105108002
H   H75       1.0  0.16444  0.07976  0.37574  1.0000 0.1327047906
H   H76       1.0  0.70868  0.86164  0.14701  1.0000 0.1105108002
H   H77       1.0  0.38850  0.84079  0.12532  1.0000 0.1208327349
H   H78       1.0  0.48208  0.09731  0.06544  1.0000 0.1401965368
H   H79       1.0  0.07126  0.20293  0.34657  1.0000 0.1208327349
H   H80       1.0  0.26686  0.95378  0.39802  1.0000 0.1401965368
Ru  Ru1       1.0  0.69447  0.45651  0.71497  1.0000 0.462426074
Ru  Ru2       1.0  0.30553  0.45651  0.28503  1.0000 0.462426074
Ru  Ru3       1.0  0.69447  0.95651  0.78503  1.0000 0.462426074
Ru  Ru4       1.0  0.30553  0.95651  0.21497  1.0000 0.462426074
C   C1        1.0  0.60510  0.33870  0.78830  1.0000 0.1327047906
C   C2        1.0  0.57220  0.29980  0.74020  1.0000 0.1465801062
C   C3        1.0  0.50430  0.22390  0.73600  1.0000 -0.180804793
C   C4        1.0  0.83530  0.61940  0.74160  1.0000 0.0310434943
C   C5        1.0  0.46270  0.55020  0.66190  1.0000 0.1401965368
C   C6        1.0  0.73110  0.55310  0.54950  1.0000 0.0310434943
C   C7        1.0  0.37070  0.51980  0.74110  1.0000 0.0186054475
C   C8        1.0  0.47650  0.19210  0.68930  1.0000 -0.0602911709
C   C9        1.0  0.74290  0.58160  0.49650  1.0000 0.5669260101
C   C10       1.0  0.71480  0.45750  0.82210  1.0000 0.1401965368
C   C11       1.0  0.77820  0.53510  0.80780  1.0000 0.1208327349
C   C12       1.0  0.15520  0.35700  0.70730  1.0000 -0.1683803795
C   C13       1.0  0.33350  0.59230  0.65060  1.0000 -0.1540494634
C   C14       1.0  0.58120  0.30780  0.83560  1.0000 -0.2020456417
C   C15       1.0  0.52010  0.23500  0.64770  1.0000 -0.1600427911
C   C16       1.0  0.23770  0.56300  0.73210  1.0000 -0.1683803795
C   C17       1.0  0.89170  0.67810  0.77480  1.0000 -0.1683803795
C   C18       1.0  0.59300  0.54000  0.62660  1.0000 0.1585248239
C   C19       1.0  0.84890  0.51010  0.57000  1.0000 -0.1600427911
C   C20       1.0  0.01420  0.38140  0.72480  1.0000 0.0186054475
C   C21       1.0  0.83850  0.48460  0.61940  1.0000 0.1465801062
C   C22       1.0  0.95510  0.44010  0.64790  1.0000 0.1327047906
C   C23       1.0  0.09750  0.41970  0.62940  1.0000 -0.1600427911
C   C24       1.0  0.21880  0.59990  0.68650  1.0000 -0.051169747
C   C25       1.0  0.83530  0.59120  0.84190  1.0000 -0.180804793
C   C26       1.0  0.62920  0.35230  0.87670  1.0000 0.0526233541
C   C27       1.0  0.19650  0.37700  0.65920  1.0000 -0.051169747
C   C28       1.0  0.58400  0.31140  0.65340  1.0000 -0.0059592663
C   C29       1.0  0.59920  0.56840  0.57870  1.0000 -0.180804793
C   C30       1.0  0.89180  0.66440  0.82450  1.0000 -0.051169747
C   C31       1.0  0.69780  0.42530  0.87050  1.0000 -0.186699981
C   C32       1.0  0.61170  0.32020  0.92940  1.0000 0.5547496157
C   C33       1.0  0.39490  0.33870  0.21170  1.0000 0.1327047906
C   C34       1.0  0.42780  0.29980  0.25980  1.0000 0.1465801062
C   C35       1.0  0.49570  0.22390  0.26400  1.0000 -0.180804793
C   C36       1.0  0.16470  0.61940  0.25840  1.0000 0.0310434943
C   C37       1.0  0.53730  0.55020  0.33810  1.0000 0.1401965368
C   C38       1.0  0.26890  0.55310  0.45050  1.0000 0.0310434943
C   C39       1.0  0.62930  0.51980  0.25890  1.0000 0.0186054475
C   C40       1.0  0.52350  0.19210  0.31070  1.0000 -0.0602911709
C   C41       1.0  0.25710  0.58160  0.50350  1.0000 0.5669260101
C   C42       1.0  0.28520  0.45750  0.17790  1.0000 0.1401965368
C   C43       1.0  0.22180  0.53510  0.19220  1.0000 0.1208327349
C   C44       1.0  0.84480  0.35700  0.29270  1.0000 -0.1683803795
C   C45       1.0  0.66650  0.59230  0.34940  1.0000 -0.1540494634
C   C46       1.0  0.41880  0.30780  0.16440  1.0000 -0.2020456417
C   C47       1.0  0.47990  0.23500  0.35230  1.0000 -0.1600427911
C   C48       1.0  0.76230  0.56300  0.26790  1.0000 -0.1683803795
C   C49       1.0  0.10830  0.67810  0.22520  1.0000 -0.1683803795
C   C50       1.0  0.40700  0.54000  0.37340  1.0000 0.1585248239
C   C51       1.0  0.15110  0.51010  0.43000  1.0000 -0.1600427911
C   C52       1.0  0.98580  0.38140  0.27520  1.0000 0.0186054475
C   C53       1.0  0.16150  0.48460  0.38060  1.0000 0.1465801062
C   C54       1.0  0.04490  0.44010  0.35210  1.0000 0.1327047906
C   C55       1.0  0.90250  0.41970  0.37060  1.0000 -0.1600427911
C   C56       1.0  0.78120  0.59990  0.31350  1.0000 -0.051169747
C   C57       1.0  0.16470  0.59120  0.15810  1.0000 -0.186699981
C   C58       1.0  0.37080  0.35230  0.12330  1.0000 0.0526233541
C   C59       1.0  0.80350  0.37700  0.34080  1.0000 -0.051169747
C   C60       1.0  0.41600  0.31140  0.34660  1.0000 -0.0059592663
C   C61       1.0  0.40080  0.56840  0.42130  1.0000 -0.180804793
C   C62       1.0  0.10820  0.66440  0.17550  1.0000 -0.051169747
C   C63       1.0  0.30220  0.42530  0.12950  1.0000 -0.186699981
C   C64       1.0  0.38830  0.32020  0.07060  1.0000 0.5547496157
C   C65       1.0  0.60510  0.83870  0.71170  1.0000 0.1327047906
C   C66       1.0  0.57220  0.79980  0.75980  1.0000 0.1401965368
C   C67       1.0  0.50430  0.72390  0.76400  1.0000 -0.180804793
C   C68       1.0  0.83530  0.11940  0.75840  1.0000 0.0310434943
C   C69       1.0  0.46270  0.05020  0.83810  1.0000 0.1401965368
C   C70       1.0  0.73110  0.05310  0.95050  1.0000 0.0310434943
C   C71       1.0  0.37070  0.01980  0.75890  1.0000 0.0186054475
C   C72       1.0  0.47650  0.69210  0.81070  1.0000 -0.0602911709
C   C73       1.0  0.74290  0.08160  0.00350  1.0000 0.5669260101
C   C74       1.0  0.71480  0.95750  0.67790  1.0000 0.1401965368
C   C75       1.0  0.77820  0.03510  0.69220  1.0000 0.1208327349
C   C76       1.0  0.15520  0.85700  0.79270  1.0000 -0.1683803795
C   C77       1.0  0.33350  0.09230  0.84940  1.0000 -0.1540494634
C   C78       1.0  0.58120  0.80780  0.66440  1.0000 -0.2020456417
C   C79       1.0  0.52010  0.73500  0.85230  1.0000 -0.1600427911
C   C80       1.0  0.23770  0.06300  0.76790  1.0000 -0.1683803795
C   C81       1.0  0.89170  0.17810  0.72520  1.0000 -0.1683803795
C   C82       1.0  0.59300  0.04000  0.87340  1.0000 0.1585248239
C   C83       1.0  0.84890  0.01010  0.93000  1.0000 -0.1600427911
C   C84       1.0  0.01420  0.88140  0.77520  1.0000 0.0186054475
C   C85       1.0  0.83850  0.98460  0.88060  1.0000 0.1465801062
C   C86       1.0  0.95510  0.94010  0.85210  1.0000 0.1327047906
C   C87       1.0  0.09750  0.91970  0.87060  1.0000 -0.1600427911
C   C88       1.0  0.21880  0.09990  0.81350  1.0000 -0.051169747
C   C89       1.0  0.83530  0.09120  0.65810  1.0000 -0.186699981
C   C90       1.0  0.62920  0.85230  0.62330  1.0000 0.0526233541
C   C91       1.0  0.19650  0.87700  0.84080  1.0000 -0.051169747
C   C92       1.0  0.58400  0.81140  0.84660  1.0000 -0.0059592663
C   C93       1.0  0.59920  0.06840  0.92130  1.0000 -0.180804793
C   C94       1.0  0.89180  0.16440  0.67550  1.0000 -0.051169747
C   C95       1.0  0.69780  0.92530  0.62950  1.0000 -0.186699981
C   C96       1.0  0.61170  0.82020  0.57060  1.0000 0.5547496157
C   C97       1.0  0.39490  0.83870  0.28830  1.0000 0.1327047906
C   C98       1.0  0.42780  0.79980  0.24020  1.0000 0.1401965368
C   C99       1.0  0.49570  0.72390  0.23600  1.0000 -0.180804793
C   C100      1.0  0.16470  0.11940  0.24160  1.0000 0.0310434943
C   C101      1.0  0.53730  0.05020  0.16190  1.0000 0.1401965368
C   C102      1.0  0.26890  0.05310  0.04950  1.0000 0.0310434943
C   C103      1.0  0.62930  0.01980  0.24110  1.0000 0.0186054475
C   C104      1.0  0.52350  0.69210  0.18930  1.0000 -0.0602911709
C   C105      1.0  0.25710  0.08160  0.99650  1.0000 0.5669260101
C   C106      1.0  0.28520  0.95750  0.32210  1.0000 0.1327047906
C   C107      1.0  0.22180  0.03510  0.30780  1.0000 0.1208327349
C   C108      1.0  0.84480  0.85700  0.20730  1.0000 -0.1683803795
C   C109      1.0  0.66650  0.09230  0.15060  1.0000 -0.1540494634
C   C110      1.0  0.41880  0.80780  0.33560  1.0000 -0.2020456417
C   C111      1.0  0.47990  0.73500  0.14770  1.0000 -0.1600427911
C   C112      1.0  0.76230  0.06300  0.23210  1.0000 -0.1683803795
C   C113      1.0  0.10830  0.17810  0.27480  1.0000 -0.1683803795
C   C114      1.0  0.40700  0.04000  0.12660  1.0000 0.1585248239
C   C115      1.0  0.15110  0.01010  0.07000  1.0000 -0.1600427911
C   C116      1.0  0.98580  0.88140  0.22480  1.0000 0.0186054475
C   C117      1.0  0.16150  0.98460  0.11940  1.0000 0.1465801062
C   C118      1.0  0.04490  0.94010  0.14790  1.0000 0.1327047906
C   C119      1.0  0.90250  0.91970  0.12940  1.0000 -0.1600427911
C   C120      1.0  0.78120  0.09990  0.18650  1.0000 -0.051169747
C   C121      1.0  0.16470  0.09120  0.34190  1.0000 -0.186699981
C   C122      1.0  0.37080  0.85230  0.37670  1.0000 0.0526233541
C   C123      1.0  0.80350  0.87700  0.15920  1.0000 -0.051169747
C   C124      1.0  0.41600  0.81140  0.15340  1.0000 -0.0059592663
C   C125      1.0  0.40080  0.06840  0.07870  1.0000 -0.180804793
C   C126      1.0  0.10820  0.16440  0.32450  1.0000 -0.051169747
C   C127      1.0  0.30220  0.92530  0.37050  1.0000 -0.186699981
C   C128      1.0  0.38830  0.82020  0.42940  1.0000 0.5547496157
N   N1        1.0  0.48360  0.51360  0.70710  1.0000 -0.2395349168
N   N2        1.0  0.71060  0.49960  0.64670  1.0000 -0.2517804725
N   N3        1.0  0.77890  0.55010  0.75740  1.0000 -0.2209532613
N   N4        1.0  0.67010  0.41150  0.78300  1.0000 -0.2309706234
N   N5        1.0  0.60650  0.34340  0.69940  1.0000 -0.2209532613
N   N6        1.0  0.91230  0.41930  0.69630  1.0000 -0.2309706234
N   N7        1.0  0.51640  0.51360  0.29290  1.0000 -0.2395349168
N   N8        1.0  0.28940  0.49960  0.35330  1.0000 -0.2517804725
N   N9        1.0  0.22110  0.55010  0.24260  1.0000 -0.2209532613
N   N10       1.0  0.32990  0.41150  0.21700  1.0000 -0.2309706234
N   N11       1.0  0.39350  0.34340  0.30060  1.0000 -0.2209532613
N   N12       1.0  0.08770  0.41930  0.30370  1.0000 -0.2309706234
N   N13       1.0  0.48360  0.01360  0.79290  1.0000 -0.2395349168
N   N14       1.0  0.71060  0.99960  0.85330  1.0000 -0.2517804725
N   N15       1.0  0.77890  0.05010  0.74260  1.0000 -0.2209532613
N   N16       1.0  0.67010  0.91150  0.71700  1.0000 -0.2309706234
N   N17       1.0  0.60650  0.84340  0.80060  1.0000 -0.2209532613
N   N18       1.0  0.91230  0.91930  0.80370  1.0000 -0.2395349168
N   N19       1.0  0.51640  0.01360  0.20710  1.0000 -0.2395349168
N   N20       1.0  0.28940  0.99960  0.14670  1.0000 -0.2517804725
N   N21       1.0  0.22110  0.05010  0.25740  1.0000 -0.2209532613
N   N22       1.0  0.32990  0.91150  0.28300  1.0000 -0.2309706234
N   N23       1.0  0.39350  0.84340  0.19940  1.0000 -0.2209532613
N   N24       1.0  0.08770  0.91930  0.19630  1.0000 -0.2395349168
O   O1        1.0  0.67210  0.64460  0.48400  1.0000 -0.570156209
O   O2        1.0  0.52220  0.25810  0.93290  1.0000 -0.570156209
O   O3        1.0  0.81670  0.54050  0.46790  1.0000 -0.5466503574
O   O4        1.0  0.67560  0.35230  0.96390  1.0000 -0.4709830208
O   O5        1.0  0.32790  0.64460  0.51600  1.0000 -0.570156209
O   O6        1.0  0.47780  0.25810  0.06710  1.0000 -0.570156209
O   O7        1.0  0.18330  0.54050  0.53210  1.0000 -0.5466503574
O   O8        1.0  0.32440  0.35230  0.03610  1.0000 -0.4709830208
O   O9        1.0  0.67210  0.14460  0.01600  1.0000 -0.570156209
O   O10       1.0  0.52220  0.75810  0.56710  1.0000 -0.570156209
O   O11       1.0  0.81670  0.04050  0.03210  1.0000 -0.5466503574
O   O12       1.0  0.67560  0.85230  0.53610  1.0000 -0.4709830208
O   O13       1.0  0.32790  0.14460  0.98400  1.0000 -0.570156209
O   O14       1.0  0.47780  0.75810  0.43290  1.0000 -0.570156209
O   O15       1.0  0.18330  0.04050  0.96790  1.0000 -0.5466503574
O   O16       1.0  0.32440  0.85230  0.46390  1.0000 -0.4709830208
