# DDEC6 charges by PACMAN v1.1 (https://github.com/mtap-research/PACMAN-charge/)
data_2020[Fe][nan]3[ASR]2
_chemical_formula_sum              "Fe9 H78 C142 N18 O34"
_cell_length_a       16.5616
_cell_length_b       16.5616
_cell_length_c       19.797
_cell_angle_alpha    64.5398
_cell_angle_beta     115.46
_cell_angle_gamma    99.6571

_symmetry_space_group_name_H-M    "P 1"
_symmetry_Int_Tables_number       1

loop_
  _symmetry_equiv_pos_as_xyz
  'x, y, z'

loop_
  _atom_site_type_symbol
  _atom_site_label
  _atom_site_symmetry_multiplicity
  _atom_site_fract_x
  _atom_site_fract_y
  _atom_site_fract_z
  _atom_site_occupancy
  _atom_site_charge
Fe  Fe1       1.0  0.14673  0.45211  0.93587  1.0000 0.7874053933
Fe  Fe2       1.0  0.45211  0.14673  0.06413  1.0000 0.7874053933
Fe  Fe3       1.0  0.85327  0.54789  0.06413  1.0000 0.7874053933
Fe  Fe4       1.0  0.54789  0.85327  0.93587  1.0000 0.7874053933
Fe  Fe5       1.0  0.50000  0.50000  0.50000  1.0000 1.2845344462
Fe  Fe6       1.0  0.33899  0.66101  0.33070  1.0000 0.8209131874
Fe  Fe7       1.0  0.66101  0.33899  0.66930  1.0000 0.8209131874
Fe  Fe8       1.0  0.00000  0.50000  0.00000  1.0000 1.1905671277
Fe  Fe9       1.0  0.50000  0.00000  0.00000  1.0000 1.1905671277
H   H1        1.0  0.13760  0.56040  0.64970  1.0000 0.1397797
H   H2        1.0  0.20220  0.52000  0.79740  1.0000 0.1001065683
H   H3        1.0  0.78180  0.76720  0.24480  1.0000 0.10935511
H   H4        1.0  0.84880  0.63660  0.51350  1.0000 0.1295126627
H   H5        1.0  0.96420  0.52900  0.78680  1.0000 0.1218874597
H   H6        1.0  0.52460  0.76740  0.21400  1.0000 0.1295126627
H   H7        1.0  0.89800  0.56320  0.64710  1.0000 0.1397797
H   H8        1.0  0.16980  0.55780  0.51460  1.0000 0.1295126627
H   H9        1.0  0.13360  0.71720  0.24860  1.0000 0.1001065683
H   H10       1.0  0.27880  0.56020  0.47250  1.0000 0.1295126627
H   H11       1.0  0.71140  0.61380  0.43280  1.0000 0.1218874597
H   H12       1.0  0.68290  0.00150  0.93260  1.0000 0.1295126627
H   H13       1.0  0.90220  0.67280  0.32000  1.0000 0.1295126627
H   H14       1.0  0.01390  0.70030  0.28190  1.0000 0.1295126627
H   H15       1.0  0.04260  0.76820  0.91360  1.0000 0.1218874597
H   H16       1.0  0.81720  0.04680  0.91620  1.0000 0.1295126627
H   H17       1.0  0.68590  0.78690  0.89610  1.0000 0.1001065683
H   H18       1.0  0.95510  0.85550  0.89420  1.0000 0.1295126627
H   H19       1.0  0.81730  0.82790  0.87740  1.0000 0.1397797
H   H20       1.0  0.56040  0.13760  0.35030  1.0000 0.1397797
H   H21       1.0  0.52000  0.20220  0.20260  1.0000 0.1001065683
H   H22       1.0  0.76720  0.78180  0.75520  1.0000 0.10935511
H   H23       1.0  0.63660  0.84880  0.48650  1.0000 0.1295126627
H   H24       1.0  0.52900  0.96420  0.21320  1.0000 0.1218874597
H   H25       1.0  0.76740  0.52460  0.78600  1.0000 0.1295126627
H   H26       1.0  0.56320  0.89800  0.35290  1.0000 0.1397797
H   H27       1.0  0.55780  0.16980  0.48540  1.0000 0.1295126627
H   H28       1.0  0.71720  0.13360  0.75140  1.0000 0.1001065683
H   H29       1.0  0.56020  0.27880  0.52750  1.0000 0.1295126627
H   H30       1.0  0.61380  0.71140  0.56720  1.0000 0.1218874597
H   H31       1.0  0.00150  0.68290  0.06740  1.0000 0.1295126627
H   H32       1.0  0.67280  0.90220  0.68000  1.0000 0.1295126627
H   H33       1.0  0.70030  0.01390  0.71810  1.0000 0.1295126627
H   H34       1.0  0.76820  0.04260  0.08640  1.0000 0.1218874597
H   H35       1.0  0.04680  0.81720  0.08380  1.0000 0.1295126627
H   H36       1.0  0.78690  0.68590  0.10390  1.0000 0.1001065683
H   H37       1.0  0.85550  0.95510  0.10580  1.0000 0.1295126627
H   H38       1.0  0.82790  0.81730  0.12260  1.0000 0.1397797
H   H39       1.0  0.86240  0.43960  0.35030  1.0000 0.1397797
H   H40       1.0  0.79780  0.48000  0.20260  1.0000 0.1001065683
H   H41       1.0  0.21820  0.23280  0.75520  1.0000 0.10935511
H   H42       1.0  0.15120  0.36340  0.48650  1.0000 0.1295126627
H   H43       1.0  0.03580  0.47100  0.21320  1.0000 0.1218874597
H   H44       1.0  0.47540  0.23260  0.78600  1.0000 0.1295126627
H   H45       1.0  0.10200  0.43680  0.35290  1.0000 0.1397797
H   H46       1.0  0.83020  0.44220  0.48540  1.0000 0.1295126627
H   H47       1.0  0.86640  0.28280  0.75140  1.0000 0.1001065683
H   H48       1.0  0.72120  0.43980  0.52750  1.0000 0.1295126627
H   H49       1.0  0.28860  0.38620  0.56720  1.0000 0.1218874597
H   H50       1.0  0.31710  0.99850  0.06740  1.0000 0.1295126627
H   H51       1.0  0.09780  0.32720  0.68000  1.0000 0.1295126627
H   H52       1.0  0.98610  0.29970  0.71810  1.0000 0.1295126627
H   H53       1.0  0.95740  0.23180  0.08640  1.0000 0.1218874597
H   H54       1.0  0.18280  0.95320  0.08380  1.0000 0.1295126627
H   H55       1.0  0.31410  0.21310  0.10390  1.0000 0.1001065683
H   H56       1.0  0.04490  0.14450  0.10580  1.0000 0.1295126627
H   H57       1.0  0.18270  0.17210  0.12260  1.0000 0.1397797
H   H58       1.0  0.43960  0.86240  0.64970  1.0000 0.1397797
H   H59       1.0  0.48000  0.79780  0.79740  1.0000 0.1001065683
H   H60       1.0  0.23280  0.21820  0.24480  1.0000 0.10935511
H   H61       1.0  0.36340  0.15120  0.51350  1.0000 0.1295126627
H   H62       1.0  0.47100  0.03580  0.78680  1.0000 0.1218874597
H   H63       1.0  0.23260  0.47540  0.21400  1.0000 0.1295126627
H   H64       1.0  0.43680  0.10200  0.64710  1.0000 0.1397797
H   H65       1.0  0.44220  0.83020  0.51460  1.0000 0.1295126627
H   H66       1.0  0.28280  0.86640  0.24860  1.0000 0.1001065683
H   H67       1.0  0.43980  0.72120  0.47250  1.0000 0.1295126627
H   H68       1.0  0.38620  0.28860  0.43280  1.0000 0.1218874597
H   H69       1.0  0.99850  0.31710  0.93260  1.0000 0.1295126627
H   H70       1.0  0.32720  0.09780  0.32000  1.0000 0.1295126627
H   H71       1.0  0.29970  0.98610  0.28190  1.0000 0.1295126627
H   H72       1.0  0.23180  0.95740  0.91360  1.0000 0.1218874597
H   H73       1.0  0.95320  0.18280  0.91620  1.0000 0.1295126627
H   H74       1.0  0.21310  0.31410  0.89610  1.0000 0.1001065683
H   H75       1.0  0.14450  0.04490  0.89420  1.0000 0.1295126627
H   H76       1.0  0.17210  0.18270  0.87740  1.0000 0.1397797
H   H77       1.0  0.28810  0.71190  0.94240  1.0000 0.1295126627
H   H78       1.0  0.71190  0.28810  0.05760  1.0000 0.1295126627
C   C1        1.0  0.60580  0.82460  0.11420  1.0000 0.2714623727
C   C2        1.0  0.10000  0.55640  0.67610  1.0000 -0.1901251284
C   C3        1.0  0.64880  0.77640  0.21530  1.0000 0.0336944333
C   C4        1.0  0.13940  0.52820  0.76670  1.0000 0.0820837797
C   C5        1.0  0.73750  0.74730  0.26650  1.0000 -0.1613453112
C   C6        1.0  0.76300  0.68900  0.34980  1.0000 0.0533705928
C   C7        1.0  0.88830  0.63490  0.49060  1.0000 -0.242128589
C   C8        1.0  0.85790  0.66150  0.40520  1.0000 0.1295126627
C   C9        1.0  0.00100  0.53320  0.75950  1.0000 0.10935511
C   C10       1.0  0.58430  0.74490  0.24680  1.0000 -0.1215147644
C   C11       1.0  0.96130  0.55830  0.67480  1.0000 -0.1901251284
C   C12       1.0  0.01260  0.57600  0.63160  1.0000 0.0868154111
C   C13       1.0  0.97680  0.60660  0.54040  1.0000 0.2080303498
C   C14       1.0  0.15960  0.58960  0.45860  1.0000 -0.1748410843
C   C15       1.0  0.14070  0.68090  0.30330  1.0000 0.0533705928
C   C16       1.0  0.22470  0.59290  0.43290  1.0000 0.0820837797
C   C17       1.0  0.69610  0.65510  0.37760  1.0000 -0.1479662291
C   C18       1.0  0.07900  0.63300  0.40260  1.0000 0.0868154111
C   C19       1.0  0.71160  0.96480  0.92300  1.0000 0.1001065683
C   C20       1.0  0.92030  0.65750  0.37660  1.0000 -0.2290404521
C   C21       1.0  0.07030  0.67470  0.32370  1.0000 -0.1995561167
C   C22       1.0  0.00830  0.63150  0.42970  1.0000 0.196556275
C   C23       1.0  0.10120  0.78680  0.91670  1.0000 -0.1395134114
C   C24       1.0  0.92160  0.97000  0.89050  1.0000 0.196556275
C   C25       1.0  0.79150  0.99230  0.91240  1.0000 -0.1995561167
C   C26       1.0  0.71380  0.84000  0.90140  1.0000 0.0575638891
C   C27       1.0  0.60610  0.67990  0.32670  1.0000 -0.041429295
C   C28       1.0  0.16010  0.72630  0.92950  1.0000 -0.0133196654
C   C29       1.0  0.13380  0.63040  0.94540  1.0000 0.5791222372
C   C30       1.0  0.97600  0.91280  0.89360  1.0000 -0.2240356537
C   C31       1.0  0.83340  0.94180  0.89650  1.0000 0.0868154111
C   C32       1.0  0.79200  0.86440  0.88990  1.0000 -0.1901251284
C   C33       1.0  0.53580  0.64500  0.35780  1.0000 0.5791222372
C   C34       1.0  0.64770  0.88050  0.14890  1.0000 0.2238263555
C   C35       1.0  0.82460  0.60580  0.88580  1.0000 0.2714623727
C   C36       1.0  0.55640  0.10000  0.32390  1.0000 -0.1901251284
C   C37       1.0  0.77640  0.64880  0.78470  1.0000 0.0336944333
C   C38       1.0  0.52820  0.13940  0.23330  1.0000 0.0820837797
C   C39       1.0  0.74730  0.73750  0.73350  1.0000 -0.1613453112
C   C40       1.0  0.68900  0.76300  0.65020  1.0000 0.0533705928
C   C41       1.0  0.63490  0.88830  0.50940  1.0000 -0.242128589
C   C42       1.0  0.66150  0.85790  0.59480  1.0000 0.1295126627
C   C43       1.0  0.53320  0.00100  0.24050  1.0000 0.10935511
C   C44       1.0  0.74490  0.58430  0.75320  1.0000 -0.1215147644
C   C45       1.0  0.55830  0.96130  0.32520  1.0000 -0.1901251284
C   C46       1.0  0.57600  0.01260  0.36840  1.0000 0.0868154111
C   C47       1.0  0.60660  0.97680  0.45960  1.0000 0.2080303498
C   C48       1.0  0.58960  0.15960  0.54140  1.0000 -0.1748410843
C   C49       1.0  0.68090  0.14070  0.69670  1.0000 0.0533705928
C   C50       1.0  0.59290  0.22470  0.56710  1.0000 0.0820837797
C   C51       1.0  0.65510  0.69610  0.62240  1.0000 -0.1479662291
C   C52       1.0  0.63300  0.07900  0.59740  1.0000 0.0868154111
C   C53       1.0  0.96480  0.71160  0.07700  1.0000 0.1001065683
C   C54       1.0  0.65750  0.92030  0.62340  1.0000 -0.2290404521
C   C55       1.0  0.67470  0.07030  0.67630  1.0000 -0.1995561167
C   C56       1.0  0.63150  0.00830  0.57030  1.0000 0.196556275
C   C57       1.0  0.78680  0.10120  0.08330  1.0000 -0.1395134114
C   C58       1.0  0.97000  0.92160  0.10950  1.0000 0.196556275
C   C59       1.0  0.99230  0.79150  0.08760  1.0000 -0.1995561167
C   C60       1.0  0.84000  0.71380  0.09860  1.0000 0.0575638891
C   C61       1.0  0.67990  0.60610  0.67330  1.0000 -0.041429295
C   C62       1.0  0.72630  0.16010  0.07050  1.0000 -0.0133196654
C   C63       1.0  0.63040  0.13380  0.05460  1.0000 0.5791222372
C   C64       1.0  0.91280  0.97600  0.10640  1.0000 -0.2240356537
C   C65       1.0  0.94180  0.83340  0.10350  1.0000 0.0868154111
C   C66       1.0  0.86440  0.79200  0.11010  1.0000 -0.1901251284
C   C67       1.0  0.64500  0.53580  0.64220  1.0000 0.5791222372
C   C68       1.0  0.88050  0.64770  0.85110  1.0000 0.2238263555
C   C69       1.0  0.39420  0.17540  0.88580  1.0000 0.2714623727
C   C70       1.0  0.90000  0.44360  0.32390  1.0000 -0.1901251284
C   C71       1.0  0.35120  0.22360  0.78470  1.0000 0.0336944333
C   C72       1.0  0.86060  0.47180  0.23330  1.0000 0.0820837797
C   C73       1.0  0.26250  0.25270  0.73350  1.0000 -0.1613453112
C   C74       1.0  0.23700  0.31100  0.65020  1.0000 0.0533705928
C   C75       1.0  0.11170  0.36510  0.50940  1.0000 -0.242128589
C   C76       1.0  0.14210  0.33850  0.59480  1.0000 0.1295126627
C   C77       1.0  0.99900  0.46680  0.24050  1.0000 0.10935511
C   C78       1.0  0.41570  0.25510  0.75320  1.0000 -0.1215147644
C   C79       1.0  0.03870  0.44170  0.32520  1.0000 -0.1901251284
C   C80       1.0  0.98740  0.42400  0.36840  1.0000 0.0868154111
C   C81       1.0  0.02320  0.39340  0.45960  1.0000 0.2080303498
C   C82       1.0  0.84040  0.41040  0.54140  1.0000 -0.1748410843
C   C83       1.0  0.85930  0.31910  0.69670  1.0000 0.0533705928
C   C84       1.0  0.77530  0.40710  0.56710  1.0000 0.0820837797
C   C85       1.0  0.30390  0.34490  0.62240  1.0000 -0.1479662291
C   C86       1.0  0.92100  0.36700  0.59740  1.0000 0.0868154111
C   C87       1.0  0.28840  0.03520  0.07700  1.0000 0.1001065683
C   C88       1.0  0.07970  0.34250  0.62340  1.0000 -0.2290404521
C   C89       1.0  0.92970  0.32530  0.67630  1.0000 -0.1995561167
C   C90       1.0  0.99170  0.36850  0.57030  1.0000 0.196556275
C   C91       1.0  0.89880  0.21320  0.08330  1.0000 -0.1395134114
C   C92       1.0  0.07840  0.03000  0.10950  1.0000 0.196556275
C   C93       1.0  0.20850  0.00770  0.08760  1.0000 -0.1995561167
C   C94       1.0  0.28620  0.16000  0.09860  1.0000 0.0575638891
C   C95       1.0  0.39390  0.32010  0.67330  1.0000 -0.041429295
C   C96       1.0  0.83990  0.27370  0.07050  1.0000 -0.0133196654
C   C97       1.0  0.86620  0.36960  0.05460  1.0000 0.5791222372
C   C98       1.0  0.02400  0.08720  0.10640  1.0000 -0.2240356537
C   C99       1.0  0.16660  0.05820  0.10350  1.0000 0.0868154111
C   C100      1.0  0.20800  0.13560  0.11010  1.0000 -0.1901251284
C   C101      1.0  0.46420  0.35500  0.64220  1.0000 0.5791222372
C   C102      1.0  0.35230  0.11950  0.85110  1.0000 0.2238263555
C   C103      1.0  0.17540  0.39420  0.11420  1.0000 0.2714623727
C   C104      1.0  0.44360  0.90000  0.67610  1.0000 -0.1901251284
C   C105      1.0  0.22360  0.35120  0.21530  1.0000 0.0336944333
C   C106      1.0  0.47180  0.86060  0.76670  1.0000 0.0820837797
C   C107      1.0  0.25270  0.26250  0.26650  1.0000 -0.1613453112
C   C108      1.0  0.31100  0.23700  0.34980  1.0000 0.0533705928
C   C109      1.0  0.36510  0.11170  0.49060  1.0000 -0.242128589
C   C110      1.0  0.33850  0.14210  0.40520  1.0000 0.1295126627
C   C111      1.0  0.46680  0.99900  0.75950  1.0000 0.10935511
C   C112      1.0  0.25510  0.41570  0.24680  1.0000 -0.1215147644
C   C113      1.0  0.44170  0.03870  0.67480  1.0000 -0.1901251284
C   C114      1.0  0.42400  0.98740  0.63160  1.0000 0.0868154111
C   C115      1.0  0.39340  0.02320  0.54040  1.0000 0.2080303498
C   C116      1.0  0.41040  0.84040  0.45860  1.0000 -0.1748410843
C   C117      1.0  0.31910  0.85930  0.30330  1.0000 0.0533705928
C   C118      1.0  0.40710  0.77530  0.43290  1.0000 0.0820837797
C   C119      1.0  0.34490  0.30390  0.37760  1.0000 -0.1479662291
C   C120      1.0  0.36700  0.92100  0.40260  1.0000 0.0868154111
C   C121      1.0  0.03520  0.28840  0.92300  1.0000 0.1001065683
C   C122      1.0  0.34250  0.07970  0.37660  1.0000 -0.2290404521
C   C123      1.0  0.32530  0.92970  0.32370  1.0000 -0.1995561167
C   C124      1.0  0.36850  0.99170  0.42970  1.0000 0.196556275
C   C125      1.0  0.21320  0.89880  0.91670  1.0000 -0.1395134114
C   C126      1.0  0.03000  0.07840  0.89050  1.0000 0.196556275
C   C127      1.0  0.00770  0.20850  0.91240  1.0000 -0.1995561167
C   C128      1.0  0.16000  0.28620  0.90140  1.0000 0.0575638891
C   C129      1.0  0.32010  0.39390  0.32670  1.0000 -0.041429295
C   C130      1.0  0.27370  0.83990  0.92950  1.0000 -0.0133196654
C   C131      1.0  0.36960  0.86620  0.94540  1.0000 0.5791222372
C   C132      1.0  0.08720  0.02400  0.89360  1.0000 -0.2240356537
C   C133      1.0  0.05820  0.16660  0.89650  1.0000 0.0868154111
C   C134      1.0  0.13560  0.20800  0.88990  1.0000 -0.1901251284
C   C135      1.0  0.35500  0.46420  0.35780  1.0000 0.5791222372
C   C136      1.0  0.11950  0.35230  0.14890  1.0000 0.2238263555
C   C137      1.0  0.24760  0.75240  0.93510  1.0000 -0.1395134114
C   C138      1.0  0.06170  0.93830  0.89580  1.0000 0.1397797
C   C139      1.0  0.12560  0.87440  0.90830  1.0000 0.0533705928
C   C140      1.0  0.75240  0.24760  0.06490  1.0000 -0.1395134114
C   C141      1.0  0.93830  0.06170  0.10420  1.0000 0.1397797
C   C142      1.0  0.87440  0.12560  0.09170  1.0000 0.0533705928
N   N1        1.0  0.03600  0.60540  0.51180  1.0000 -0.3151089333
N   N2        1.0  0.08600  0.51540  0.80230  1.0000 -0.1995561167
N   N3        1.0  0.21850  0.63850  0.35640  1.0000 -0.2240356537
N   N4        1.0  0.67540  0.88800  0.91990  1.0000 -0.2240356537
N   N5        1.0  0.60540  0.03600  0.48820  1.0000 -0.3151089333
N   N6        1.0  0.51540  0.08600  0.19770  1.0000 -0.1995561167
N   N7        1.0  0.63850  0.21850  0.64360  1.0000 -0.2240356537
N   N8        1.0  0.88800  0.67540  0.08010  1.0000 -0.2240356537
N   N9        1.0  0.96400  0.39460  0.48820  1.0000 -0.3151089333
N   N10       1.0  0.91400  0.48460  0.19770  1.0000 -0.1995561167
N   N11       1.0  0.78150  0.36150  0.64360  1.0000 -0.2240356537
N   N12       1.0  0.32460  0.11200  0.08010  1.0000 -0.2240356537
N   N13       1.0  0.39460  0.96400  0.51180  1.0000 -0.3151089333
N   N14       1.0  0.48460  0.91400  0.80230  1.0000 -0.1995561167
N   N15       1.0  0.36150  0.78150  0.35640  1.0000 -0.2240356537
N   N16       1.0  0.11200  0.32460  0.91990  1.0000 -0.2240356537
N   N17       1.0  0.94790  0.05210  0.89010  1.0000 -0.3444695554
N   N18       1.0  0.05210  0.94790  0.10990  1.0000 -0.3444695554
O   O1        1.0  0.46155  0.68105  0.31800  1.0000 -0.5021902926
O   O2        1.0  0.03023  0.45183  0.94000  1.0000 -0.6047285281
O   O3        1.0  0.62650  0.80830  0.06650  1.0000 -0.4398221157
O   O4        1.0  0.56042  0.57498  0.42520  1.0000 -0.5182257376
O   O5        1.0  0.06690  0.61050  0.96450  1.0000 -0.4780036889
O   O6        1.0  0.17350  0.58130  0.93820  1.0000 -0.5021902926
O   O7        1.0  0.55540  0.89260  0.09980  1.0000 -0.297249683
O   O8        1.0  0.72260  0.91560  0.13030  1.0000 -0.512906336
O   O9        1.0  0.68105  0.46155  0.68200  1.0000 -0.5021902926
O   O10       1.0  0.45183  0.03023  0.06000  1.0000 -0.6047285281
O   O11       1.0  0.80830  0.62650  0.93350  1.0000 -0.4398221157
O   O12       1.0  0.57498  0.56042  0.57480  1.0000 -0.5182257376
O   O13       1.0  0.61050  0.06690  0.03550  1.0000 -0.4780036889
O   O14       1.0  0.58130  0.17350  0.06180  1.0000 -0.5021902926
O   O15       1.0  0.89260  0.55540  0.90020  1.0000 -0.297249683
O   O16       1.0  0.91560  0.72260  0.86970  1.0000 -0.512906336
O   O17       1.0  0.53845  0.31895  0.68200  1.0000 -0.5021902926
O   O18       1.0  0.96977  0.54817  0.06000  1.0000 -0.6054189883
O   O19       1.0  0.37350  0.19170  0.93350  1.0000 -0.4398221157
O   O20       1.0  0.43958  0.42502  0.57480  1.0000 -0.5182257376
O   O21       1.0  0.93310  0.38950  0.03550  1.0000 -0.4780036889
O   O22       1.0  0.82650  0.41870  0.06180  1.0000 -0.5021902926
O   O23       1.0  0.44460  0.10740  0.90020  1.0000 -0.297249683
O   O24       1.0  0.27740  0.08440  0.86970  1.0000 -0.512906336
O   O25       1.0  0.31895  0.53845  0.31800  1.0000 -0.5021902926
O   O26       1.0  0.54817  0.96977  0.94000  1.0000 -0.6047285281
O   O27       1.0  0.19170  0.37350  0.06650  1.0000 -0.4398221157
O   O28       1.0  0.42502  0.43958  0.42520  1.0000 -0.5182257376
O   O29       1.0  0.38950  0.93310  0.96450  1.0000 -0.4780036889
O   O30       1.0  0.41870  0.82650  0.93820  1.0000 -0.5021902926
O   O31       1.0  0.10740  0.44460  0.09980  1.0000 -0.297249683
O   O32       1.0  0.08440  0.27740  0.13030  1.0000 -0.512906336
O   O33       1.0  0.40924  0.59076  0.45170  1.0000 -0.6552121125
O   O34       1.0  0.59076  0.40924  0.54830  1.0000 -0.6540896378
