# DDEC6 charges by PACMAN v1.1 (https://github.com/mtap-research/PACMAN-charge/)
data_2020[Cu][sql]2[ASR]15
_chemical_formula_sum              "Cu4 H32 C68 O16 F24"
_cell_length_a       15.1124
_cell_length_b       15.1124
_cell_length_c       23.594
_cell_angle_alpha    61.2562
_cell_angle_beta     118.744
_cell_angle_gamma    153.261

_symmetry_space_group_name_H-M    "P 1"
_symmetry_Int_Tables_number       1

loop_
  _symmetry_equiv_pos_as_xyz
  'x, y, z'

loop_
  _atom_site_type_symbol
  _atom_site_label
  _atom_site_symmetry_multiplicity
  _atom_site_fract_x
  _atom_site_fract_y
  _atom_site_fract_z
  _atom_site_occupancy
  _atom_site_charge
Cu  Cu1       1.0  0.87866  0.81862  0.51982  1.0000 0.82811105
Cu  Cu2       1.0  0.81862  0.87866  0.98018  1.0000 0.82811105
Cu  Cu3       1.0  0.12134  0.18138  0.48018  1.0000 0.82811105
Cu  Cu4       1.0  0.18138  0.12134  0.01982  1.0000 0.82811105
H   H1        1.0  0.81086  0.10220  0.28901  1.0000 0.1273649732
H   H2        1.0  0.61227  0.00859  0.18864  1.0000 0.1129161774
H   H3        1.0  0.25951  0.45769  0.24629  1.0000 0.123019422
H   H4        1.0  0.45365  0.54787  0.34654  1.0000 0.1273649732
H   H5        1.0  0.49784  0.69932  0.14232  1.0000 0.123019422
H   H6        1.0  0.42633  0.52465  0.10147  1.0000 0.1273649732
H   H7        1.0  0.85556  0.12872  0.04862  1.0000 0.123019422
H   H8        1.0  0.92556  0.30348  0.08795  1.0000 0.1129161774
H   H9        1.0  0.10220  0.81086  0.21099  1.0000 0.1273649732
H   H10       1.0  0.00859  0.61227  0.31136  1.0000 0.1129161774
H   H11       1.0  0.45769  0.25951  0.25371  1.0000 0.123019422
H   H12       1.0  0.54787  0.45365  0.15346  1.0000 0.1273649732
H   H13       1.0  0.69932  0.49784  0.35768  1.0000 0.123019422
H   H14       1.0  0.52465  0.42633  0.39853  1.0000 0.1273649732
H   H15       1.0  0.12872  0.85556  0.45138  1.0000 0.123019422
H   H16       1.0  0.30348  0.92556  0.41205  1.0000 0.1129161774
H   H17       1.0  0.18914  0.89780  0.71099  1.0000 0.1273649732
H   H18       1.0  0.38773  0.99141  0.81136  1.0000 0.1129161774
H   H19       1.0  0.74049  0.54231  0.75371  1.0000 0.123019422
H   H20       1.0  0.54635  0.45213  0.65346  1.0000 0.1273649732
H   H21       1.0  0.50216  0.30068  0.85768  1.0000 0.123019422
H   H22       1.0  0.57367  0.47535  0.89853  1.0000 0.1273649732
H   H23       1.0  0.14444  0.87128  0.95138  1.0000 0.123019422
H   H24       1.0  0.07444  0.69652  0.91205  1.0000 0.1129161774
H   H25       1.0  0.89780  0.18914  0.78901  1.0000 0.1273649732
H   H26       1.0  0.99141  0.38773  0.68864  1.0000 0.1129161774
H   H27       1.0  0.54231  0.74049  0.74629  1.0000 0.123019422
H   H28       1.0  0.45213  0.54635  0.84654  1.0000 0.1273649732
H   H29       1.0  0.30068  0.50216  0.64232  1.0000 0.123019422
H   H30       1.0  0.47535  0.57367  0.60147  1.0000 0.1273649732
H   H31       1.0  0.87128  0.14444  0.54862  1.0000 0.123019422
H   H32       1.0  0.69652  0.07444  0.58795  1.0000 0.1129161774
C   C1        1.0  0.78320  0.89840  0.39190  1.0000 0.5665247713
C   C2        1.0  0.65480  0.83660  0.32810  1.0000 -0.0111035266
C   C3        1.0  0.69890  0.97090  0.28040  1.0000 -0.089286124
C   C4        1.0  0.58160  0.91580  0.22040  1.0000 -0.1573919296
C   C5        1.0  0.41800  0.72400  0.20620  1.0000 0.0718935684
C   C6        1.0  0.37280  0.58960  0.25470  1.0000 -0.1368314947
C   C7        1.0  0.48730  0.64230  0.31450  1.0000 -0.089286124
C   C8        1.0  0.28380  0.65540  0.14080  1.0000 -0.2825669224
C   C9        1.0  0.10890  0.55310  0.15030  1.0000 0.6681594525
C   C10       1.0  0.38960  0.83000  0.08470  1.0000 0.6606439029
C   C11       1.0  0.22120  0.52100  0.11850  1.0000 0.0828061209
C   C12       1.0  0.36720  0.58360  0.12270  1.0000 -0.1492209162
C   C13       1.0  0.32500  0.47980  0.09880  1.0000 -0.089286124
C   C14       1.0  0.13070  0.30670  0.07060  1.0000 -0.0111035266
C   C15       1.0  0.98680  0.24580  0.06740  1.0000 -0.089286124
C   C16       1.0  0.02700  0.34840  0.09070  1.0000 -0.1573919296
C   C17       1.0  0.08140  0.19220  0.04400  1.0000 0.5665247713
C   C18       1.0  0.89840  0.78320  0.10810  1.0000 0.5665247713
C   C19       1.0  0.83660  0.65480  0.17190  1.0000 -0.0111035266
C   C20       1.0  0.97090  0.69890  0.21960  1.0000 -0.089286124
C   C21       1.0  0.91580  0.58160  0.27960  1.0000 -0.1492209162
C   C22       1.0  0.72400  0.41800  0.29380  1.0000 0.0718935684
C   C23       1.0  0.58960  0.37280  0.24530  1.0000 -0.1368314947
C   C24       1.0  0.64230  0.48730  0.18550  1.0000 -0.089286124
C   C25       1.0  0.65540  0.28380  0.35920  1.0000 -0.2825669224
C   C26       1.0  0.55310  0.10890  0.34970  1.0000 0.6681594525
C   C27       1.0  0.83000  0.38960  0.41530  1.0000 0.6606439029
C   C28       1.0  0.52100  0.22120  0.38150  1.0000 0.0828061209
C   C29       1.0  0.58360  0.36720  0.37730  1.0000 -0.1492209162
C   C30       1.0  0.47980  0.32500  0.40120  1.0000 -0.089286124
C   C31       1.0  0.30670  0.13070  0.42940  1.0000 -0.0111035266
C   C32       1.0  0.24580  0.98680  0.43260  1.0000 -0.089286124
C   C33       1.0  0.34840  0.02700  0.40930  1.0000 -0.1573919296
C   C34       1.0  0.19220  0.08140  0.45600  1.0000 0.5665247713
C   C35       1.0  0.21680  0.10160  0.60810  1.0000 0.5665247713
C   C36       1.0  0.34520  0.16340  0.67190  1.0000 -0.0111035266
C   C37       1.0  0.30110  0.02910  0.71960  1.0000 -0.089286124
C   C38       1.0  0.41840  0.08420  0.77960  1.0000 -0.1573919296
C   C39       1.0  0.58200  0.27600  0.79380  1.0000 0.0718935684
C   C40       1.0  0.62720  0.41040  0.74530  1.0000 -0.1368314947
C   C41       1.0  0.51270  0.35770  0.68550  1.0000 -0.089286124
C   C42       1.0  0.71620  0.34460  0.85920  1.0000 -0.2825669224
C   C43       1.0  0.89110  0.44690  0.84970  1.0000 0.6681594525
C   C44       1.0  0.61040  0.17000  0.91530  1.0000 0.6606439029
C   C45       1.0  0.77880  0.47900  0.88150  1.0000 0.0828061209
C   C46       1.0  0.63280  0.41640  0.87730  1.0000 -0.1492209162
C   C47       1.0  0.67500  0.52020  0.90120  1.0000 -0.089286124
C   C48       1.0  0.86930  0.69330  0.92940  1.0000 -0.0111035266
C   C49       1.0  0.01320  0.75420  0.93260  1.0000 -0.089286124
C   C50       1.0  0.97300  0.65160  0.90930  1.0000 -0.1573919296
C   C51       1.0  0.91860  0.80780  0.95600  1.0000 0.5665247713
C   C52       1.0  0.10160  0.21680  0.89190  1.0000 0.5665247713
C   C53       1.0  0.16340  0.34520  0.82810  1.0000 -0.0111035266
C   C54       1.0  0.02910  0.30110  0.78040  1.0000 -0.089286124
C   C55       1.0  0.08420  0.41840  0.72040  1.0000 -0.1573919296
C   C56       1.0  0.27600  0.58200  0.70620  1.0000 0.0718935684
C   C57       1.0  0.41040  0.62720  0.75470  1.0000 -0.1368314947
C   C58       1.0  0.35770  0.51270  0.81450  1.0000 -0.089286124
C   C59       1.0  0.34460  0.71620  0.64080  1.0000 -0.2825669224
C   C60       1.0  0.44690  0.89110  0.65030  1.0000 0.6681594525
C   C61       1.0  0.17000  0.61040  0.58470  1.0000 0.6606439029
C   C62       1.0  0.47900  0.77880  0.61850  1.0000 0.0828061209
C   C63       1.0  0.41640  0.63280  0.62270  1.0000 -0.1492209162
C   C64       1.0  0.52020  0.67500  0.59880  1.0000 -0.089286124
C   C65       1.0  0.69330  0.86930  0.57060  1.0000 -0.0111035266
C   C66       1.0  0.75420  0.01320  0.56740  1.0000 -0.089286124
C   C67       1.0  0.65160  0.97300  0.59070  1.0000 -0.1573919296
C   C68       1.0  0.80780  0.91860  0.54400  1.0000 0.5665247713
O   O1        1.0  0.72920  0.76820  0.43310  1.0000 -0.4969703878
O   O2        1.0  0.91270  0.04450  0.01900  1.0000 -0.4882802542
O   O3        1.0  0.93630  0.07270  0.40010  1.0000 -0.4882802542
O   O4        1.0  0.21980  0.25500  0.05000  1.0000 -0.5137092198
O   O5        1.0  0.76820  0.72920  0.06690  1.0000 -0.4969703878
O   O6        1.0  0.04450  0.91270  0.48100  1.0000 -0.4882802542
O   O7        1.0  0.07270  0.93630  0.09990  1.0000 -0.4882802542
O   O8        1.0  0.25500  0.21980  0.45000  1.0000 -0.5137092198
O   O9        1.0  0.27080  0.23180  0.56690  1.0000 -0.4969703878
O   O10       1.0  0.08730  0.95550  0.98100  1.0000 -0.4882802542
O   O11       1.0  0.06370  0.92730  0.59990  1.0000 -0.4882802542
O   O12       1.0  0.78020  0.74500  0.95000  1.0000 -0.5137092198
O   O13       1.0  0.23180  0.27080  0.93310  1.0000 -0.4969703878
O   O14       1.0  0.95550  0.08730  0.51900  1.0000 -0.4882802542
O   O15       1.0  0.92730  0.06370  0.90010  1.0000 -0.4882802542
O   O16       1.0  0.74500  0.78020  0.55000  1.0000 -0.5137092198
F   F1        1.0  0.98823  0.37837  0.18898  1.0000 -0.1985495327
F   F2        1.0  0.16940  0.66280  0.17787  1.0000 -0.1926828251
F   F3        1.0  0.99319  0.51201  0.09430  1.0000 -0.1985495327
F   F4        1.0  0.41727  0.93913  0.08878  1.0000 -0.1985495327
F   F5        1.0  0.28208  0.76172  0.02674  1.0000 -0.1926828251
F   F6        1.0  0.56465  0.94955  0.08384  1.0000 -0.1926828251
F   F7        1.0  0.37837  0.98823  0.31102  1.0000 -0.1985495327
F   F8        1.0  0.66280  0.16940  0.32213  1.0000 -0.1926828251
F   F9        1.0  0.51201  0.99319  0.40570  1.0000 -0.1985495327
F   F10       1.0  0.93913  0.41727  0.41122  1.0000 -0.1985495327
F   F11       1.0  0.76172  0.28208  0.47326  1.0000 -0.1926828251
F   F12       1.0  0.94955  0.56465  0.41616  1.0000 -0.1926828251
F   F13       1.0  0.01177  0.62163  0.81102  1.0000 -0.1985495327
F   F14       1.0  0.83060  0.33720  0.82213  1.0000 -0.1926828251
F   F15       1.0  0.00681  0.48799  0.90570  1.0000 -0.1985495327
F   F16       1.0  0.58273  0.06087  0.91122  1.0000 -0.1985495327
F   F17       1.0  0.71792  0.23828  0.97326  1.0000 -0.1926828251
F   F18       1.0  0.43535  0.05045  0.91616  1.0000 -0.1926828251
F   F19       1.0  0.62163  0.01177  0.68898  1.0000 -0.1985495327
F   F20       1.0  0.33720  0.83060  0.67787  1.0000 -0.1926828251
F   F21       1.0  0.48799  0.00681  0.59430  1.0000 -0.1985495327
F   F22       1.0  0.06087  0.58273  0.58878  1.0000 -0.1985495327
F   F23       1.0  0.23828  0.71792  0.52674  1.0000 -0.1926828251
F   F24       1.0  0.05045  0.43535  0.58384  1.0000 -0.1926828251
