# DDEC6 charges by PACMAN v1.1 (https://github.com/mtap-research/PACMAN-charge/)
data_2020[Co][nan]3[ASR]25
_chemical_formula_sum              "Co6 H18 C18 N18 O6"
_cell_length_a       14.3331
_cell_length_b       14.3331
_cell_length_c       14.3331
_cell_angle_alpha    116.895
_cell_angle_beta     116.895
_cell_angle_gamma    116.895

_symmetry_space_group_name_H-M    "P 1"
_symmetry_Int_Tables_number       1

loop_
  _symmetry_equiv_pos_as_xyz
  'x, y, z'

loop_
  _atom_site_type_symbol
  _atom_site_label
  _atom_site_symmetry_multiplicity
  _atom_site_fract_x
  _atom_site_fract_y
  _atom_site_fract_z
  _atom_site_occupancy
  _atom_site_charge
Co  Co1       1.0  0.29033  0.00000  0.70967  1.0000 0.5775190942
Co  Co2       1.0  1.00000  0.70967  0.29033  1.0000 0.5775190942
Co  Co3       1.0  0.70967  0.29033  0.00000  1.0000 0.5775190942
Co  Co4       1.0  0.70967  0.00000  0.29033  1.0000 0.5775190942
Co  Co5       1.0  0.00000  0.29033  0.70967  1.0000 0.5775190942
Co  Co6       1.0  0.29033  0.70967  0.00000  1.0000 0.5775190942
H   H1        1.0  0.16390  0.01150  0.54420  1.0000 0.3536805985
H   H2        1.0  0.01150  0.54420  0.16390  1.0000 0.3536805985
H   H3        1.0  0.54420  0.16390  0.01150  1.0000 0.3536805985
H   H4        1.0  0.98850  0.83610  0.45580  1.0000 0.3536805985
H   H5        1.0  0.45580  0.98850  0.83610  1.0000 0.3536805985
H   H6        1.0  0.83610  0.45580  0.98850  1.0000 0.3536805985
H   H7        1.0  0.83610  0.98850  0.45580  1.0000 0.3536805985
H   H8        1.0  0.98850  0.45580  0.83610  1.0000 0.3536805985
H   H9        1.0  0.45580  0.83610  0.98850  1.0000 0.3536805985
H   H10       1.0  0.01150  0.16390  0.54420  1.0000 0.3536805985
H   H11       1.0  0.54420  0.01150  0.16390  1.0000 0.3536805985
H   H12       1.0  0.16390  0.54420  0.01150  1.0000 0.3536805985
H   H13       1.0  0.26460  0.83010  0.83010  1.0000 0.0822410971
H   H14       1.0  0.83010  0.83010  0.26460  1.0000 0.0822410971
H   H15       1.0  0.83010  0.26460  0.83010  1.0000 0.0822410971
H   H16       1.0  0.16990  0.73540  0.16990  1.0000 0.0822410971
H   H17       1.0  0.16990  0.16990  0.73540  1.0000 0.0822410971
H   H18       1.0  0.73540  0.16990  0.16990  1.0000 0.0822410971
C   C1        1.0  0.07600  0.63991  0.54748  1.0000 0.0822410971
C   C2        1.0  0.63991  0.54748  0.07600  1.0000 0.0822410971
C   C3        1.0  0.54748  0.07600  0.63991  1.0000 0.0822410971
C   C4        1.0  0.36009  0.92400  0.45252  1.0000 0.0822410971
C   C5        1.0  0.45252  0.36009  0.92400  1.0000 0.0822410971
C   C6        1.0  0.92400  0.45252  0.36009  1.0000 0.0822410971
C   C7        1.0  0.92400  0.36009  0.45252  1.0000 0.0822410971
C   C8        1.0  0.36009  0.45252  0.92400  1.0000 0.0822410971
C   C9        1.0  0.45252  0.92400  0.36009  1.0000 0.0822410971
C   C10       1.0  0.63991  0.07600  0.54748  1.0000 0.0822410971
C   C11       1.0  0.54748  0.63991  0.07600  1.0000 0.0822410971
C   C12       1.0  0.07600  0.54748  0.63991  1.0000 0.0822410971
C   C13       1.0  0.16237  0.69941  0.69941  1.0000 -0.3028123228
C   C14       1.0  0.69941  0.69941  0.16237  1.0000 -0.3028123228
C   C15       1.0  0.69942  0.16237  0.69942  1.0000 -0.3028123228
C   C16       1.0  0.30059  0.83763  0.30058  1.0000 -0.3028123228
C   C17       1.0  0.30059  0.30059  0.83763  1.0000 -0.3028123228
C   C18       1.0  0.83763  0.30059  0.30059  1.0000 -0.3028123228
N   N1        1.0  0.11705  0.74410  0.54309  1.0000 -0.267793182
N   N2        1.0  0.74410  0.54309  0.11705  1.0000 -0.267793182
N   N3        1.0  0.54309  0.11705  0.74410  1.0000 -0.267793182
N   N4        1.0  0.25590  0.88295  0.45691  1.0000 -0.267793182
N   N5        1.0  0.45691  0.25590  0.88295  1.0000 -0.267793182
N   N6        1.0  0.88295  0.45691  0.25590  1.0000 -0.267793182
N   N7        1.0  0.88295  0.25590  0.45691  1.0000 -0.267793182
N   N8        1.0  0.25590  0.45691  0.88295  1.0000 -0.267793182
N   N9        1.0  0.45691  0.88295  0.25590  1.0000 -0.267793182
N   N10       1.0  0.74410  0.11705  0.54309  1.0000 -0.267793182
N   N11       1.0  0.54309  0.74410  0.11705  1.0000 -0.267793182
N   N12       1.0  0.11705  0.54309  0.74410  1.0000 -0.267793182
N   N13       1.0  0.00000  0.63089  0.36911  1.0000 -0.0585236262
N   N14       1.0  0.63089  0.36911  0.00000  1.0000 -0.0585236262
N   N15       1.0  0.36911  0.00000  0.63089  1.0000 -0.0585236262
N   N16       1.0  0.00000  0.36911  0.63089  1.0000 -0.0585236262
N   N17       1.0  0.36911  0.63089  0.00000  1.0000 -0.0585236262
N   N18       1.0  0.63089  0.00000  0.36911  1.0000 -0.0585236262
O   O1        1.0  0.09598  0.90402  0.50000  1.0000 -0.6346812693
O   O2        1.0  0.90402  0.50000  0.09598  1.0000 -0.6346812693
O   O3        1.0  0.50000  0.09598  0.90402  1.0000 -0.6346812693
O   O4        1.0  0.90402  0.09598  0.50000  1.0000 -0.6346812693
O   O5        1.0  0.09598  0.50000  0.90402  1.0000 -0.6346812693
O   O6        1.0  0.50000  0.90402  0.09598  1.0000 -0.6346812693
