# DDEC6 charges by PACMAN v1.1 (https://github.com/mtap-research/PACMAN-charge/)
data_2020[PtFe][fsc]3[ASR]1
_chemical_formula_sum              "Fe2 H16 Pt2 C36 N12"
_cell_length_a       13.9369
_cell_length_b       7.249
_cell_length_c       16.1917
_cell_angle_alpha    90
_cell_angle_beta     104.623
_cell_angle_gamma    90

_symmetry_space_group_name_H-M    "P 1"
_symmetry_Int_Tables_number       1

loop_
  _symmetry_equiv_pos_as_xyz
  'x, y, z'

loop_
  _atom_site_type_symbol
  _atom_site_label
  _atom_site_symmetry_multiplicity
  _atom_site_fract_x
  _atom_site_fract_y
  _atom_site_fract_z
  _atom_site_occupancy
  _atom_site_charge
Fe  Fe1       1.0  0.50000  0.00000  0.00000  1.0000 0.5702707145
Fe  Fe2       1.0  0.00000  0.00000  0.00000  1.0000 0.5891495321
H   H1        1.0  0.05530  0.72370  0.28690  1.0000 0.1296684567
H   H2        1.0  0.02210  0.73200  0.14110  1.0000 0.1210394177
H   H3        1.0  0.94470  0.72370  0.71310  1.0000 0.1296684567
H   H4        1.0  0.97790  0.73200  0.85890  1.0000 0.1210394177
H   H5        1.0  0.94470  0.27630  0.71310  1.0000 0.1296684567
H   H6        1.0  0.97790  0.26800  0.85890  1.0000 0.1210394177
H   H7        1.0  0.05530  0.27630  0.28690  1.0000 0.1296684567
H   H8        1.0  0.02210  0.26800  0.14110  1.0000 0.1210394177
H   H9        1.0  0.28420  0.00000  0.91430  1.0000 0.1210394177
H   H10       1.0  0.17950  0.00000  0.77840  1.0000 0.1296684567
H   H11       1.0  0.42130  0.00000  0.68510  1.0000 0.1296684567
H   H12       1.0  0.51770  0.00000  0.82420  1.0000 0.1210394177
H   H13       1.0  0.71580  0.00000  0.08570  1.0000 0.1210394177
H   H14       1.0  0.82050  0.00000  0.22160  1.0000 0.1296684567
H   H15       1.0  0.57870  0.00000  0.31490  1.0000 0.1296684567
H   H16       1.0  0.48230  0.00000  0.17580  1.0000 0.1210394177
Pt  Pt1       1.0  0.73909  0.50000  0.97038  1.0000 0.056879257
Pt  Pt2       1.0  0.26091  0.50000  0.02962  1.0000 0.056879257
C   C1        1.0  0.05060  0.83660  0.25890  1.0000 -0.1767101314
C   C2        1.0  0.02910  0.84280  0.17100  1.0000 0.0789187934
C   C3        1.0  0.63750  0.30430  0.96560  1.0000 0.0428005766
C   C4        1.0  0.84120  0.69670  0.98140  1.0000 0.027146795
C   C5        1.0  0.94940  0.83660  0.74110  1.0000 -0.1748312813
C   C6        1.0  0.97090  0.84280  0.82900  1.0000 0.0789187934
C   C7        1.0  0.36250  0.30430  0.03440  1.0000 0.0428005766
C   C8        1.0  0.15880  0.69670  0.01860  1.0000 0.027146795
C   C9        1.0  0.94940  0.16340  0.74110  1.0000 -0.1748312813
C   C10       1.0  0.97090  0.15720  0.82900  1.0000 0.0789187934
C   C11       1.0  0.36250  0.69570  0.03440  1.0000 0.0428005766
C   C12       1.0  0.15880  0.30330  0.01860  1.0000 0.027146795
C   C13       1.0  0.05060  0.16340  0.25890  1.0000 -0.1767101314
C   C14       1.0  0.02910  0.15720  0.17100  1.0000 0.0789187934
C   C15       1.0  0.63750  0.69570  0.96560  1.0000 0.0428005766
C   C16       1.0  0.84120  0.30330  0.98140  1.0000 0.027146795
C   C17       1.0  0.31170  0.00000  0.86770  1.0000 0.0789187934
C   C18       1.0  0.24790  0.00000  0.78600  1.0000 -0.1767101314
C   C19       1.0  0.28900  0.00000  0.71610  1.0000 0.1582615759
C   C20       1.0  0.39160  0.00000  0.73040  1.0000 -0.1618336987
C   C21       1.0  0.44900  0.00000  0.81480  1.0000 0.0891561966
C   C22       1.0  0.22760  0.00000  0.63080  1.0000 -0.0623603192
C   C23       1.0  0.18020  0.00000  0.55690  1.0000 -0.0525555153
C   C24       1.0  0.13260  0.00000  0.47320  1.0000 -0.0525555153
C   C25       1.0  0.09560  0.00000  0.39610  1.0000 -0.0623603192
C   C26       1.0  0.06520  0.00000  0.30560  1.0000 0.1582615759
C   C27       1.0  0.68830  0.00000  0.13230  1.0000 0.0789187934
C   C28       1.0  0.75210  0.00000  0.21400  1.0000 -0.1767101314
C   C29       1.0  0.71100  0.00000  0.28390  1.0000 0.1582615759
C   C30       1.0  0.60840  0.00000  0.26960  1.0000 -0.1618336987
C   C31       1.0  0.55100  0.00000  0.18520  1.0000 0.0891561966
C   C32       1.0  0.77240  0.00000  0.36920  1.0000 -0.0623603192
C   C33       1.0  0.81980  0.00000  0.44310  1.0000 -0.0525555153
C   C34       1.0  0.86740  0.00000  0.52680  1.0000 -0.0525555153
C   C35       1.0  0.90440  0.00000  0.60390  1.0000 -0.0623603192
C   C36       1.0  0.93480  0.00000  0.69440  1.0000 0.1582615759
N   N1        1.0  0.58270  0.19030  0.97030  1.0000 -0.2980494675
N   N2        1.0  0.89970  0.81070  0.98850  1.0000 -0.3114419159
N   N3        1.0  0.41730  0.19030  0.02970  1.0000 -0.2980494675
N   N4        1.0  0.10030  0.81070  0.01150  1.0000 -0.3114419159
N   N5        1.0  0.41730  0.80970  0.02970  1.0000 -0.2980494675
N   N6        1.0  0.10030  0.18930  0.01150  1.0000 -0.3114419159
N   N7        1.0  0.58270  0.80970  0.97030  1.0000 -0.2980494675
N   N8        1.0  0.89970  0.18930  0.98850  1.0000 -0.3114419159
N   N9        1.0  0.41100  0.00000  0.88240  1.0000 -0.147987808
N   N10       1.0  0.01780  0.00000  0.12670  1.0000 -0.1355226811
N   N11       1.0  0.58900  0.00000  0.11760  1.0000 -0.147987808
N   N12       1.0  0.98220  0.00000  0.87330  1.0000 -0.1342050459
