# DDEC6 charges by PACMAN v1.1 (https://github.com/mtap-research/PACMAN-charge/)
data_2020[Gd][sql]2[ASR]2
_chemical_formula_sum              "Gd16 H32 C96 S16 O96"
_cell_length_a       17.9667
_cell_length_b       19.7687
_cell_length_c       20.8382
_cell_angle_alpha    90
_cell_angle_beta     90
_cell_angle_gamma    90

_symmetry_space_group_name_H-M    "P 1"
_symmetry_Int_Tables_number       1

loop_
  _symmetry_equiv_pos_as_xyz
  'x, y, z'

loop_
  _atom_site_type_symbol
  _atom_site_label
  _atom_site_symmetry_multiplicity
  _atom_site_fract_x
  _atom_site_fract_y
  _atom_site_fract_z
  _atom_site_occupancy
  _atom_site_charge
Gd  Gd1       1.0  0.48097  0.14311  0.84187  1.0000 2.1366214461
Gd  Gd2       1.0  0.98097  0.35689  0.15813  1.0000 2.1366214461
Gd  Gd3       1.0  0.48097  0.14311  0.65813  1.0000 2.1366214461
Gd  Gd4       1.0  0.98097  0.35689  0.34187  1.0000 2.1314201958
Gd  Gd5       1.0  0.59560  0.27505  0.75000  1.0000 2.1872973648
Gd  Gd6       1.0  0.37677  0.28264  0.75000  1.0000 2.1366214461
Gd  Gd7       1.0  0.09560  0.22495  0.25000  1.0000 2.1844658262
Gd  Gd8       1.0  0.87677  0.21736  0.25000  1.0000 2.1314201958
Gd  Gd9       1.0  0.51903  0.85689  0.34187  1.0000 2.1314201958
Gd  Gd10      1.0  0.01903  0.64311  0.65813  1.0000 2.1366214461
Gd  Gd11      1.0  0.51903  0.85689  0.15813  1.0000 2.1366214461
Gd  Gd12      1.0  0.01903  0.64311  0.84187  1.0000 2.1366214461
Gd  Gd13      1.0  0.40440  0.72495  0.25000  1.0000 2.1872973648
Gd  Gd14      1.0  0.62323  0.71736  0.25000  1.0000 2.1314201958
Gd  Gd15      1.0  0.90440  0.77505  0.75000  1.0000 2.1872973648
Gd  Gd16      1.0  0.12323  0.78264  0.75000  1.0000 2.1366214461
H   H1        1.0  0.63734  0.17683  0.01450  1.0000 0.1308572548
H   H2        1.0  0.71852  0.19724  0.09648  1.0000 0.1308572548
H   H3        1.0  0.81211  0.40938  0.05259  1.0000 0.1308572548
H   H4        1.0  0.69054  0.48059  0.90805  1.0000 0.1497396144
H   H5        1.0  0.13734  0.32317  0.98550  1.0000 0.1308572548
H   H6        1.0  0.21852  0.30276  0.90352  1.0000 0.1308572548
H   H7        1.0  0.31211  0.09062  0.94741  1.0000 0.1308572548
H   H8        1.0  0.19054  0.01941  0.09195  1.0000 0.1497396144
H   H9        1.0  0.63734  0.17683  0.48550  1.0000 0.1308572548
H   H10       1.0  0.71852  0.19724  0.40352  1.0000 0.1308572548
H   H11       1.0  0.81211  0.40938  0.44741  1.0000 0.1308572548
H   H12       1.0  0.69054  0.48059  0.59195  1.0000 0.1497396144
H   H13       1.0  0.13734  0.32317  0.51450  1.0000 0.1308572548
H   H14       1.0  0.21852  0.30276  0.59648  1.0000 0.1308572548
H   H15       1.0  0.31211  0.09062  0.55259  1.0000 0.1308572548
H   H16       1.0  0.19054  0.01941  0.40805  1.0000 0.1497396144
H   H17       1.0  0.36266  0.82317  0.51450  1.0000 0.1308572548
H   H18       1.0  0.28148  0.80276  0.59648  1.0000 0.1308572548
H   H19       1.0  0.18789  0.59062  0.55259  1.0000 0.1308572548
H   H20       1.0  0.30946  0.51941  0.40805  1.0000 0.1497396144
H   H21       1.0  0.86266  0.67683  0.48550  1.0000 0.1308572548
H   H22       1.0  0.78148  0.69724  0.40352  1.0000 0.1308572548
H   H23       1.0  0.68789  0.90938  0.44741  1.0000 0.1308572548
H   H24       1.0  0.80946  0.98059  0.59195  1.0000 0.1497396144
H   H25       1.0  0.36266  0.82317  0.98550  1.0000 0.1308572548
H   H26       1.0  0.28148  0.80276  0.90352  1.0000 0.1308572548
H   H27       1.0  0.18789  0.59062  0.94741  1.0000 0.1308572548
H   H28       1.0  0.30946  0.51941  0.09195  1.0000 0.1497396144
H   H29       1.0  0.86266  0.67683  0.01450  1.0000 0.1308572548
H   H30       1.0  0.78148  0.69724  0.09648  1.0000 0.1308572548
H   H31       1.0  0.68789  0.90938  0.05259  1.0000 0.1308572548
H   H32       1.0  0.80946  0.98059  0.90805  1.0000 0.1497396144
C   C1        1.0  0.65030  0.26270  0.96670  1.0000 -0.070085515
C   C2        1.0  0.66330  0.21750  0.01490  1.0000 -0.0532644142
C   C3        1.0  0.71310  0.22910  0.06400  1.0000 -0.0906686552
C   C4        1.0  0.75440  0.28700  0.06520  1.0000 -0.041572687
C   C5        1.0  0.74000  0.33970  0.01810  1.0000 0.0559862374
C   C6        1.0  0.77650  0.40220  0.02090  1.0000 -0.1013151959
C   C7        1.0  0.76130  0.45200  0.97900  1.0000 -0.062053988
C   C8        1.0  0.70270  0.44470  0.93490  1.0000 -0.070085515
C   C9        1.0  0.66340  0.38590  0.93070  1.0000 -0.062053988
C   C10       1.0  0.68400  0.32850  0.97070  1.0000 0.0656656919
C   C11       1.0  0.61190  0.23550  0.90900  1.0000 0.6611387066
C   C12       1.0  0.81430  0.29150  0.11450  1.0000 0.651201763
C   C13       1.0  0.15030  0.23730  0.03330  1.0000 -0.070085515
C   C14       1.0  0.16330  0.28250  0.98510  1.0000 -0.0532644142
C   C15       1.0  0.21310  0.27090  0.93600  1.0000 -0.0906686552
C   C16       1.0  0.25440  0.21300  0.93480  1.0000 -0.041572687
C   C17       1.0  0.24000  0.16030  0.98190  1.0000 0.0559862374
C   C18       1.0  0.27650  0.09780  0.97910  1.0000 -0.1013151959
C   C19       1.0  0.26130  0.04800  0.02100  1.0000 -0.062053988
C   C20       1.0  0.20270  0.05530  0.06510  1.0000 -0.070085515
C   C21       1.0  0.16340  0.11410  0.06930  1.0000 -0.062053988
C   C22       1.0  0.18400  0.17150  0.02930  1.0000 0.0656656919
C   C23       1.0  0.11190  0.26450  0.09100  1.0000 0.6611387066
C   C24       1.0  0.31430  0.20850  0.88550  1.0000 0.651201763
C   C25       1.0  0.65030  0.26270  0.53330  1.0000 -0.070085515
C   C26       1.0  0.66330  0.21750  0.48510  1.0000 -0.0532644142
C   C27       1.0  0.71310  0.22910  0.43600  1.0000 -0.0906686552
C   C28       1.0  0.75440  0.28700  0.43480  1.0000 -0.041572687
C   C29       1.0  0.74000  0.33970  0.48190  1.0000 0.0559862374
C   C30       1.0  0.77650  0.40220  0.47910  1.0000 -0.1013151959
C   C31       1.0  0.76130  0.45200  0.52100  1.0000 -0.062053988
C   C32       1.0  0.70270  0.44470  0.56510  1.0000 -0.070085515
C   C33       1.0  0.66340  0.38590  0.56930  1.0000 -0.062053988
C   C34       1.0  0.68400  0.32850  0.52930  1.0000 0.0656656919
C   C35       1.0  0.61190  0.23550  0.59100  1.0000 0.6611387066
C   C36       1.0  0.81430  0.29150  0.38550  1.0000 0.651201763
C   C37       1.0  0.15030  0.23730  0.46670  1.0000 -0.070085515
C   C38       1.0  0.16330  0.28250  0.51490  1.0000 -0.0532644142
C   C39       1.0  0.21310  0.27090  0.56400  1.0000 -0.0906686552
C   C40       1.0  0.25440  0.21300  0.56520  1.0000 -0.041572687
C   C41       1.0  0.24000  0.16030  0.51810  1.0000 0.0559862374
C   C42       1.0  0.27650  0.09780  0.52090  1.0000 -0.1013151959
C   C43       1.0  0.26130  0.04800  0.47900  1.0000 -0.062053988
C   C44       1.0  0.20270  0.05530  0.43490  1.0000 -0.070085515
C   C45       1.0  0.16340  0.11410  0.43070  1.0000 -0.062053988
C   C46       1.0  0.18400  0.17150  0.47070  1.0000 0.0656656919
C   C47       1.0  0.11190  0.26450  0.40900  1.0000 0.6611387066
C   C48       1.0  0.31430  0.20850  0.61450  1.0000 0.651201763
C   C49       1.0  0.34970  0.73730  0.46670  1.0000 -0.070085515
C   C50       1.0  0.33670  0.78250  0.51490  1.0000 -0.0532644142
C   C51       1.0  0.28690  0.77090  0.56400  1.0000 -0.0906686552
C   C52       1.0  0.24560  0.71300  0.56520  1.0000 -0.041572687
C   C53       1.0  0.26000  0.66030  0.51810  1.0000 0.0559862374
C   C54       1.0  0.22350  0.59780  0.52090  1.0000 -0.1013151959
C   C55       1.0  0.23870  0.54800  0.47900  1.0000 -0.062053988
C   C56       1.0  0.29730  0.55530  0.43490  1.0000 -0.070085515
C   C57       1.0  0.33660  0.61410  0.43070  1.0000 -0.062053988
C   C58       1.0  0.31600  0.67150  0.47070  1.0000 0.0656656919
C   C59       1.0  0.38810  0.76450  0.40900  1.0000 0.6611387066
C   C60       1.0  0.18570  0.70850  0.61450  1.0000 0.651201763
C   C61       1.0  0.84970  0.76270  0.53330  1.0000 -0.070085515
C   C62       1.0  0.83670  0.71750  0.48510  1.0000 -0.0532644142
C   C63       1.0  0.78690  0.72910  0.43600  1.0000 -0.0906686552
C   C64       1.0  0.74560  0.78700  0.43480  1.0000 -0.041572687
C   C65       1.0  0.76000  0.83970  0.48190  1.0000 0.0559862374
C   C66       1.0  0.72350  0.90220  0.47910  1.0000 -0.1013151959
C   C67       1.0  0.73870  0.95200  0.52100  1.0000 -0.062053988
C   C68       1.0  0.79730  0.94470  0.56510  1.0000 -0.070085515
C   C69       1.0  0.83660  0.88590  0.56930  1.0000 -0.062053988
C   C70       1.0  0.81600  0.82850  0.52930  1.0000 0.0656656919
C   C71       1.0  0.88810  0.73550  0.59100  1.0000 0.6611387066
C   C72       1.0  0.68570  0.79150  0.38550  1.0000 0.651201763
C   C73       1.0  0.34970  0.73730  0.03330  1.0000 -0.070085515
C   C74       1.0  0.33670  0.78250  0.98510  1.0000 -0.0532644142
C   C75       1.0  0.28690  0.77090  0.93600  1.0000 -0.0906686552
C   C76       1.0  0.24560  0.71300  0.93480  1.0000 -0.041572687
C   C77       1.0  0.26000  0.66030  0.98190  1.0000 0.0559862374
C   C78       1.0  0.22350  0.59780  0.97910  1.0000 -0.1013151959
C   C79       1.0  0.23870  0.54800  0.02100  1.0000 -0.062053988
C   C80       1.0  0.29730  0.55530  0.06510  1.0000 -0.070085515
C   C81       1.0  0.33660  0.61410  0.06930  1.0000 -0.062053988
C   C82       1.0  0.31600  0.67150  0.02930  1.0000 0.0656656919
C   C83       1.0  0.38810  0.76450  0.09100  1.0000 0.6611387066
C   C84       1.0  0.18570  0.70850  0.88550  1.0000 0.651201763
C   C85       1.0  0.84970  0.76270  0.96670  1.0000 -0.070085515
C   C86       1.0  0.83670  0.71750  0.01490  1.0000 -0.0532644142
C   C87       1.0  0.78690  0.72910  0.06400  1.0000 -0.0906686552
C   C88       1.0  0.74560  0.78700  0.06520  1.0000 -0.041572687
C   C89       1.0  0.76000  0.83970  0.01810  1.0000 0.0559862374
C   C90       1.0  0.72350  0.90220  0.02090  1.0000 -0.1013151959
C   C91       1.0  0.73870  0.95200  0.97900  1.0000 -0.062053988
C   C92       1.0  0.79730  0.94470  0.93490  1.0000 -0.070085515
C   C93       1.0  0.83660  0.88590  0.93070  1.0000 -0.062053988
C   C94       1.0  0.81600  0.82850  0.97070  1.0000 0.0656656919
C   C95       1.0  0.88810  0.73550  0.90900  1.0000 0.6611387066
C   C96       1.0  0.68570  0.79150  0.11450  1.0000 0.651201763
S   S1        1.0  0.57801  0.39276  0.88669  1.0000 1.1835684336
S   S2        1.0  0.80720  0.53071  0.98605  1.0000 1.0920770175
S   S3        1.0  0.07801  0.10724  0.11331  1.0000 1.1835684336
S   S4        1.0  0.30720  0.96929  0.01395  1.0000 1.0953598327
S   S5        1.0  0.57801  0.39276  0.61331  1.0000 1.1835684336
S   S6        1.0  0.80720  0.53071  0.51395  1.0000 1.0920770175
S   S7        1.0  0.07801  0.10724  0.38669  1.0000 1.1835684336
S   S8        1.0  0.30720  0.96929  0.48605  1.0000 1.0953598327
S   S9        1.0  0.42199  0.60724  0.38669  1.0000 1.1835684336
S   S10       1.0  0.19280  0.46929  0.48605  1.0000 1.0953598327
S   S11       1.0  0.92199  0.89276  0.61331  1.0000 1.1835684336
S   S12       1.0  0.69280  0.03071  0.51395  1.0000 1.0920770175
S   S13       1.0  0.42199  0.60724  0.11331  1.0000 1.1835684336
S   S14       1.0  0.19280  0.46929  0.01395  1.0000 1.0953598327
S   S15       1.0  0.92199  0.89276  0.88669  1.0000 1.1835684336
S   S16       1.0  0.69280  0.03071  0.98605  1.0000 1.0920770175
O   O1        1.0  0.48190  0.26144  0.81426  1.0000 -1.1696236893
O   O2        1.0  0.55830  0.19450  0.91780  1.0000 -0.6010248058
O   O3        1.0  0.63820  0.25050  0.85539  1.0000 -0.6010248058
O   O4        1.0  0.80480  0.25890  0.16460  1.0000 -0.5795933598
O   O5        1.0  0.87310  0.32560  0.10350  1.0000 -0.6010248058
O   O6        1.0  0.59040  0.37688  0.81883  1.0000 -0.6414612003
O   O7        1.0  0.52620  0.34640  0.91730  1.0000 -0.4966966297
O   O8        1.0  0.55780  0.46320  0.89380  1.0000 -0.464663177
O   O9        1.0  0.79010  0.56900  0.93080  1.0000 -0.4966966297
O   O10       1.0  0.78130  0.56020  0.04460  1.0000 -0.5363219274
O   O11       1.0  0.88470  0.51670  0.98930  1.0000 -0.5081069165
O   O12       1.0  0.98190  0.23856  0.18574  1.0000 -1.1607124203
O   O13       1.0  0.05830  0.30550  0.08220  1.0000 -0.6010248058
O   O14       1.0  0.13820  0.24950  0.14461  1.0000 -0.6010248058
O   O15       1.0  0.30480  0.24110  0.83540  1.0000 -0.5795933598
O   O16       1.0  0.37310  0.17440  0.89650  1.0000 -0.6010248058
O   O17       1.0  0.09040  0.12312  0.18117  1.0000 -0.6414612003
O   O18       1.0  0.02620  0.15360  0.08270  1.0000 -0.4966966297
O   O19       1.0  0.05780  0.03680  0.10620  1.0000 -0.4704116378
O   O20       1.0  0.29010  0.93100  0.06920  1.0000 -0.4904821091
O   O21       1.0  0.28130  0.93980  0.95540  1.0000 -0.5309188359
O   O22       1.0  0.38470  0.98330  0.01070  1.0000 -0.5081069165
O   O23       1.0  0.48190  0.26144  0.68574  1.0000 -1.1696236893
O   O24       1.0  0.55830  0.19450  0.58220  1.0000 -0.6010248058
O   O25       1.0  0.63820  0.25050  0.64461  1.0000 -0.6010248058
O   O26       1.0  0.80480  0.25890  0.33540  1.0000 -0.5795933598
O   O27       1.0  0.87310  0.32560  0.39650  1.0000 -0.6010248058
O   O28       1.0  0.59040  0.37688  0.68117  1.0000 -0.6414612003
O   O29       1.0  0.52620  0.34640  0.58270  1.0000 -0.4966966297
O   O30       1.0  0.55780  0.46320  0.60620  1.0000 -0.4704116378
O   O31       1.0  0.79010  0.56900  0.56920  1.0000 -0.4966966297
O   O32       1.0  0.78130  0.56020  0.45540  1.0000 -0.5363219274
O   O33       1.0  0.88470  0.51670  0.51070  1.0000 -0.5081069165
O   O34       1.0  0.98190  0.23856  0.31426  1.0000 -1.1696236893
O   O35       1.0  0.05830  0.30550  0.41780  1.0000 -0.6010248058
O   O36       1.0  0.13820  0.24950  0.35539  1.0000 -0.6010248058
O   O37       1.0  0.30480  0.24110  0.66460  1.0000 -0.5795933598
O   O38       1.0  0.37310  0.17440  0.60350  1.0000 -0.6010248058
O   O39       1.0  0.09040  0.12312  0.31883  1.0000 -0.6414612003
O   O40       1.0  0.02620  0.15360  0.41730  1.0000 -0.4904821091
O   O41       1.0  0.05780  0.03680  0.39380  1.0000 -0.464663177
O   O42       1.0  0.29010  0.93100  0.43080  1.0000 -0.4904821091
O   O43       1.0  0.28130  0.93980  0.54460  1.0000 -0.5309188359
O   O44       1.0  0.38470  0.98330  0.48930  1.0000 -0.5081069165
O   O45       1.0  0.55510  0.15970  0.75000  1.0000 -1.3202999625
O   O46       1.0  0.40280  0.16300  0.75000  1.0000 -1.2918105715
O   O47       1.0  0.05510  0.34030  0.25000  1.0000 -1.3121092909
O   O48       1.0  0.90280  0.33700  0.25000  1.0000 -1.2987608307
O   O49       1.0  0.51810  0.73856  0.31426  1.0000 -1.1696236893
O   O50       1.0  0.44170  0.80550  0.41780  1.0000 -0.6010248058
O   O51       1.0  0.36180  0.74950  0.35539  1.0000 -0.6010248058
O   O52       1.0  0.19520  0.74110  0.66460  1.0000 -0.5795933598
O   O53       1.0  0.12690  0.67440  0.60350  1.0000 -0.6010248058
O   O54       1.0  0.40960  0.62312  0.31883  1.0000 -0.6414612003
O   O55       1.0  0.47380  0.65360  0.41730  1.0000 -0.4966966297
O   O56       1.0  0.44220  0.53680  0.39380  1.0000 -0.4704116378
O   O57       1.0  0.20990  0.43100  0.43080  1.0000 -0.4904821091
O   O58       1.0  0.21870  0.43980  0.54460  1.0000 -0.5363219274
O   O59       1.0  0.11530  0.48330  0.48930  1.0000 -0.5081069165
O   O60       1.0  0.01810  0.76144  0.68574  1.0000 -1.1696236893
O   O61       1.0  0.94170  0.69450  0.58220  1.0000 -0.6010248058
O   O62       1.0  0.86180  0.75050  0.64461  1.0000 -0.6010248058
O   O63       1.0  0.69520  0.75890  0.33540  1.0000 -0.5795933598
O   O64       1.0  0.62690  0.82560  0.39650  1.0000 -0.6010248058
O   O65       1.0  0.90960  0.87688  0.68117  1.0000 -0.6414612003
O   O66       1.0  0.97380  0.84640  0.58270  1.0000 -0.4966966297
O   O67       1.0  0.94220  0.96320  0.60620  1.0000 -0.4704116378
O   O68       1.0  0.70990  0.06900  0.56920  1.0000 -0.4966966297
O   O69       1.0  0.71870  0.06020  0.45540  1.0000 -0.5363219274
O   O70       1.0  0.61530  0.01670  0.51070  1.0000 -0.4966966297
O   O71       1.0  0.51810  0.73856  0.18574  1.0000 -1.1696236893
O   O72       1.0  0.44170  0.80550  0.08220  1.0000 -0.6010248058
O   O73       1.0  0.36180  0.74950  0.14461  1.0000 -0.6010248058
O   O74       1.0  0.19520  0.74110  0.83540  1.0000 -0.5795933598
O   O75       1.0  0.12690  0.67440  0.89650  1.0000 -0.6010248058
O   O76       1.0  0.40960  0.62312  0.18117  1.0000 -0.6414612003
O   O77       1.0  0.47380  0.65360  0.08270  1.0000 -0.4966966297
O   O78       1.0  0.44220  0.53680  0.10620  1.0000 -0.4704116378
O   O79       1.0  0.20990  0.43100  0.06920  1.0000 -0.4904821091
O   O80       1.0  0.21870  0.43980  0.95540  1.0000 -0.5363219274
O   O81       1.0  0.11530  0.48330  0.01070  1.0000 -0.5081069165
O   O82       1.0  0.01810  0.76144  0.81426  1.0000 -1.1696236893
O   O83       1.0  0.94170  0.69450  0.91780  1.0000 -0.6010248058
O   O84       1.0  0.86180  0.75050  0.85539  1.0000 -0.6010248058
O   O85       1.0  0.69520  0.75890  0.16460  1.0000 -0.5795933598
O   O86       1.0  0.62690  0.82560  0.10350  1.0000 -0.6010248058
O   O87       1.0  0.90960  0.87688  0.81883  1.0000 -0.6414612003
O   O88       1.0  0.97380  0.84640  0.91730  1.0000 -0.4966966297
O   O89       1.0  0.94220  0.96320  0.89380  1.0000 -0.4704116378
O   O90       1.0  0.70990  0.06900  0.93080  1.0000 -0.4966966297
O   O91       1.0  0.71870  0.06020  0.04460  1.0000 -0.5363219274
O   O92       1.0  0.61530  0.01670  0.98930  1.0000 -0.4966966297
O   O93       1.0  0.44490  0.84030  0.25000  1.0000 -1.3202999625
O   O94       1.0  0.59720  0.83700  0.25000  1.0000 -1.2987608307
O   O95       1.0  0.94490  0.65970  0.75000  1.0000 -1.3202999625
O   O96       1.0  0.09720  0.66300  0.75000  1.0000 -1.2918105715
