# DDEC6 charges by PACMAN v1.1 (https://github.com/mtap-research/PACMAN-charge/)
data_2020[Co][nan]3[ASR]26
_chemical_formula_sum              "Co6 H156 C176 S4 N32 O28"
_cell_length_a       23.3449
_cell_length_b       23.3449
_cell_length_c       19.0629
_cell_angle_alpha    80.2157
_cell_angle_beta     99.7843
_cell_angle_gamma    153.965

_symmetry_space_group_name_H-M    "P 1"
_symmetry_Int_Tables_number       1

loop_
  _symmetry_equiv_pos_as_xyz
  'x, y, z'

loop_
  _atom_site_type_symbol
  _atom_site_label
  _atom_site_symmetry_multiplicity
  _atom_site_fract_x
  _atom_site_fract_y
  _atom_site_fract_z
  _atom_site_occupancy
  _atom_site_charge
Co  Co1       1.0  0.05813  0.33665  0.57331  1.0000 0.8382616323
Co  Co2       1.0  0.33665  0.05813  0.92669  1.0000 0.8382616323
Co  Co3       1.0  0.94187  0.66335  0.42669  1.0000 0.8382616323
Co  Co4       1.0  0.66335  0.94187  0.07331  1.0000 0.8382616323
Co  Co5       1.0  0.48231  0.48231  0.75000  1.0000 0.8101499808
Co  Co6       1.0  0.51769  0.51769  0.25000  1.0000 0.8101499808
H   H1        1.0  0.91478  0.32394  0.23186  1.0000 0.1103696497
H   H2        1.0  0.85266  0.20924  0.15042  1.0000 0.1314097154
H   H3        1.0  0.60641  0.81661  0.22515  1.0000 0.1220849734
H   H4        1.0  0.74535  0.06593  0.38994  1.0000 0.1314097154
H   H5        1.0  0.85895  0.25137  0.34899  1.0000 0.0991302673
H   H6        1.0  0.57778  0.76932  0.35840  1.0000 0.1220849734
H   H7        1.0  0.64645  0.87239  0.40508  1.0000 0.1220849734
H   H8        1.0  0.41738  0.67290  0.40683  1.0000 0.1103696497
H   H9        1.0  0.48032  0.78994  0.37970  1.0000 0.1103696497
H   H10       1.0  0.42426  0.73082  0.26246  1.0000 0.1103696497
H   H11       1.0  0.36509  0.61623  0.28828  1.0000 0.1103696497
H   H12       1.0  0.20072  0.53950  0.25982  1.0000 0.1220849734
H   H13       1.0  0.25878  0.62470  0.31895  1.0000 0.1220849734
H   H14       1.0  0.18900  0.52748  0.44481  1.0000 0.1103696497
H   H15       1.0  0.12231  0.36325  0.24994  1.0000 0.1314097154
H   H16       1.0  0.00781  0.17421  0.26733  1.0000 0.1103696497
H   H17       1.0  0.93040  0.06672  0.37750  1.0000 0.1103696497
H   H18       1.0  0.96116  0.14226  0.47376  1.0000 0.1314097154
H   H19       1.0  0.55679  0.99943  0.53953  1.0000 0.1103696497
H   H20       1.0  0.58134  0.08358  0.55840  1.0000 0.1103696497
H   H21       1.0  0.68376  0.20358  0.44939  1.0000 0.1314097154
H   H22       1.0  0.65965  0.11971  0.43080  1.0000 0.1103696497
H   H23       1.0  0.82610  0.19098  0.48209  1.0000 0.1103696497
H   H24       1.0  0.13158  0.52444  0.65051  1.0000 0.1381897554
H   H25       1.0  0.10811  0.59321  0.68455  1.0000 0.1103696497
H   H26       1.0  0.94144  0.50572  0.63742  1.0000 0.0991302673
H   H27       1.0  0.79046  0.34548  0.55463  1.0000 0.1381897554
H   H28       1.0  0.72885  0.85351  0.65403  1.0000 0.1220849734
H   H29       1.0  0.35913  0.57783  0.64314  1.0000 0.1220849734
H   H30       1.0  0.63931  0.93655  0.56073  1.0000 0.1220849734
H   H31       1.0  0.27142  0.22948  0.85102  1.0000 0.1314097154
H   H32       1.0  0.17670  0.11222  0.97128  1.0000 0.1220849734
H   H33       1.0  0.21565  0.18273  0.03168  1.0000 0.1220849734
H   H34       1.0  0.05200  0.10372  0.99074  1.0000 0.1103696497
H   H35       1.0  0.01562  0.03824  0.92738  1.0000 0.1103696497
H   H36       1.0  0.29782  0.36256  0.04432  1.0000 0.1314097154
H   H37       1.0  0.43637  0.56555  0.03584  1.0000 0.1103696497
H   H38       1.0  0.55593  0.70151  0.93697  1.0000 0.1103696497
H   H39       1.0  0.54389  0.64065  0.84173  1.0000 0.1314097154
H   H40       1.0  0.32394  0.91478  0.26814  1.0000 0.1103696497
H   H41       1.0  0.20924  0.85266  0.34958  1.0000 0.1314097154
H   H42       1.0  0.81661  0.60641  0.27485  1.0000 0.1220849734
H   H43       1.0  0.06593  0.74535  0.11006  1.0000 0.1314097154
H   H44       1.0  0.25137  0.85895  0.15101  1.0000 0.0991302673
H   H45       1.0  0.76932  0.57778  0.14160  1.0000 0.1220849734
H   H46       1.0  0.87239  0.64645  0.09492  1.0000 0.1220849734
H   H47       1.0  0.67290  0.41738  0.09317  1.0000 0.1103696497
H   H48       1.0  0.78994  0.48032  0.12030  1.0000 0.1103696497
H   H49       1.0  0.73082  0.42426  0.23754  1.0000 0.1103696497
H   H50       1.0  0.61623  0.36509  0.21172  1.0000 0.1103696497
H   H51       1.0  0.53950  0.20072  0.24018  1.0000 0.1220849734
H   H52       1.0  0.62470  0.25878  0.18105  1.0000 0.1220849734
H   H53       1.0  0.52748  0.18900  0.05519  1.0000 0.1103696497
H   H54       1.0  0.36325  0.12231  0.25006  1.0000 0.1314097154
H   H55       1.0  0.17421  0.00781  0.23267  1.0000 0.1103696497
H   H56       1.0  0.06672  0.93040  0.12250  1.0000 0.1103696497
H   H57       1.0  0.14226  0.96116  0.02624  1.0000 0.1314097154
H   H58       1.0  0.99943  0.55679  0.96047  1.0000 0.1103696497
H   H59       1.0  0.08358  0.58134  0.94160  1.0000 0.1103696497
H   H60       1.0  0.20358  0.68376  0.05061  1.0000 0.1314097154
H   H61       1.0  0.11971  0.65965  0.06920  1.0000 0.1103696497
H   H62       1.0  0.19098  0.82610  0.01791  1.0000 0.1103696497
H   H63       1.0  0.52444  0.13158  0.84949  1.0000 0.1381897554
H   H64       1.0  0.59321  0.10811  0.81545  1.0000 0.1103696497
H   H65       1.0  0.50572  0.94144  0.86258  1.0000 0.0991302673
H   H66       1.0  0.34548  0.79046  0.94537  1.0000 0.1381897554
H   H67       1.0  0.85351  0.72885  0.84597  1.0000 0.1220849734
H   H68       1.0  0.57783  0.35913  0.85686  1.0000 0.1220849734
H   H69       1.0  0.93655  0.63931  0.93927  1.0000 0.1220849734
H   H70       1.0  0.22948  0.27142  0.64898  1.0000 0.1314097154
H   H71       1.0  0.11222  0.17670  0.52872  1.0000 0.1220849734
H   H72       1.0  0.18273  0.21565  0.46832  1.0000 0.1220849734
H   H73       1.0  0.10372  0.05200  0.50926  1.0000 0.1103696497
H   H74       1.0  0.03824  0.01562  0.57262  1.0000 0.1103696497
H   H75       1.0  0.36256  0.29782  0.45568  1.0000 0.1314097154
H   H76       1.0  0.56555  0.43637  0.46416  1.0000 0.1103696497
H   H77       1.0  0.70151  0.55593  0.56303  1.0000 0.1103696497
H   H78       1.0  0.64065  0.54389  0.65827  1.0000 0.1314097154
H   H79       1.0  0.08522  0.67606  0.76814  1.0000 0.1103696497
H   H80       1.0  0.14734  0.79076  0.84958  1.0000 0.1314097154
H   H81       1.0  0.39359  0.18339  0.77485  1.0000 0.1220849734
H   H82       1.0  0.25465  0.93407  0.61006  1.0000 0.1314097154
H   H83       1.0  0.14105  0.74863  0.65101  1.0000 0.0991302673
H   H84       1.0  0.42222  0.23068  0.64160  1.0000 0.1220849734
H   H85       1.0  0.35355  0.12761  0.59492  1.0000 0.1220849734
H   H86       1.0  0.58262  0.32710  0.59317  1.0000 0.1103696497
H   H87       1.0  0.51968  0.21006  0.62030  1.0000 0.1103696497
H   H88       1.0  0.57574  0.26918  0.73754  1.0000 0.1103696497
H   H89       1.0  0.63491  0.38377  0.71172  1.0000 0.1103696497
H   H90       1.0  0.79928  0.46050  0.74018  1.0000 0.1220849734
H   H91       1.0  0.74122  0.37530  0.68105  1.0000 0.1220849734
H   H92       1.0  0.81100  0.47252  0.55519  1.0000 0.1103696497
H   H93       1.0  0.87769  0.63675  0.75006  1.0000 0.1314097154
H   H94       1.0  0.99219  0.82579  0.73267  1.0000 0.1103696497
H   H95       1.0  0.06960  0.93328  0.62250  1.0000 0.1103696497
H   H96       1.0  0.03884  0.85774  0.52624  1.0000 0.1314097154
H   H97       1.0  0.44321  0.00057  0.46047  1.0000 0.1103696497
H   H98       1.0  0.41866  0.91642  0.44160  1.0000 0.1103696497
H   H99       1.0  0.31624  0.79642  0.55061  1.0000 0.1314097154
H   H100      1.0  0.34035  0.88029  0.56920  1.0000 0.1103696497
H   H101      1.0  0.17390  0.80902  0.51791  1.0000 0.1103696497
H   H102      1.0  0.86842  0.47556  0.34949  1.0000 0.1381897554
H   H103      1.0  0.89189  0.40679  0.31545  1.0000 0.1103696497
H   H104      1.0  0.05856  0.49428  0.36258  1.0000 0.0991302673
H   H105      1.0  0.20954  0.65452  0.44537  1.0000 0.1381897554
H   H106      1.0  0.27115  0.14649  0.34597  1.0000 0.1220849734
H   H107      1.0  0.64087  0.42217  0.35686  1.0000 0.1220849734
H   H108      1.0  0.36069  0.06345  0.43927  1.0000 0.1220849734
H   H109      1.0  0.72858  0.77052  0.14898  1.0000 0.1314097154
H   H110      1.0  0.82330  0.88778  0.02872  1.0000 0.1220849734
H   H111      1.0  0.78435  0.81727  0.96832  1.0000 0.1220849734
H   H112      1.0  0.94800  0.89628  0.00926  1.0000 0.1103696497
H   H113      1.0  0.98438  0.96176  0.07262  1.0000 0.1103696497
H   H114      1.0  0.70218  0.63744  0.95568  1.0000 0.1314097154
H   H115      1.0  0.56363  0.43445  0.96416  1.0000 0.1103696497
H   H116      1.0  0.44407  0.29849  0.06303  1.0000 0.1103696497
H   H117      1.0  0.45611  0.35935  0.15827  1.0000 0.1314097154
H   H118      1.0  0.67606  0.08522  0.73186  1.0000 0.1103696497
H   H119      1.0  0.79076  0.14734  0.65042  1.0000 0.1314097154
H   H120      1.0  0.18339  0.39359  0.72515  1.0000 0.1220849734
H   H121      1.0  0.93407  0.25465  0.88994  1.0000 0.1314097154
H   H122      1.0  0.74863  0.14105  0.84899  1.0000 0.0991302673
H   H123      1.0  0.23068  0.42222  0.85840  1.0000 0.1220849734
H   H124      1.0  0.12761  0.35355  0.90508  1.0000 0.1220849734
H   H125      1.0  0.32710  0.58262  0.90683  1.0000 0.1103696497
H   H126      1.0  0.21006  0.51968  0.87970  1.0000 0.1103696497
H   H127      1.0  0.26918  0.57574  0.76246  1.0000 0.1103696497
H   H128      1.0  0.38377  0.63491  0.78828  1.0000 0.1103696497
H   H129      1.0  0.46050  0.79928  0.75982  1.0000 0.1220849734
H   H130      1.0  0.37530  0.74122  0.81895  1.0000 0.1220849734
H   H131      1.0  0.47252  0.81100  0.94481  1.0000 0.1103696497
H   H132      1.0  0.63675  0.87769  0.74994  1.0000 0.1314097154
H   H133      1.0  0.82579  0.99219  0.76733  1.0000 0.1103696497
H   H134      1.0  0.93328  0.06960  0.87750  1.0000 0.1103696497
H   H135      1.0  0.85774  0.03884  0.97376  1.0000 0.1314097154
H   H136      1.0  0.00057  0.44321  0.03953  1.0000 0.1103696497
H   H137      1.0  0.91642  0.41866  0.05840  1.0000 0.1103696497
H   H138      1.0  0.79642  0.31624  0.94939  1.0000 0.1314097154
H   H139      1.0  0.88029  0.34035  0.93080  1.0000 0.1103696497
H   H140      1.0  0.80902  0.17390  0.98209  1.0000 0.1103696497
H   H141      1.0  0.47556  0.86842  0.15051  1.0000 0.1381897554
H   H142      1.0  0.40679  0.89189  0.18455  1.0000 0.1103696497
H   H143      1.0  0.49428  0.05856  0.13742  1.0000 0.0991302673
H   H144      1.0  0.65452  0.20954  0.05463  1.0000 0.1381897554
H   H145      1.0  0.14649  0.27115  0.15403  1.0000 0.1220849734
H   H146      1.0  0.42217  0.64087  0.14314  1.0000 0.1220849734
H   H147      1.0  0.06345  0.36069  0.06073  1.0000 0.1220849734
H   H148      1.0  0.77052  0.72858  0.35102  1.0000 0.1314097154
H   H149      1.0  0.88778  0.82330  0.47128  1.0000 0.1220849734
H   H150      1.0  0.81727  0.78435  0.53168  1.0000 0.1220849734
H   H151      1.0  0.89628  0.94800  0.49074  1.0000 0.1103696497
H   H152      1.0  0.96176  0.98438  0.42738  1.0000 0.1103696497
H   H153      1.0  0.63744  0.70218  0.54432  1.0000 0.1314097154
H   H154      1.0  0.43445  0.56363  0.53584  1.0000 0.1103696497
H   H155      1.0  0.29849  0.44407  0.43697  1.0000 0.1103696497
H   H156      1.0  0.35935  0.45611  0.34173  1.0000 0.1314097154
C   C1        1.0  0.86654  0.24726  0.24660  1.0000 -0.1102438398
C   C2        1.0  0.82916  0.17904  0.19764  1.0000 -0.142259242
C   C3        1.0  0.75545  0.06395  0.22106  1.0000 0.1381897554
C   C4        1.0  0.64880  0.88800  0.23448  1.0000 0.1381897554
C   C5        1.0  0.72775  0.02485  0.29308  1.0000 0.0895762202
C   C6        1.0  0.76554  0.09366  0.34226  1.0000 -0.1706080017
C   C7        1.0  0.83380  0.20400  0.31760  1.0000 -0.1102438398
C   C8        1.0  0.59279  0.82321  0.36223  1.0000 -0.1102438398
C   C9        1.0  0.46390  0.73690  0.36803  1.0000 -0.1872680516
C   C10       1.0  0.37841  0.66639  0.30080  1.0000 -0.1872680516
C   C11       1.0  0.24658  0.57562  0.30599  1.0000 -0.1102438398
C   C12       1.0  0.15512  0.46528  0.42682  1.0000 0.1314097154
C   C13       1.0  0.10765  0.36355  0.35205  1.0000 0.0798453308
C   C14       1.0  0.08988  0.31912  0.29414  1.0000 -0.1706080017
C   C15       1.0  0.02243  0.20737  0.30511  1.0000 -0.0807521138
C   C16       1.0  0.97496  0.14184  0.37183  1.0000 -0.1191353677
C   C17       1.0  0.99273  0.18607  0.42949  1.0000 -0.1632173564
C   C18       1.0  0.05951  0.29849  0.41886  1.0000 0.1314097154
C   C19       1.0  0.56411  0.04689  0.51949  1.0000 -0.1765636187
C   C20       1.0  0.67677  0.15643  0.46960  1.0000 -0.1102438398
C   C21       1.0  0.85778  0.24682  0.50855  1.0000 0.1220849734
C   C22       1.0  0.97507  0.39433  0.58052  1.0000 0.1381897554
C   C23       1.0  0.06435  0.48925  0.63102  1.0000 -0.1309620132
C   C24       1.0  0.04927  0.52913  0.65110  1.0000 -0.1191353677
C   C25       1.0  0.94809  0.47591  0.62260  1.0000 -0.1102438398
C   C26       1.0  0.85822  0.38118  0.57340  1.0000 -0.1706080017
C   C27       1.0  0.87369  0.34111  0.55310  1.0000 0.0895762202
C   C28       1.0  0.84993  0.05787  0.59373  1.0000 0.5515325797
C   C29       1.0  0.70727  0.91773  0.60556  1.0000 -0.0198610538
C   C30       1.0  0.66741  0.82779  0.64028  1.0000 -0.1309620132
C   C31       1.0  0.53777  0.70103  0.65449  1.0000 -0.0256347018
C   C32       1.0  0.44656  0.66304  0.63335  1.0000 -0.1309620132
C   C33       1.0  0.48409  0.75011  0.59806  1.0000 -0.0972647424
C   C34       1.0  0.61403  0.87757  0.58424  1.0000 -0.1191353677
C   C35       1.0  0.48991  0.60029  0.69068  1.0000 0.5302809012
C   C36       1.0  0.30473  0.29027  0.87108  1.0000 0.1381897554
C   C37       1.0  0.18209  0.15591  0.98290  1.0000 -0.1102438398
C   C38       1.0  0.04751  0.06169  0.97660  1.0000 -0.1872680516
C   C39       1.0  0.34041  0.38179  0.94706  1.0000 0.0798453308
C   C40       1.0  0.34680  0.41760  0.00426  1.0000 -0.1765636187
C   C41       1.0  0.42896  0.53804  0.99840  1.0000 -0.0937366876
C   C42       1.0  0.50171  0.62069  0.93870  1.0000 -0.1191353677
C   C43       1.0  0.49502  0.58518  0.88173  1.0000 -0.1706080017
C   C44       1.0  0.41289  0.46391  0.88646  1.0000 0.1314097154
C   C45       1.0  0.24726  0.86654  0.25340  1.0000 -0.1102438398
C   C46       1.0  0.17904  0.82916  0.30236  1.0000 -0.142259242
C   C47       1.0  0.06395  0.75545  0.27894  1.0000 0.1381897554
C   C48       1.0  0.88800  0.64880  0.26552  1.0000 0.1381897554
C   C49       1.0  0.02485  0.72775  0.20692  1.0000 0.0895762202
C   C50       1.0  0.09366  0.76554  0.15774  1.0000 -0.1706080017
C   C51       1.0  0.20400  0.83380  0.18240  1.0000 -0.1102438398
C   C52       1.0  0.82321  0.59279  0.13777  1.0000 -0.1102438398
C   C53       1.0  0.73690  0.46390  0.13197  1.0000 -0.1872680516
C   C54       1.0  0.66639  0.37841  0.19920  1.0000 -0.1872680516
C   C55       1.0  0.57562  0.24658  0.19401  1.0000 -0.1102438398
C   C56       1.0  0.46528  0.15512  0.07318  1.0000 0.1314097154
C   C57       1.0  0.36355  0.10765  0.14795  1.0000 0.0798453308
C   C58       1.0  0.31912  0.08988  0.20586  1.0000 -0.1706080017
C   C59       1.0  0.20737  0.02243  0.19489  1.0000 -0.0807521138
C   C60       1.0  0.14184  0.97496  0.12817  1.0000 -0.1309620132
C   C61       1.0  0.18607  0.99273  0.07051  1.0000 -0.1632173564
C   C62       1.0  0.29849  0.05951  0.08114  1.0000 0.1314097154
C   C63       1.0  0.04689  0.56411  0.98051  1.0000 -0.1765636187
C   C64       1.0  0.15643  0.67677  0.03040  1.0000 -0.1102438398
C   C65       1.0  0.24682  0.85778  0.99145  1.0000 0.1220849734
C   C66       1.0  0.39433  0.97507  0.91948  1.0000 0.1381897554
C   C67       1.0  0.48925  0.06435  0.86898  1.0000 -0.1309620132
C   C68       1.0  0.52913  0.04927  0.84890  1.0000 -0.1191353677
C   C69       1.0  0.47591  0.94809  0.87740  1.0000 -0.1102438398
C   C70       1.0  0.38118  0.85822  0.92660  1.0000 -0.1706080017
C   C71       1.0  0.34111  0.87369  0.94690  1.0000 0.0895762202
C   C72       1.0  0.05787  0.84993  0.90627  1.0000 0.5515325797
C   C73       1.0  0.91773  0.70727  0.89444  1.0000 -0.0198610538
C   C74       1.0  0.82779  0.66741  0.85972  1.0000 -0.1309620132
C   C75       1.0  0.70103  0.53777  0.84551  1.0000 -0.0256347018
C   C76       1.0  0.66304  0.44656  0.86665  1.0000 -0.1309620132
C   C77       1.0  0.75011  0.48409  0.90194  1.0000 -0.0972647424
C   C78       1.0  0.87757  0.61403  0.91576  1.0000 -0.1191353677
C   C79       1.0  0.60029  0.48991  0.80932  1.0000 0.5302809012
C   C80       1.0  0.29027  0.30473  0.62892  1.0000 0.1381897554
C   C81       1.0  0.15591  0.18209  0.51710  1.0000 -0.1102438398
C   C82       1.0  0.06169  0.04751  0.52340  1.0000 -0.1872680516
C   C83       1.0  0.38179  0.34041  0.55294  1.0000 0.0798453308
C   C84       1.0  0.41760  0.34680  0.49574  1.0000 -0.1765636187
C   C85       1.0  0.53804  0.42896  0.50160  1.0000 -0.0937366876
C   C86       1.0  0.62069  0.50171  0.56130  1.0000 -0.1191353677
C   C87       1.0  0.58518  0.49502  0.61827  1.0000 -0.1706080017
C   C88       1.0  0.46391  0.41289  0.61354  1.0000 0.1314097154
C   C89       1.0  0.13346  0.75274  0.75340  1.0000 -0.1102438398
C   C90       1.0  0.17084  0.82096  0.80236  1.0000 -0.142259242
C   C91       1.0  0.24455  0.93605  0.77894  1.0000 0.1381897554
C   C92       1.0  0.35120  0.11200  0.76552  1.0000 0.1381897554
C   C93       1.0  0.27225  0.97515  0.70692  1.0000 0.0895762202
C   C94       1.0  0.23446  0.90634  0.65774  1.0000 -0.1706080017
C   C95       1.0  0.16620  0.79600  0.68240  1.0000 -0.1102438398
C   C96       1.0  0.40721  0.17679  0.63777  1.0000 -0.1102438398
C   C97       1.0  0.53610  0.26310  0.63197  1.0000 -0.1872680516
C   C98       1.0  0.62159  0.33361  0.69920  1.0000 -0.1872680516
C   C99       1.0  0.75342  0.42438  0.69401  1.0000 -0.1102438398
C   C100      1.0  0.84488  0.53472  0.57318  1.0000 0.1314097154
C   C101      1.0  0.89235  0.63645  0.64795  1.0000 0.0798453308
C   C102      1.0  0.91012  0.68088  0.70586  1.0000 -0.1706080017
C   C103      1.0  0.97757  0.79263  0.69489  1.0000 -0.0807521138
C   C104      1.0  0.02504  0.85816  0.62817  1.0000 -0.1191353677
C   C105      1.0  0.00727  0.81393  0.57051  1.0000 -0.1632173564
C   C106      1.0  0.94049  0.70151  0.58114  1.0000 0.1314097154
C   C107      1.0  0.43589  0.95311  0.48051  1.0000 -0.1765636187
C   C108      1.0  0.32323  0.84357  0.53040  1.0000 -0.1102438398
C   C109      1.0  0.14222  0.75318  0.49145  1.0000 0.1220849734
C   C110      1.0  0.02493  0.60567  0.41948  1.0000 0.1381897554
C   C111      1.0  0.93565  0.51075  0.36898  1.0000 -0.1309620132
C   C112      1.0  0.95073  0.47087  0.34890  1.0000 -0.1191353677
C   C113      1.0  0.05191  0.52409  0.37740  1.0000 -0.1102438398
C   C114      1.0  0.14178  0.61882  0.42660  1.0000 -0.1706080017
C   C115      1.0  0.12631  0.65889  0.44690  1.0000 0.0895762202
C   C116      1.0  0.15007  0.94213  0.40627  1.0000 0.5515325797
C   C117      1.0  0.29273  0.08227  0.39444  1.0000 -0.0198610538
C   C118      1.0  0.33259  0.17221  0.35972  1.0000 -0.1309620132
C   C119      1.0  0.46223  0.29897  0.34551  1.0000 -0.0256347018
C   C120      1.0  0.55344  0.33696  0.36665  1.0000 -0.1309620132
C   C121      1.0  0.51591  0.24989  0.40194  1.0000 -0.0972647424
C   C122      1.0  0.38597  0.12243  0.41576  1.0000 -0.1191353677
C   C123      1.0  0.51009  0.39971  0.30932  1.0000 0.5302809012
C   C124      1.0  0.69527  0.70973  0.12892  1.0000 0.1381897554
C   C125      1.0  0.81791  0.84409  0.01710  1.0000 -0.1102438398
C   C126      1.0  0.95249  0.93831  0.02340  1.0000 -0.1872680516
C   C127      1.0  0.65959  0.61821  0.05294  1.0000 0.0798453308
C   C128      1.0  0.65320  0.58240  0.99574  1.0000 -0.1765636187
C   C129      1.0  0.57104  0.46196  0.00160  1.0000 -0.0937366876
C   C130      1.0  0.49829  0.37931  0.06130  1.0000 -0.1191353677
C   C131      1.0  0.50498  0.41482  0.11827  1.0000 -0.1706080017
C   C132      1.0  0.58711  0.53609  0.11354  1.0000 0.1314097154
C   C133      1.0  0.75274  0.13346  0.74660  1.0000 -0.1102438398
C   C134      1.0  0.82096  0.17084  0.69764  1.0000 -0.142259242
C   C135      1.0  0.93605  0.24455  0.72106  1.0000 0.1381897554
C   C136      1.0  0.11200  0.35120  0.73448  1.0000 0.1381897554
C   C137      1.0  0.97515  0.27225  0.79308  1.0000 0.0895762202
C   C138      1.0  0.90634  0.23446  0.84226  1.0000 -0.1706080017
C   C139      1.0  0.79600  0.16620  0.81760  1.0000 -0.1102438398
C   C140      1.0  0.17679  0.40721  0.86223  1.0000 -0.1102438398
C   C141      1.0  0.26310  0.53610  0.86803  1.0000 -0.1872680516
C   C142      1.0  0.33361  0.62159  0.80080  1.0000 -0.1872680516
C   C143      1.0  0.42438  0.75342  0.80599  1.0000 -0.1102438398
C   C144      1.0  0.53472  0.84488  0.92682  1.0000 0.1314097154
C   C145      1.0  0.63645  0.89235  0.85205  1.0000 0.0798453308
C   C146      1.0  0.68088  0.91012  0.79414  1.0000 -0.1706080017
C   C147      1.0  0.79263  0.97757  0.80511  1.0000 -0.0807521138
C   C148      1.0  0.85816  0.02504  0.87183  1.0000 -0.1191353677
C   C149      1.0  0.81393  0.00727  0.92949  1.0000 -0.1632173564
C   C150      1.0  0.70151  0.94049  0.91886  1.0000 0.1314097154
C   C151      1.0  0.95311  0.43589  0.01949  1.0000 -0.1765636187
C   C152      1.0  0.84357  0.32323  0.96960  1.0000 -0.1102438398
C   C153      1.0  0.75318  0.14222  0.00855  1.0000 0.1220849734
C   C154      1.0  0.60567  0.02493  0.08052  1.0000 0.1381897554
C   C155      1.0  0.51075  0.93565  0.13102  1.0000 -0.1309620132
C   C156      1.0  0.47087  0.95073  0.15110  1.0000 -0.1191353677
C   C157      1.0  0.52409  0.05191  0.12260  1.0000 -0.1102438398
C   C158      1.0  0.61882  0.14178  0.07340  1.0000 -0.1706080017
C   C159      1.0  0.65889  0.12631  0.05310  1.0000 0.0895762202
C   C160      1.0  0.94213  0.15007  0.09373  1.0000 0.5515325797
C   C161      1.0  0.08227  0.29273  0.10556  1.0000 -0.0198610538
C   C162      1.0  0.17221  0.33259  0.14028  1.0000 -0.1309620132
C   C163      1.0  0.29897  0.46223  0.15449  1.0000 -0.0256347018
C   C164      1.0  0.33696  0.55344  0.13335  1.0000 -0.1309620132
C   C165      1.0  0.24989  0.51591  0.09806  1.0000 -0.0972647424
C   C166      1.0  0.12243  0.38597  0.08424  1.0000 -0.1191353677
C   C167      1.0  0.39971  0.51009  0.19068  1.0000 0.5302809012
C   C168      1.0  0.70973  0.69527  0.37108  1.0000 0.1381897554
C   C169      1.0  0.84409  0.81791  0.48290  1.0000 -0.1102438398
C   C170      1.0  0.93831  0.95249  0.47660  1.0000 -0.1872680516
C   C171      1.0  0.61821  0.65959  0.44706  1.0000 0.0798453308
C   C172      1.0  0.58240  0.65320  0.50426  1.0000 -0.1765636187
C   C173      1.0  0.46196  0.57104  0.49840  1.0000 -0.0937366876
C   C174      1.0  0.37931  0.49829  0.43870  1.0000 -0.1191353677
C   C175      1.0  0.41482  0.50498  0.38173  1.0000 -0.1706080017
C   C176      1.0  0.53609  0.58711  0.38646  1.0000 0.1314097154
S   S1        1.0  0.36177  0.69467  0.57488  1.0000 1.1575753522
S   S2        1.0  0.69467  0.36177  0.92512  1.0000 1.1575753522
S   S3        1.0  0.63823  0.30533  0.42512  1.0000 1.1575753522
S   S4        1.0  0.30533  0.63823  0.07488  1.0000 1.1575753522
N   N1        1.0  0.70125  0.97315  0.18490  1.0000 -0.3521046433
N   N2        1.0  0.66226  0.91394  0.30017  1.0000 -0.0198610538
N   N3        1.0  0.16720  0.46880  0.35889  1.0000 -0.0198610538
N   N4        1.0  0.09112  0.36588  0.46522  1.0000 -0.3667852114
N   N5        1.0  0.96300  0.33280  0.55085  1.0000 -0.3521046433
N   N6        1.0  0.80041  0.24719  0.50709  1.0000 -0.0198610538
N   N7        1.0  0.38809  0.40291  0.83926  1.0000 -0.3667852114
N   N8        1.0  0.27257  0.27183  0.93535  1.0000 -0.0198610538
N   N9        1.0  0.97315  0.70125  0.31510  1.0000 -0.3521046433
N   N10       1.0  0.91394  0.66226  0.19983  1.0000 -0.0198610538
N   N11       1.0  0.46880  0.16720  0.14111  1.0000 -0.0198610538
N   N12       1.0  0.36588  0.09112  0.03478  1.0000 -0.3667852114
N   N13       1.0  0.33280  0.96300  0.94915  1.0000 -0.3521046433
N   N14       1.0  0.24719  0.80041  0.99291  1.0000 -0.0198610538
N   N15       1.0  0.40291  0.38809  0.66074  1.0000 -0.3667852114
N   N16       1.0  0.27183  0.27257  0.56465  1.0000 -0.0198610538
N   N17       1.0  0.29875  0.02685  0.81510  1.0000 -0.3521046433
N   N18       1.0  0.33774  0.08606  0.69983  1.0000 -0.0198610538
N   N19       1.0  0.83280  0.53120  0.64111  1.0000 -0.0198610538
N   N20       1.0  0.90888  0.63412  0.53478  1.0000 -0.3667852114
N   N21       1.0  0.03700  0.66720  0.44915  1.0000 -0.3521046433
N   N22       1.0  0.19959  0.75281  0.49291  1.0000 -0.0198610538
N   N23       1.0  0.61191  0.59709  0.16074  1.0000 -0.3667852114
N   N24       1.0  0.72743  0.72817  0.06465  1.0000 -0.0198610538
N   N25       1.0  0.02685  0.29875  0.68490  1.0000 -0.3521046433
N   N26       1.0  0.08606  0.33774  0.80017  1.0000 -0.0198610538
N   N27       1.0  0.53120  0.83280  0.85889  1.0000 -0.0198610538
N   N28       1.0  0.63412  0.90888  0.96522  1.0000 -0.3667852114
N   N29       1.0  0.66720  0.03700  0.05085  1.0000 -0.3521046433
N   N30       1.0  0.75281  0.19959  0.00709  1.0000 -0.0198610538
N   N31       1.0  0.59709  0.61191  0.33926  1.0000 -0.3667852114
N   N32       1.0  0.72817  0.72743  0.43535  1.0000 -0.0198610538
O   O1        1.0  0.87906  0.13414  0.56363  1.0000 -0.5797873008
O   O2        1.0  0.92916  0.08832  0.61462  1.0000 -0.5881248582
O   O3        1.0  0.38333  0.74147  0.50269  1.0000 -0.6159479487
O   O4        1.0  0.37844  0.74796  0.62644  1.0000 -0.6118656763
O   O5        1.0  0.23956  0.55242  0.58174  1.0000 -0.6417413968
O   O6        1.0  0.37142  0.48486  0.69579  1.0000 -0.564364003
O   O7        1.0  0.57653  0.63981  0.71527  1.0000 -0.5324989277
O   O8        1.0  0.13414  0.87906  0.93637  1.0000 -0.5797873008
O   O9        1.0  0.08832  0.92916  0.88538  1.0000 -0.5881248582
O   O10       1.0  0.74147  0.38333  0.99731  1.0000 -0.6118656763
O   O11       1.0  0.74796  0.37844  0.87356  1.0000 -0.6118656763
O   O12       1.0  0.55242  0.23956  0.91826  1.0000 -0.6417413968
O   O13       1.0  0.48486  0.37142  0.80421  1.0000 -0.564364003
O   O14       1.0  0.63981  0.57653  0.78473  1.0000 -0.5324989277
O   O15       1.0  0.12094  0.86586  0.43637  1.0000 -0.5797873008
O   O16       1.0  0.07084  0.91168  0.38538  1.0000 -0.5881248582
O   O17       1.0  0.61667  0.25853  0.49731  1.0000 -0.6159479487
O   O18       1.0  0.62156  0.25204  0.37356  1.0000 -0.6118656763
O   O19       1.0  0.76044  0.44758  0.41826  1.0000 -0.6417413968
O   O20       1.0  0.62858  0.51514  0.30421  1.0000 -0.564364003
O   O21       1.0  0.42347  0.36019  0.28473  1.0000 -0.5324989277
O   O22       1.0  0.86586  0.12094  0.06363  1.0000 -0.5797873008
O   O23       1.0  0.91168  0.07084  0.11462  1.0000 -0.5881248582
O   O24       1.0  0.25853  0.61667  0.00269  1.0000 -0.6118656763
O   O25       1.0  0.25204  0.62156  0.12644  1.0000 -0.6118656763
O   O26       1.0  0.44758  0.76044  0.08174  1.0000 -0.6417413968
O   O27       1.0  0.51514  0.62858  0.19579  1.0000 -0.564364003
O   O28       1.0  0.36019  0.42347  0.21527  1.0000 -0.5324989277
