# DDEC6 charges by PACMAN v1.1 (https://github.com/mtap-research/PACMAN-charge/)
data_2020[Lu][hcb]2[ASR]1
_chemical_formula_sum              "Lu2 H12 C24 O18"
_cell_length_a       6.7487
_cell_length_b       8.4114
_cell_length_c       17.4415
_cell_angle_alpha    93.865
_cell_angle_beta     99.382
_cell_angle_gamma    94.223

_symmetry_space_group_name_H-M    "P 1"
_symmetry_Int_Tables_number       1

loop_
  _symmetry_equiv_pos_as_xyz
  'x, y, z'

loop_
  _atom_site_type_symbol
  _atom_site_label
  _atom_site_symmetry_multiplicity
  _atom_site_fract_x
  _atom_site_fract_y
  _atom_site_fract_z
  _atom_site_occupancy
  _atom_site_charge
Lu  Lu1       1.0  0.61146  0.50675  0.28040  1.0000 1.4114464226
Lu  Lu2       1.0  0.38854  0.49325  0.71960  1.0000 1.3900047245
H   H1        1.0  0.35944  0.86531  0.38004  1.0000 0.1419826786
H   H2        1.0  0.05868  0.96743  0.63354  1.0000 0.155332044
H   H3        1.0  0.04808  0.41340  0.12583  1.0000 0.1419826786
H   H4        1.0  0.36488  0.64673  0.53280  1.0000 0.3431307974
H   H5        1.0  0.84609  0.64314  0.51979  1.0000 0.3483702245
H   H6        1.0  0.37219  0.29333  0.01252  1.0000 0.3431307974
H   H7        1.0  0.64056  0.13469  0.61996  1.0000 0.1419826786
H   H8        1.0  0.94132  0.03257  0.36646  1.0000 0.155332044
H   H9        1.0  0.95192  0.58660  0.87417  1.0000 0.1419826786
H   H10       1.0  0.63512  0.35327  0.46720  1.0000 0.3431307974
H   H11       1.0  0.15391  0.35686  0.48021  1.0000 0.3483702245
H   H12       1.0  0.62781  0.70667  0.98748  1.0000 0.3431307974
C   C1        1.0  0.47970  0.16060  0.35750  1.0000 0.580485225
C   C2        1.0  0.49250  0.07990  0.43140  1.0000 -0.1330394873
C   C3        1.0  0.41640  0.92050  0.42890  1.0000 -0.1940337715
C   C4        1.0  0.42210  0.84110  0.49610  1.0000 0.2447426024
C   C5        1.0  0.82050  0.73830  0.38920  1.0000 0.5678289237
C   C6        1.0  0.91280  0.87280  0.44700  1.0000 -0.1197744568
C   C7        1.0  0.95030  0.85190  0.52690  1.0000 0.2533171478
C   C8        1.0  0.03560  0.98040  0.57920  1.0000 -0.1634509635
C   C9        1.0  0.72710  0.58150  0.10650  1.0000 0.6089345816
C   C10       1.0  0.86870  0.54000  0.05130  1.0000 -0.1330394873
C   C11       1.0  0.02860  0.44850  0.07470  1.0000 -0.175672203
C   C12       1.0  0.15960  0.40810  0.02440  1.0000 0.2685109379
C   C13       1.0  0.52030  0.83940  0.64250  1.0000 0.580485225
C   C14       1.0  0.50750  0.92010  0.56860  1.0000 -0.1330394873
C   C15       1.0  0.58360  0.07950  0.57110  1.0000 -0.1940337715
C   C16       1.0  0.57790  0.15890  0.50390  1.0000 0.2447426024
C   C17       1.0  0.17950  0.26170  0.61080  1.0000 0.5678289237
C   C18       1.0  0.08720  0.12720  0.55300  1.0000 -0.1197744568
C   C19       1.0  0.04970  0.14810  0.47310  1.0000 0.2533171478
C   C20       1.0  0.96440  0.01960  0.42080  1.0000 -0.1634509635
C   C21       1.0  0.27290  0.41850  0.89350  1.0000 0.6089345816
C   C22       1.0  0.13130  0.46000  0.94870  1.0000 -0.1330394873
C   C23       1.0  0.97140  0.55150  0.92530  1.0000 -0.175672203
C   C24       1.0  0.84040  0.59190  0.97560  1.0000 0.2685109379
O   O1        1.0  0.58010  0.29680  0.36070  1.0000 -0.5968168673
O   O2        1.0  0.37350  0.09490  0.29740  1.0000 -0.4992990715
O   O3        1.0  0.34270  0.68470  0.48920  1.0000 -0.4302639661
O   O4        1.0  0.75370  0.60790  0.41340  1.0000 -0.5486084519
O   O5        1.0  0.80190  0.75270  0.31740  1.0000 -0.5170945224
O   O6        1.0  0.90170  0.70980  0.55640  1.0000 -0.4083498813
O   O7        1.0  0.75220  0.52510  0.17217  1.0000 -0.574814826
O   O8        1.0  0.58840  0.66820  0.08330  1.0000 -0.4992990715
O   O9        1.0  0.31300  0.31880  0.04980  1.0000 -0.4042733309
O   O10       1.0  0.41990  0.70320  0.63930  1.0000 -0.5940280256
O   O11       1.0  0.62650  0.90510  0.70260  1.0000 -0.4992990715
O   O12       1.0  0.65730  0.31530  0.51080  1.0000 -0.4302639661
O   O13       1.0  0.24630  0.39210  0.58660  1.0000 -0.5486084519
O   O14       1.0  0.19810  0.24730  0.68260  1.0000 -0.5170945224
O   O15       1.0  0.09830  0.29020  0.44360  1.0000 -0.4083498813
O   O16       1.0  0.24780  0.47490  0.82783  1.0000 -0.574814826
O   O17       1.0  0.41160  0.33180  0.91670  1.0000 -0.4992990715
O   O18       1.0  0.68700  0.68120  0.95020  1.0000 -0.4083498813
