# DDEC6 charges by PACMAN v1.1 (https://github.com/mtap-research/PACMAN-charge/)
data_2020[Tb][nan]3[ASR]7
_chemical_formula_sum              "Tb8 H16 C60 N8 O48"
_cell_length_a       10.7172
_cell_length_b       18.4658
_cell_length_c       13.9588
_cell_angle_alpha    90
_cell_angle_beta     118.814
_cell_angle_gamma    90

_symmetry_space_group_name_H-M    "P 1"
_symmetry_Int_Tables_number       1

loop_
  _symmetry_equiv_pos_as_xyz
  'x, y, z'

loop_
  _atom_site_type_symbol
  _atom_site_label
  _atom_site_symmetry_multiplicity
  _atom_site_fract_x
  _atom_site_fract_y
  _atom_site_fract_z
  _atom_site_occupancy
  _atom_site_charge
Tb  Tb1       1.0  0.01742  0.74900  0.74845  1.0000 2.0101316501
Tb  Tb2       1.0  0.67529  0.23876  0.41684  1.0000 2.0730131199
Tb  Tb3       1.0  0.98258  0.24900  0.75155  1.0000 2.0101316501
Tb  Tb4       1.0  0.32471  0.73876  0.08316  1.0000 2.0730131199
Tb  Tb5       1.0  0.98258  0.25100  0.25155  1.0000 2.0101316501
Tb  Tb6       1.0  0.32471  0.76124  0.58316  1.0000 2.0730131199
Tb  Tb7       1.0  0.01742  0.75100  0.24845  1.0000 2.0101316501
Tb  Tb8       1.0  0.67529  0.26124  0.91684  1.0000 2.0730131199
H   H1        1.0  0.80338  0.73396  0.97489  1.0000 0.3151299288
H   H2        1.0  0.70235  0.74656  0.78154  1.0000 0.1237977077
H   H3        1.0  0.01154  0.47292  0.66773  1.0000 0.1314975419
H   H4        1.0  0.96797  0.98779  0.32307  1.0000 0.1314975419
H   H5        1.0  0.19662  0.23396  0.52511  1.0000 0.3151299288
H   H6        1.0  0.29765  0.24656  0.71846  1.0000 0.1237977077
H   H7        1.0  0.98846  0.97292  0.83227  1.0000 0.1314975419
H   H8        1.0  0.03203  0.48779  0.17693  1.0000 0.1314975419
H   H9        1.0  0.19662  0.26604  0.02511  1.0000 0.3151299288
H   H10       1.0  0.29765  0.25344  0.21846  1.0000 0.1237977077
H   H11       1.0  0.98846  0.52708  0.33227  1.0000 0.1314975419
H   H12       1.0  0.03203  0.01221  0.67693  1.0000 0.1314975419
H   H13       1.0  0.80338  0.76604  0.47489  1.0000 0.3151299288
H   H14       1.0  0.70235  0.75344  0.28154  1.0000 0.1237977077
H   H15       1.0  0.01154  0.02708  0.16773  1.0000 0.1314975419
H   H16       1.0  0.96797  0.51221  0.82307  1.0000 0.1314975419
C   C1        1.0  0.32680  0.75060  0.82640  1.0000 0.6394316981
C   C2        1.0  0.98980  0.42850  0.52800  1.0000 -0.0456672483
C   C3        1.0  0.01110  0.86030  0.40930  1.0000 0.6394316981
C   C4        1.0  0.48030  0.74510  0.86000  1.0000 0.0236142356
C   C5        1.0  0.00060  0.93110  0.45890  1.0000 -0.0208631819
C   C6        1.0  0.02180  0.61690  0.64440  1.0000 0.5789198806
C   C7        1.0  0.02800  0.87320  0.63160  1.0000 0.5722303917
C   C8        1.0  0.01930  0.93820  0.56460  1.0000 -0.0363776931
C   C9        1.0  0.96020  0.35350  0.55140  1.0000 0.6655686428
C   C10       1.0  0.01730  0.55590  0.57260  1.0000 -0.0208631819
C   C11       1.0  0.65110  0.74490  0.82120  1.0000 0.2269112249
C   C12       1.0  0.60430  0.73740  0.95900  1.0000 -0.0028509386
C   C13       1.0  0.00680  0.48370  0.59950  1.0000 -0.1264390754
C   C14       1.0  0.98110  0.99300  0.39510  1.0000 -0.1208051364
C   C15       1.0  0.63910  0.72480  0.07290  1.0000 0.6394316981
C   C16       1.0  0.67320  0.25060  0.67360  1.0000 0.6394316981
C   C17       1.0  0.01020  0.92850  0.97200  1.0000 -0.0456672483
C   C18       1.0  0.98890  0.36030  0.09070  1.0000 0.6394316981
C   C19       1.0  0.51970  0.24510  0.64000  1.0000 0.0236142356
C   C20       1.0  0.99940  0.43110  0.04110  1.0000 -0.0208631819
C   C21       1.0  0.97820  0.11690  0.85560  1.0000 0.5789198806
C   C22       1.0  0.97200  0.37320  0.86840  1.0000 0.5722303917
C   C23       1.0  0.98070  0.43820  0.93540  1.0000 -0.0363776931
C   C24       1.0  0.03980  0.85350  0.94860  1.0000 0.6655686428
C   C25       1.0  0.98270  0.05590  0.92740  1.0000 -0.0208631819
C   C26       1.0  0.34890  0.24490  0.67880  1.0000 0.2269112249
C   C27       1.0  0.39570  0.23740  0.54100  1.0000 -0.0028509386
C   C28       1.0  0.99320  0.98370  0.90050  1.0000 -0.1264390754
C   C29       1.0  0.01890  0.49300  0.10490  1.0000 -0.1208051364
C   C30       1.0  0.36090  0.22480  0.42710  1.0000 0.6394316981
C   C31       1.0  0.67320  0.24940  0.17360  1.0000 0.6394316981
C   C32       1.0  0.01020  0.57150  0.47200  1.0000 -0.0456672483
C   C33       1.0  0.98890  0.13970  0.59070  1.0000 0.6394316981
C   C34       1.0  0.51970  0.25490  0.14000  1.0000 0.0236142356
C   C35       1.0  0.99940  0.06890  0.54110  1.0000 -0.0208631819
C   C36       1.0  0.97820  0.38310  0.35560  1.0000 0.5789198806
C   C37       1.0  0.97200  0.12680  0.36840  1.0000 0.5722303917
C   C38       1.0  0.98070  0.06180  0.43540  1.0000 -0.0363776931
C   C39       1.0  0.03980  0.64650  0.44860  1.0000 0.6655686428
C   C40       1.0  0.98270  0.44410  0.42740  1.0000 -0.0208631819
C   C41       1.0  0.34890  0.25510  0.17880  1.0000 0.2269112249
C   C42       1.0  0.39570  0.26260  0.04100  1.0000 -0.0028509386
C   C43       1.0  0.99320  0.51630  0.40050  1.0000 -0.1264390754
C   C44       1.0  0.01890  0.00700  0.60490  1.0000 -0.1208051364
C   C45       1.0  0.36090  0.27520  0.92710  1.0000 0.6394316981
C   C46       1.0  0.32680  0.74940  0.32640  1.0000 0.6394316981
C   C47       1.0  0.98980  0.07150  0.02800  1.0000 -0.0456672483
C   C48       1.0  0.01110  0.63970  0.90930  1.0000 0.6394316981
C   C49       1.0  0.48030  0.75490  0.36000  1.0000 0.0236142356
C   C50       1.0  0.00060  0.56890  0.95890  1.0000 -0.0208631819
C   C51       1.0  0.02180  0.88310  0.14440  1.0000 0.5789198806
C   C52       1.0  0.02800  0.62680  0.13160  1.0000 0.5722303917
C   C53       1.0  0.01930  0.56180  0.06460  1.0000 -0.0363776931
C   C54       1.0  0.96020  0.14650  0.05140  1.0000 0.6655686428
C   C55       1.0  0.01730  0.94410  0.07260  1.0000 -0.0208631819
C   C56       1.0  0.65110  0.75510  0.32120  1.0000 0.2269112249
C   C57       1.0  0.60430  0.76260  0.45900  1.0000 -0.0028509386
C   C58       1.0  0.00680  0.01630  0.09950  1.0000 -0.1264390754
C   C59       1.0  0.98110  0.50700  0.89510  1.0000 -0.1208051364
C   C60       1.0  0.63910  0.77520  0.57290  1.0000 0.6394316981
N   N1        1.0  0.71140  0.73780  0.92960  1.0000 -0.1824813257
N   N2        1.0  0.51360  0.74940  0.77680  1.0000 -0.4841525028
N   N3        1.0  0.28860  0.23780  0.57040  1.0000 -0.1824813257
N   N4        1.0  0.48640  0.24940  0.72320  1.0000 -0.4841525028
N   N5        1.0  0.28860  0.26220  0.07040  1.0000 -0.1824813257
N   N6        1.0  0.48640  0.25060  0.22320  1.0000 -0.4841525028
N   N7        1.0  0.71140  0.76220  0.42960  1.0000 -0.1824813257
N   N8        1.0  0.51360  0.75060  0.27680  1.0000 -0.4841525028
O   O1        1.0  0.24300  0.75300  0.72400  1.0000 -0.6771894838
O   O2        1.0  0.27770  0.75390  0.89200  1.0000 -0.6771894838
O   O3        1.0  0.84950  0.32410  0.47660  1.0000 -0.6973934839
O   O4        1.0  0.12230  0.82370  0.45400  1.0000 -0.6926190625
O   O5        1.0  0.11280  0.61880  0.74500  1.0000 -0.601556487
O   O6        1.0  0.53510  0.70820  0.08770  1.0000 -0.722990639
O   O7        1.0  0.93140  0.66620  0.60170  1.0000 -0.6289646298
O   O8        1.0  0.97420  0.81460  0.58280  1.0000 -0.6289646298
O   O9        1.0  0.03780  0.32620  0.64290  1.0000 -0.6289646298
O   O10       1.0  0.08290  0.87800  0.73290  1.0000 -0.5777670364
O   O11       1.0  0.91080  0.84110  0.31810  1.0000 -0.601556487
O   O12       1.0  0.76460  0.72820  0.14510  1.0000 -0.5949506233
O   O13       1.0  0.75700  0.25300  0.77600  1.0000 -0.6771894838
O   O14       1.0  0.72230  0.25390  0.60800  1.0000 -0.6771894838
O   O15       1.0  0.15050  0.82410  0.02340  1.0000 -0.6973934839
O   O16       1.0  0.87770  0.32370  0.04600  1.0000 -0.6926190625
O   O17       1.0  0.88720  0.11880  0.75500  1.0000 -0.601556487
O   O18       1.0  0.46490  0.20820  0.41230  1.0000 -0.722990639
O   O19       1.0  0.06860  0.16620  0.89830  1.0000 -0.6289646298
O   O20       1.0  0.02580  0.31460  0.91720  1.0000 -0.6289646298
O   O21       1.0  0.96220  0.82620  0.85710  1.0000 -0.6289646298
O   O22       1.0  0.91710  0.37800  0.76710  1.0000 -0.5777670364
O   O23       1.0  0.08920  0.34110  0.18190  1.0000 -0.601556487
O   O24       1.0  0.23540  0.22820  0.35490  1.0000 -0.5949506233
O   O25       1.0  0.75700  0.24700  0.27600  1.0000 -0.6771894838
O   O26       1.0  0.72230  0.24610  0.10800  1.0000 -0.6771894838
O   O27       1.0  0.15050  0.67590  0.52340  1.0000 -0.6973934839
O   O28       1.0  0.87770  0.17630  0.54600  1.0000 -0.6926190625
O   O29       1.0  0.88720  0.38120  0.25500  1.0000 -0.601556487
O   O30       1.0  0.46490  0.29180  0.91230  1.0000 -0.722990639
O   O31       1.0  0.06860  0.33380  0.39830  1.0000 -0.6289646298
O   O32       1.0  0.02580  0.18540  0.41720  1.0000 -0.6289646298
O   O33       1.0  0.96220  0.67380  0.35710  1.0000 -0.6289646298
O   O34       1.0  0.91710  0.12200  0.26710  1.0000 -0.5777670364
O   O35       1.0  0.08920  0.15890  0.68190  1.0000 -0.601556487
O   O36       1.0  0.23540  0.27180  0.85490  1.0000 -0.5949506233
O   O37       1.0  0.24300  0.74700  0.22400  1.0000 -0.6771894838
O   O38       1.0  0.27770  0.74610  0.39200  1.0000 -0.6771894838
O   O39       1.0  0.84950  0.17590  0.97660  1.0000 -0.6973934839
O   O40       1.0  0.12230  0.67630  0.95400  1.0000 -0.6926190625
O   O41       1.0  0.11280  0.88120  0.24500  1.0000 -0.601556487
O   O42       1.0  0.53510  0.79180  0.58770  1.0000 -0.722990639
O   O43       1.0  0.93140  0.83380  0.10170  1.0000 -0.6289646298
O   O44       1.0  0.97420  0.68540  0.08280  1.0000 -0.6289646298
O   O45       1.0  0.03780  0.17380  0.14290  1.0000 -0.6289646298
O   O46       1.0  0.08290  0.62200  0.23290  1.0000 -0.5777670364
O   O47       1.0  0.91080  0.65890  0.81810  1.0000 -0.601556487
O   O48       1.0  0.76460  0.77180  0.64510  1.0000 -0.5949506233
