# DDEC6 charges by PACMAN v1.1 (https://github.com/mtap-research/PACMAN-charge/)
data_2020[Zn][acs]3[ASR]1
_chemical_formula_sum              "Zn12 H40 C96 O52"
_cell_length_a       11.9383
_cell_length_b       14.5329
_cell_length_c       20.5558
_cell_angle_alpha    90
_cell_angle_beta     90
_cell_angle_gamma    90

_symmetry_space_group_name_H-M    "P 1"
_symmetry_Int_Tables_number       1

loop_
  _symmetry_equiv_pos_as_xyz
  'x, y, z'

loop_
  _atom_site_type_symbol
  _atom_site_label
  _atom_site_symmetry_multiplicity
  _atom_site_fract_x
  _atom_site_fract_y
  _atom_site_fract_z
  _atom_site_occupancy
  _atom_site_charge
Zn  Zn1       1.0  0.27824  0.70743  0.34574  1.0000 0.9325175662
Zn  Zn2       1.0  0.21106  0.85519  0.23696  1.0000 0.9487397154
Zn  Zn3       1.0  0.40991  0.73284  0.19019  1.0000 0.9554483672
Zn  Zn4       1.0  0.72176  0.29257  0.84574  1.0000 0.9325175662
Zn  Zn5       1.0  0.78894  0.14481  0.73696  1.0000 0.9487397154
Zn  Zn6       1.0  0.59009  0.26716  0.69019  1.0000 0.9554483672
Zn  Zn7       1.0  0.22176  0.20743  0.34574  1.0000 0.9325175662
Zn  Zn8       1.0  0.28894  0.35519  0.23696  1.0000 0.9487397154
Zn  Zn9       1.0  0.09009  0.23284  0.19019  1.0000 0.9554483672
Zn  Zn10      1.0  0.77824  0.79257  0.84574  1.0000 0.9325175662
Zn  Zn11      1.0  0.71106  0.64481  0.73696  1.0000 0.9487397154
Zn  Zn12      1.0  0.90991  0.76716  0.69019  1.0000 0.9554483672
H   H1        1.0  0.83950  0.60560  0.52250  1.0000 0.1378019992
H   H2        1.0  0.53070  0.71090  0.54240  1.0000 0.1378019992
H   H3        1.0  0.94560  0.63950  0.39250  1.0000 0.1304944141
H   H4        1.0  0.63070  0.61050  0.36910  1.0000 0.1304944141
H   H5        1.0  0.60710  0.39830  0.32740  1.0000 0.1378019992
H   H6        1.0  0.43990  0.30590  0.48410  1.0000 0.1378019992
H   H7        1.0  0.75690  0.39760  0.50290  1.0000 0.1304944141
H   H8        1.0  0.84980  0.34480  0.32880  1.0000 0.1378019992
H   H9        1.0  0.17430  0.61700  0.24760  1.0000 0.2671319698
H   H10       1.0  0.24100  0.66900  0.23200  1.0000 0.3050715108
H   H11       1.0  0.16050  0.39440  0.02250  1.0000 0.1378019992
H   H12       1.0  0.46930  0.28910  0.04240  1.0000 0.1378019992
H   H13       1.0  0.05440  0.36050  0.89250  1.0000 0.1378019992
H   H14       1.0  0.36930  0.38950  0.86910  1.0000 0.1304944141
H   H15       1.0  0.39290  0.60170  0.82740  1.0000 0.1378019992
H   H16       1.0  0.56010  0.69410  0.98410  1.0000 0.1378019992
H   H17       1.0  0.24310  0.60240  0.00290  1.0000 0.1304944141
H   H18       1.0  0.15020  0.65520  0.82880  1.0000 0.1378019992
H   H19       1.0  0.82570  0.38300  0.74760  1.0000 0.2671319698
H   H20       1.0  0.75900  0.33100  0.73200  1.0000 0.3039902229
H   H21       1.0  0.66050  0.10560  0.52250  1.0000 0.1378019992
H   H22       1.0  0.96930  0.21090  0.54240  1.0000 0.1378019992
H   H23       1.0  0.55440  0.13950  0.39250  1.0000 0.1304944141
H   H24       1.0  0.86930  0.11050  0.36910  1.0000 0.1304944141
H   H25       1.0  0.89290  0.89830  0.32740  1.0000 0.1378019992
H   H26       1.0  0.06010  0.80590  0.48410  1.0000 0.1378019992
H   H27       1.0  0.74310  0.89760  0.50290  1.0000 0.1304944141
H   H28       1.0  0.65020  0.84480  0.32880  1.0000 0.1378019992
H   H29       1.0  0.32570  0.11700  0.24760  1.0000 0.2671319698
H   H30       1.0  0.25900  0.16900  0.23200  1.0000 0.3039902229
H   H31       1.0  0.33950  0.89440  0.02250  1.0000 0.1378019992
H   H32       1.0  0.03070  0.78910  0.04240  1.0000 0.1378019992
H   H33       1.0  0.44560  0.86050  0.89250  1.0000 0.1304944141
H   H34       1.0  0.13070  0.88950  0.86910  1.0000 0.1304944141
H   H35       1.0  0.10710  0.10170  0.82740  1.0000 0.1378019992
H   H36       1.0  0.93990  0.19410  0.98410  1.0000 0.1378019992
H   H37       1.0  0.25690  0.10240  0.00290  1.0000 0.1304944141
H   H38       1.0  0.34980  0.15520  0.82880  1.0000 0.1378019992
H   H39       1.0  0.67430  0.88300  0.74760  1.0000 0.2671319698
H   H40       1.0  0.74100  0.83100  0.73200  1.0000 0.3050715108
C   C1        1.0  0.76940  0.61820  0.50490  1.0000 -0.1409032216
C   C2        1.0  0.74530  0.59820  0.43970  1.0000 0.06438686
C   C3        1.0  0.45050  0.68970  0.42260  1.0000 0.5405079801
C   C4        1.0  0.58480  0.68310  0.51650  1.0000 -0.1204931285
C   C5        1.0  0.56430  0.66667  0.45000  1.0000 0.0092597775
C   C6        1.0  0.68560  0.65740  0.54230  1.0000 0.0092597775
C   C7        1.0  0.82850  0.54170  0.40000  1.0000 0.0407523652
C   C8        1.0  0.92690  0.58010  0.37970  1.0000 -0.1478522862
C   C9        1.0  0.64490  0.62300  0.41270  1.0000 -0.1554664295
C   C10       1.0  0.40930  0.33010  0.35930  1.0000 0.5979643096
C   C11       1.0  0.59870  0.35020  0.50540  1.0000 -0.0033213406
C   C12       1.0  0.50840  0.35030  0.39950  1.0000 -0.035473242
C   C13       1.0  0.60440  0.38710  0.37190  1.0000 -0.1478522862
C   C14       1.0  0.50430  0.33110  0.46590  1.0000 -0.1094636428
C   C15       1.0  0.69410  0.38680  0.47730  1.0000 -0.1409032216
C   C16       1.0  0.69760  0.40750  0.41110  1.0000 0.0757053741
C   C17       1.0  0.87020  0.40360  0.34210  1.0000 -0.1409032216
C   C18       1.0  0.80160  0.45150  0.38280  1.0000 0.0407523652
C   C19       1.0  0.97080  0.44150  0.32000  1.0000 -0.0212715985
C   C20       1.0  0.04930  0.38490  0.27790  1.0000 0.6105394144
C   C21       1.0  0.59520  0.32880  0.57640  1.0000 0.5517952819
C   C22       1.0  0.70400  0.66550  0.61470  1.0000 0.5763164539
C   C23       1.0  0.99950  0.52990  0.33970  1.0000 -0.0099186362
C   C24       1.0  0.10530  0.57680  0.31560  1.0000 0.5763164539
C   C25       1.0  0.23060  0.38180  0.00490  1.0000 -0.1409032216
C   C26       1.0  0.25470  0.40180  0.93970  1.0000 0.06438686
C   C27       1.0  0.54950  0.31030  0.92260  1.0000 0.5405079801
C   C28       1.0  0.41520  0.31690  0.01650  1.0000 -0.1204931285
C   C29       1.0  0.43570  0.33333  0.95000  1.0000 0.0092597775
C   C30       1.0  0.31440  0.34260  0.04230  1.0000 0.0092597775
C   C31       1.0  0.17150  0.45830  0.90000  1.0000 0.0407523652
C   C32       1.0  0.07310  0.41990  0.87970  1.0000 -0.1478522862
C   C33       1.0  0.35510  0.37700  0.91270  1.0000 -0.1554664295
C   C34       1.0  0.59070  0.66990  0.85930  1.0000 0.5979643096
C   C35       1.0  0.40130  0.64980  0.00540  1.0000 -0.0033213406
C   C36       1.0  0.49160  0.64970  0.89950  1.0000 -0.035473242
C   C37       1.0  0.39560  0.61290  0.87190  1.0000 -0.1478522862
C   C38       1.0  0.49570  0.66890  0.96590  1.0000 -0.1094636428
C   C39       1.0  0.30590  0.61320  0.97730  1.0000 -0.1409032216
C   C40       1.0  0.30240  0.59250  0.91110  1.0000 0.0757053741
C   C41       1.0  0.12980  0.59640  0.84210  1.0000 -0.1409032216
C   C42       1.0  0.19840  0.54850  0.88280  1.0000 0.0407523652
C   C43       1.0  0.02920  0.55850  0.82000  1.0000 -0.0212715985
C   C44       1.0  0.95070  0.61510  0.77790  1.0000 0.6105394144
C   C45       1.0  0.40480  0.67120  0.07640  1.0000 0.5517952819
C   C46       1.0  0.29600  0.33450  0.11470  1.0000 0.5763164539
C   C47       1.0  0.00050  0.47010  0.83970  1.0000 -0.0099186362
C   C48       1.0  0.89470  0.42320  0.81560  1.0000 0.5763164539
C   C49       1.0  0.73060  0.11820  0.50490  1.0000 -0.1409032216
C   C50       1.0  0.75470  0.09820  0.43970  1.0000 0.06438686
C   C51       1.0  0.04950  0.18970  0.42260  1.0000 0.5405079801
C   C52       1.0  0.91520  0.18310  0.51650  1.0000 -0.1204931285
C   C53       1.0  0.93570  0.16667  0.45000  1.0000 0.0092597775
C   C54       1.0  0.81440  0.15740  0.54230  1.0000 0.0092597775
C   C55       1.0  0.67150  0.04170  0.40000  1.0000 0.0407523652
C   C56       1.0  0.57310  0.08010  0.37970  1.0000 -0.1478522862
C   C57       1.0  0.85510  0.12300  0.41270  1.0000 -0.1554664295
C   C58       1.0  0.09070  0.83010  0.35930  1.0000 0.5979643096
C   C59       1.0  0.90130  0.85020  0.50540  1.0000 -0.0033213406
C   C60       1.0  0.99160  0.85030  0.39950  1.0000 -0.0348509434
C   C61       1.0  0.89560  0.88710  0.37190  1.0000 -0.1478522862
C   C62       1.0  0.99570  0.83110  0.46590  1.0000 -0.1094636428
C   C63       1.0  0.80590  0.88680  0.47730  1.0000 -0.1409032216
C   C64       1.0  0.80240  0.90750  0.41110  1.0000 0.0757053741
C   C65       1.0  0.62980  0.90360  0.34210  1.0000 -0.1409032216
C   C66       1.0  0.69840  0.95150  0.38280  1.0000 0.0407523652
C   C67       1.0  0.52920  0.94150  0.32000  1.0000 -0.0212715985
C   C68       1.0  0.45070  0.88490  0.27790  1.0000 0.6105394144
C   C69       1.0  0.90480  0.82880  0.57640  1.0000 0.5517952819
C   C70       1.0  0.79600  0.16550  0.61470  1.0000 0.5763164539
C   C71       1.0  0.50050  0.02990  0.33970  1.0000 -0.0099186362
C   C72       1.0  0.39470  0.07680  0.31560  1.0000 0.5763164539
C   C73       1.0  0.26940  0.88180  0.00490  1.0000 -0.1409032216
C   C74       1.0  0.24530  0.90180  0.93970  1.0000 0.06438686
C   C75       1.0  0.95050  0.81030  0.92260  1.0000 0.5405079801
C   C76       1.0  0.08480  0.81690  0.01650  1.0000 -0.1204931285
C   C77       1.0  0.06430  0.83333  0.95000  1.0000 0.0092597775
C   C78       1.0  0.18560  0.84260  0.04230  1.0000 0.0092597775
C   C79       1.0  0.32850  0.95830  0.90000  1.0000 0.0407523652
C   C80       1.0  0.42690  0.91990  0.87970  1.0000 -0.1478522862
C   C81       1.0  0.14490  0.87700  0.91270  1.0000 -0.1554664295
C   C82       1.0  0.90930  0.16990  0.85930  1.0000 0.5979643096
C   C83       1.0  0.09870  0.14980  0.00540  1.0000 -0.0033213406
C   C84       1.0  0.00840  0.14970  0.89950  1.0000 -0.0348509434
C   C85       1.0  0.10440  0.11290  0.87190  1.0000 -0.1478522862
C   C86       1.0  0.00430  0.16890  0.96590  1.0000 -0.1094636428
C   C87       1.0  0.19410  0.11320  0.97730  1.0000 -0.1409032216
C   C88       1.0  0.19760  0.09250  0.91110  1.0000 0.0757053741
C   C89       1.0  0.37020  0.09640  0.84210  1.0000 -0.1409032216
C   C90       1.0  0.30160  0.04850  0.88280  1.0000 0.0407523652
C   C91       1.0  0.47080  0.05850  0.82000  1.0000 -0.0212715985
C   C92       1.0  0.54930  0.11510  0.77790  1.0000 0.6105394144
C   C93       1.0  0.09520  0.17120  0.07640  1.0000 0.5517952819
C   C94       1.0  0.20400  0.83450  0.11470  1.0000 0.5763164539
C   C95       1.0  0.49950  0.97010  0.83970  1.0000 -0.0099186362
C   C96       1.0  0.60530  0.92320  0.81560  1.0000 0.5763164539
O   O1        1.0  0.43660  0.67860  0.36250  1.0000 -0.5313076447
O   O2        1.0  0.37260  0.71200  0.45700  1.0000 -0.4658372622
O   O3        1.0  0.41700  0.34560  0.29730  1.0000 -0.5489029507
O   O4        1.0  0.32220  0.29950  0.38640  1.0000 -0.5170951109
O   O5        1.0  0.15050  0.39680  0.28870  1.0000 -0.5489029507
O   O6        1.0  0.00660  0.33200  0.23740  1.0000 -0.50909761
O   O7        1.0  0.80080  0.64870  0.63760  1.0000 -0.5794372182
O   O8        1.0  0.62220  0.68370  0.65120  1.0000 -0.5026028511
O   O9        1.0  0.51510  0.28300  0.60020  1.0000 -0.50909761
O   O10       1.0  0.67260  0.35680  0.61230  1.0000 -0.5313076447
O   O11       1.0  0.11420  0.59170  0.25500  1.0000 -0.4129757057
O   O12       1.0  0.17180  0.60290  0.35820  1.0000 -0.5026028511
O   O13       1.0  0.27830  0.72210  0.24930  1.0000 -0.853203259
O   O14       1.0  0.56340  0.32140  0.86250  1.0000 -0.5313076447
O   O15       1.0  0.62740  0.28800  0.95700  1.0000 -0.4658372622
O   O16       1.0  0.58300  0.65440  0.79730  1.0000 -0.5558479052
O   O17       1.0  0.67780  0.70050  0.88640  1.0000 -0.5170951109
O   O18       1.0  0.84950  0.60320  0.78870  1.0000 -0.5489029507
O   O19       1.0  0.99340  0.66800  0.73740  1.0000 -0.5026028511
O   O20       1.0  0.19920  0.35130  0.13760  1.0000 -0.5794372182
O   O21       1.0  0.37780  0.31630  0.15120  1.0000 -0.5026028511
O   O22       1.0  0.48490  0.71700  0.10020  1.0000 -0.50909761
O   O23       1.0  0.32740  0.64320  0.11230  1.0000 -0.5313076447
O   O24       1.0  0.88580  0.40830  0.75500  1.0000 -0.4129757057
O   O25       1.0  0.82820  0.39710  0.85820  1.0000 -0.5026028511
O   O26       1.0  0.72170  0.27790  0.74930  1.0000 -0.853203259
O   O27       1.0  0.06340  0.17860  0.36250  1.0000 -0.5313076447
O   O28       1.0  0.12740  0.21200  0.45700  1.0000 -0.4648846607
O   O29       1.0  0.08300  0.84560  0.29730  1.0000 -0.5489029507
O   O30       1.0  0.17780  0.79950  0.38640  1.0000 -0.5170951109
O   O31       1.0  0.34950  0.89680  0.28870  1.0000 -0.5489029507
O   O32       1.0  0.49340  0.83200  0.23740  1.0000 -0.5026028511
O   O33       1.0  0.69920  0.14870  0.63760  1.0000 -0.5794372182
O   O34       1.0  0.87780  0.18370  0.65120  1.0000 -0.5026028511
O   O35       1.0  0.98490  0.78300  0.60020  1.0000 -0.50909761
O   O36       1.0  0.82740  0.85680  0.61230  1.0000 -0.5313076447
O   O37       1.0  0.38580  0.09170  0.25500  1.0000 -0.4129757057
O   O38       1.0  0.32820  0.10290  0.35820  1.0000 -0.5026028511
O   O39       1.0  0.22170  0.22210  0.24930  1.0000 -0.853203259
O   O40       1.0  0.93660  0.82140  0.86250  1.0000 -0.5313076447
O   O41       1.0  0.87260  0.78800  0.95700  1.0000 -0.4658372622
O   O42       1.0  0.91700  0.15440  0.79730  1.0000 -0.5558479052
O   O43       1.0  0.82220  0.20050  0.88640  1.0000 -0.5170951109
O   O44       1.0  0.65050  0.10320  0.78870  1.0000 -0.5489029507
O   O45       1.0  0.50660  0.16800  0.73740  1.0000 -0.5026028511
O   O46       1.0  0.30080  0.85130  0.13760  1.0000 -0.5794372182
O   O47       1.0  0.12220  0.81630  0.15120  1.0000 -0.5026028511
O   O48       1.0  0.01510  0.21700  0.10020  1.0000 -0.50909761
O   O49       1.0  0.17260  0.14320  0.11230  1.0000 -0.5313076447
O   O50       1.0  0.61420  0.90830  0.75500  1.0000 -0.4129757057
O   O51       1.0  0.67180  0.89710  0.85820  1.0000 -0.5026028511
O   O52       1.0  0.77830  0.77790  0.74930  1.0000 -0.853203259
