# DDEC6 charges by PACMAN v1.1 (https://github.com/mtap-research/PACMAN-charge/)
data_2020[Cd][sql]2[ASR]9
_chemical_formula_sum              "Cd4 H112 C168 N48 O16"
_cell_length_a       18.2026
_cell_length_b       10.2378
_cell_length_c       23.0129
_cell_angle_alpha    90
_cell_angle_beta     110.281
_cell_angle_gamma    90

_symmetry_space_group_name_H-M    "P 1"
_symmetry_Int_Tables_number       1

loop_
  _symmetry_equiv_pos_as_xyz
  'x, y, z'

loop_
  _atom_site_type_symbol
  _atom_site_label
  _atom_site_symmetry_multiplicity
  _atom_site_fract_x
  _atom_site_fract_y
  _atom_site_fract_z
  _atom_site_occupancy
  _atom_site_charge
Cd  Cd1       1.0  0.35758  0.41790  0.18386  1.0000 0.8478200236
Cd  Cd2       1.0  0.35758  0.08210  0.68386  1.0000 0.8478200236
Cd  Cd3       1.0  0.64242  0.91790  0.31614  1.0000 0.8478200236
Cd  Cd4       1.0  0.64242  0.58210  0.81614  1.0000 0.8478200236
H   H1        1.0  0.82384  0.34198  0.14913  1.0000 0.1113736398
H   H2        1.0  0.72070  0.45402  0.16353  1.0000 0.1195438357
H   H3        1.0  0.59351  0.12373  0.13055  1.0000 0.1195438357
H   H4        1.0  0.69710  0.01161  0.11706  1.0000 0.1195438357
H   H5        1.0  0.48971  0.60949  0.15058  1.0000 0.1195438357
H   H6        1.0  0.51681  0.23824  0.18020  1.0000 0.1300681264
H   H7        1.0  0.74832  0.24042  0.00433  1.0000 0.1195438357
H   H8        1.0  0.62481  0.26057  0.92919  1.0000 0.1398937205
H   H9        1.0  0.59825  0.87078  0.92686  1.0000 0.1300681264
H   H10       1.0  0.72406  0.85130  0.00018  1.0000 0.1195438357
H   H11       1.0  0.36423  0.20540  0.82909  1.0000 0.1113736398
H   H12       1.0  0.52310  0.98663  0.80110  1.0000 0.1300681264
H   H13       1.0  0.84940  0.98505  0.95811  1.0000 0.1195438357
H   H14       1.0  0.93555  0.84515  0.93578  1.0000 0.1300681264
H   H15       1.0  0.02363  0.73827  0.11465  1.0000 0.1195438357
H   H16       1.0  0.93954  0.88104  0.13753  1.0000 0.1113736398
H   H17       1.0  0.08546  0.48519  0.93520  1.0000 0.1006707237
H   H18       1.0  0.14348  0.70642  0.08087  1.0000 0.1195438357
H   H19       1.0  0.96206  0.22368  0.11749  1.0000 0.1113736398
H   H20       1.0  0.07887  0.26714  0.19627  1.0000 0.1300681264
H   H21       1.0  0.00839  0.04600  0.31204  1.0000 0.1195438357
H   H22       1.0  0.88747  0.01783  0.23389  1.0000 0.1195438357
H   H23       1.0  0.24617  0.13621  0.43644  1.0000 0.1113736398
H   H24       1.0  0.19311  0.29707  0.27448  1.0000 0.1195438357
H   H25       1.0  0.17012  0.11506  0.18905  1.0000 0.1006707237
H   H26       1.0  0.10576  0.92318  0.19431  1.0000 0.1113736398
H   H27       1.0  0.16769  0.72334  0.19729  1.0000 0.1113736398
H   H28       1.0  0.35971  0.91177  0.19248  1.0000 0.1113736398
H   H29       1.0  0.82384  0.15802  0.64913  1.0000 0.1113736398
H   H30       1.0  0.72070  0.04598  0.66353  1.0000 0.1195438357
H   H31       1.0  0.59351  0.37627  0.63055  1.0000 0.1195438357
H   H32       1.0  0.69710  0.48839  0.61706  1.0000 0.1195438357
H   H33       1.0  0.48971  0.89051  0.65058  1.0000 0.1195438357
H   H34       1.0  0.51681  0.26176  0.68020  1.0000 0.1300681264
H   H35       1.0  0.74832  0.25958  0.50433  1.0000 0.1195438357
H   H36       1.0  0.62481  0.23943  0.42919  1.0000 0.1398937205
H   H37       1.0  0.59825  0.62922  0.42686  1.0000 0.1300681264
H   H38       1.0  0.72406  0.64870  0.50018  1.0000 0.1195438357
H   H39       1.0  0.36423  0.29460  0.32909  1.0000 0.1113736398
H   H40       1.0  0.52310  0.51337  0.30110  1.0000 0.1300681264
H   H41       1.0  0.84940  0.51495  0.45811  1.0000 0.1195438357
H   H42       1.0  0.93555  0.65485  0.43578  1.0000 0.1300681264
H   H43       1.0  0.02363  0.76173  0.61465  1.0000 0.1195438357
H   H44       1.0  0.93954  0.61896  0.63753  1.0000 0.1113736398
H   H45       1.0  0.08546  0.01481  0.43520  1.0000 0.1006707237
H   H46       1.0  0.14348  0.79358  0.58087  1.0000 0.1195438357
H   H47       1.0  0.96206  0.27632  0.61749  1.0000 0.1113736398
H   H48       1.0  0.07887  0.23286  0.69627  1.0000 0.1300681264
H   H49       1.0  0.00839  0.45400  0.81204  1.0000 0.1195438357
H   H50       1.0  0.88747  0.48217  0.73389  1.0000 0.1195438357
H   H51       1.0  0.24617  0.36379  0.93644  1.0000 0.1113736398
H   H52       1.0  0.19311  0.20293  0.77448  1.0000 0.1195438357
H   H53       1.0  0.17012  0.38494  0.68905  1.0000 0.1006707237
H   H54       1.0  0.10576  0.57682  0.69431  1.0000 0.1113736398
H   H55       1.0  0.16769  0.77666  0.69729  1.0000 0.1113736398
H   H56       1.0  0.35971  0.58823  0.69248  1.0000 0.1113736398
H   H57       1.0  0.17616  0.84198  0.35087  1.0000 0.1113736398
H   H58       1.0  0.27930  0.95402  0.33647  1.0000 0.1195438357
H   H59       1.0  0.40649  0.62373  0.36945  1.0000 0.1195438357
H   H60       1.0  0.30290  0.51161  0.38294  1.0000 0.1195438357
H   H61       1.0  0.51029  0.10949  0.34942  1.0000 0.1195438357
H   H62       1.0  0.48319  0.73824  0.31980  1.0000 0.1300681264
H   H63       1.0  0.25168  0.74042  0.49567  1.0000 0.1195438357
H   H64       1.0  0.37519  0.76057  0.57081  1.0000 0.1398937205
H   H65       1.0  0.40175  0.37078  0.57314  1.0000 0.1300681264
H   H66       1.0  0.27594  0.35130  0.49982  1.0000 0.1195438357
H   H67       1.0  0.63577  0.70540  0.67091  1.0000 0.1113736398
H   H68       1.0  0.47690  0.48663  0.69890  1.0000 0.1300681264
H   H69       1.0  0.15060  0.48505  0.54189  1.0000 0.1195438357
H   H70       1.0  0.06445  0.34515  0.56422  1.0000 0.1300681264
H   H71       1.0  0.97637  0.23827  0.38535  1.0000 0.1195438357
H   H72       1.0  0.06046  0.38104  0.36247  1.0000 0.1113736398
H   H73       1.0  0.91454  0.98519  0.56480  1.0000 0.1006707237
H   H74       1.0  0.85652  0.20642  0.41913  1.0000 0.1195438357
H   H75       1.0  0.03794  0.72368  0.38251  1.0000 0.1113736398
H   H76       1.0  0.92113  0.76714  0.30373  1.0000 0.1300681264
H   H77       1.0  0.99161  0.54600  0.18796  1.0000 0.1195438357
H   H78       1.0  0.11253  0.51783  0.26611  1.0000 0.1195438357
H   H79       1.0  0.75383  0.63621  0.06356  1.0000 0.1113736398
H   H80       1.0  0.80689  0.79707  0.22552  1.0000 0.1195438357
H   H81       1.0  0.82988  0.61506  0.31095  1.0000 0.1006707237
H   H82       1.0  0.89424  0.42318  0.30569  1.0000 0.1113736398
H   H83       1.0  0.83231  0.22334  0.30271  1.0000 0.1113736398
H   H84       1.0  0.64029  0.41177  0.30752  1.0000 0.1113736398
H   H85       1.0  0.17616  0.65802  0.85087  1.0000 0.1113736398
H   H86       1.0  0.27930  0.54598  0.83647  1.0000 0.1195438357
H   H87       1.0  0.40649  0.87627  0.86945  1.0000 0.1195438357
H   H88       1.0  0.30290  0.98839  0.88294  1.0000 0.1195438357
H   H89       1.0  0.51029  0.39051  0.84942  1.0000 0.1195438357
H   H90       1.0  0.48319  0.76176  0.81980  1.0000 0.1300681264
H   H91       1.0  0.25168  0.75958  0.99567  1.0000 0.1195438357
H   H92       1.0  0.37519  0.73943  0.07081  1.0000 0.1398937205
H   H93       1.0  0.40175  0.12922  0.07314  1.0000 0.1300681264
H   H94       1.0  0.27594  0.14870  0.99982  1.0000 0.1195438357
H   H95       1.0  0.63577  0.79460  0.17091  1.0000 0.1113736398
H   H96       1.0  0.47690  0.01337  0.19890  1.0000 0.1300681264
H   H97       1.0  0.15060  0.01495  0.04189  1.0000 0.1195438357
H   H98       1.0  0.06445  0.15485  0.06422  1.0000 0.1300681264
H   H99       1.0  0.97637  0.26173  0.88535  1.0000 0.1195438357
H   H100      1.0  0.06046  0.11896  0.86247  1.0000 0.1113736398
H   H101      1.0  0.91454  0.51481  0.06480  1.0000 0.1006707237
H   H102      1.0  0.85652  0.29358  0.91913  1.0000 0.1195438357
H   H103      1.0  0.03794  0.77632  0.88251  1.0000 0.1113736398
H   H104      1.0  0.92113  0.73286  0.80373  1.0000 0.1300681264
H   H105      1.0  0.99161  0.95400  0.68796  1.0000 0.1195438357
H   H106      1.0  0.11253  0.98217  0.76611  1.0000 0.1195438357
H   H107      1.0  0.75383  0.86379  0.56356  1.0000 0.1113736398
H   H108      1.0  0.80689  0.70293  0.72552  1.0000 0.1195438357
H   H109      1.0  0.82988  0.88494  0.81095  1.0000 0.1006707237
H   H110      1.0  0.89424  0.07682  0.80569  1.0000 0.1113736398
H   H111      1.0  0.83231  0.27666  0.80271  1.0000 0.1113736398
H   H112      1.0  0.64029  0.08823  0.80752  1.0000 0.1113736398
C   C1        1.0  0.82485  0.03300  0.06336  1.0000 -0.0228253413
C   C2        1.0  0.83572  0.09670  0.11672  1.0000 -0.0228253413
C   C3        1.0  0.77040  0.16550  0.12931  1.0000 0.074033814
C   C4        1.0  0.77698  0.29760  0.14470  1.0000 -0.1301872567
C   C5        1.0  0.71581  0.36470  0.15355  1.0000 -0.1494069672
C   C6        1.0  0.64745  0.29870  0.14754  1.0000 0.1300681264
C   C7        1.0  0.64010  0.16800  0.13403  1.0000 -0.1708077988
C   C8        1.0  0.70180  0.10170  0.12554  1.0000 -0.1202041173
C   C9        1.0  0.51060  0.52470  0.15430  1.0000 0.1585328826
C   C10       1.0  0.52367  0.32540  0.17035  1.0000 0.1006707237
C   C11       1.0  0.74715  0.04340  0.01204  1.0000 0.064380989
C   C12       1.0  0.71784  0.16550  0.98926  1.0000 -0.1202041173
C   C13       1.0  0.64433  0.17780  0.94469  1.0000 -0.1494069672
C   C14       1.0  0.60024  0.06810  0.92333  1.0000 0.1300681264
C   C15       1.0  0.62850  0.94550  0.94289  1.0000 -0.1587361055
C   C16       1.0  0.70323  0.93470  0.98711  1.0000 -0.1301872567
C   C17       1.0  0.41126  0.15980  0.83574  1.0000 0.1534103998
C   C18       1.0  0.49585  0.04130  0.81948  1.0000 0.0915403167
C   C19       1.0  0.88384  0.94860  0.05038  1.0000 0.0778357795
C   C20       1.0  0.88470  0.93570  0.99016  1.0000 -0.1301872567
C   C21       1.0  0.93599  0.85240  0.97662  1.0000 -0.1587361055
C   C22       1.0  0.98777  0.78010  0.02322  1.0000 0.1300681264
C   C23       1.0  0.98865  0.78920  0.08313  1.0000 -0.189374858
C   C24       1.0  0.93790  0.87360  0.09639  1.0000 -0.1301872567
C   C25       1.0  0.08277  0.54720  0.96452  1.0000 0.1300681264
C   C26       1.0  0.11547  0.66540  0.04313  1.0000 0.1006707237
C   C27       1.0  0.91323  0.11340  0.16699  1.0000 0.0778357795
C   C28       1.0  0.97105  0.18850  0.15708  1.0000 -0.1301872567
C   C29       1.0  0.04120  0.21300  0.20348  1.0000 -0.189374858
C   C30       1.0  0.05533  0.15700  0.26077  1.0000 0.1300681264
C   C31       1.0  0.99870  0.08310  0.27271  1.0000 -0.1776705435
C   C32       1.0  0.92718  0.06460  0.22560  1.0000 -0.1382377273
C   C33       1.0  0.21820  0.16030  0.39526  1.0000 0.1300681264
C   C34       1.0  0.19096  0.24840  0.30849  1.0000 0.0778357795
C   C35       1.0  0.31271  0.16050  0.18972  1.0000 0.5452526012
C   C36       1.0  0.27154  0.03300  0.19102  1.0000 -0.0130770239
C   C37       1.0  0.19578  0.03470  0.19092  1.0000 -0.1202041173
C   C38       1.0  0.15702  0.92030  0.19352  1.0000 -0.1107559255
C   C39       1.0  0.19369  0.80140  0.19496  1.0000 -0.1301872567
C   C40       1.0  0.26916  0.79770  0.19295  1.0000 -0.0228253413
C   C41       1.0  0.30795  0.91390  0.19219  1.0000 -0.1382377273
C   C42       1.0  0.30822  0.66990  0.19154  1.0000 0.5408869186
C   C43       1.0  0.82485  0.46700  0.56336  1.0000 -0.0228253413
C   C44       1.0  0.83572  0.40330  0.61672  1.0000 -0.0228253413
C   C45       1.0  0.77040  0.33450  0.62931  1.0000 0.074033814
C   C46       1.0  0.77698  0.20240  0.64470  1.0000 -0.1301872567
C   C47       1.0  0.71581  0.13530  0.65355  1.0000 -0.1494069672
C   C48       1.0  0.64745  0.20130  0.64754  1.0000 0.1300681264
C   C49       1.0  0.64010  0.33200  0.63403  1.0000 -0.1708077988
C   C50       1.0  0.70180  0.39830  0.62554  1.0000 -0.1202041173
C   C51       1.0  0.51060  0.97530  0.65430  1.0000 0.1585328826
C   C52       1.0  0.52367  0.17460  0.67035  1.0000 0.1006707237
C   C53       1.0  0.74715  0.45660  0.51204  1.0000 0.064380989
C   C54       1.0  0.71784  0.33450  0.48926  1.0000 -0.1202041173
C   C55       1.0  0.64433  0.32220  0.44469  1.0000 -0.1494069672
C   C56       1.0  0.60024  0.43190  0.42333  1.0000 0.1300681264
C   C57       1.0  0.62850  0.55450  0.44289  1.0000 -0.1587361055
C   C58       1.0  0.70323  0.56530  0.48711  1.0000 -0.1301872567
C   C59       1.0  0.41126  0.34020  0.33574  1.0000 0.1534103998
C   C60       1.0  0.49585  0.45870  0.31948  1.0000 0.0915403167
C   C61       1.0  0.88384  0.55140  0.55038  1.0000 0.0778357795
C   C62       1.0  0.88470  0.56430  0.49016  1.0000 -0.1301872567
C   C63       1.0  0.93599  0.64760  0.47662  1.0000 -0.1587361055
C   C64       1.0  0.98777  0.71990  0.52322  1.0000 0.1300681264
C   C65       1.0  0.98865  0.71080  0.58313  1.0000 -0.189374858
C   C66       1.0  0.93790  0.62640  0.59639  1.0000 -0.1301872567
C   C67       1.0  0.08277  0.95280  0.46452  1.0000 0.1300681264
C   C68       1.0  0.11547  0.83460  0.54313  1.0000 0.1006707237
C   C69       1.0  0.91323  0.38660  0.66699  1.0000 0.0778357795
C   C70       1.0  0.97105  0.31150  0.65708  1.0000 -0.1301872567
C   C71       1.0  0.04120  0.28700  0.70348  1.0000 -0.189374858
C   C72       1.0  0.05533  0.34300  0.76077  1.0000 0.1300681264
C   C73       1.0  0.99870  0.41690  0.77271  1.0000 -0.1776705435
C   C74       1.0  0.92718  0.43540  0.72560  1.0000 -0.1382377273
C   C75       1.0  0.21820  0.33970  0.89526  1.0000 0.1300681264
C   C76       1.0  0.19096  0.25160  0.80849  1.0000 0.0778357795
C   C77       1.0  0.31271  0.33950  0.68972  1.0000 0.5452526012
C   C78       1.0  0.27154  0.46700  0.69102  1.0000 -0.0130770239
C   C79       1.0  0.19578  0.46530  0.69092  1.0000 -0.1202041173
C   C80       1.0  0.15702  0.57970  0.69352  1.0000 -0.1107559255
C   C81       1.0  0.19369  0.69860  0.69496  1.0000 -0.1301872567
C   C82       1.0  0.26916  0.70230  0.69295  1.0000 -0.0228253413
C   C83       1.0  0.30795  0.58610  0.69219  1.0000 -0.1382377273
C   C84       1.0  0.30822  0.83010  0.69154  1.0000 0.5408869186
C   C85       1.0  0.17515  0.53300  0.43664  1.0000 -0.0228253413
C   C86       1.0  0.16428  0.59670  0.38328  1.0000 -0.0228253413
C   C87       1.0  0.22960  0.66550  0.37069  1.0000 0.074033814
C   C88       1.0  0.22302  0.79760  0.35530  1.0000 -0.1301872567
C   C89       1.0  0.28419  0.86470  0.34645  1.0000 -0.1494069672
C   C90       1.0  0.35255  0.79870  0.35246  1.0000 0.1300681264
C   C91       1.0  0.35990  0.66800  0.36597  1.0000 -0.1708077988
C   C92       1.0  0.29820  0.60170  0.37446  1.0000 -0.1202041173
C   C93       1.0  0.48940  0.02470  0.34570  1.0000 0.1585328826
C   C94       1.0  0.47633  0.82540  0.32965  1.0000 0.1006707237
C   C95       1.0  0.25285  0.54340  0.48796  1.0000 0.064380989
C   C96       1.0  0.28216  0.66550  0.51074  1.0000 -0.1202041173
C   C97       1.0  0.35567  0.67780  0.55531  1.0000 -0.1494069672
C   C98       1.0  0.39976  0.56810  0.57667  1.0000 0.1300681264
C   C99       1.0  0.37150  0.44550  0.55711  1.0000 -0.1587361055
C   C100      1.0  0.29677  0.43470  0.51289  1.0000 -0.1301872567
C   C101      1.0  0.58874  0.65980  0.66426  1.0000 0.1534103998
C   C102      1.0  0.50415  0.54130  0.68052  1.0000 0.0915403167
C   C103      1.0  0.11616  0.44860  0.44962  1.0000 0.0778357795
C   C104      1.0  0.11530  0.43570  0.50984  1.0000 -0.1301872567
C   C105      1.0  0.06401  0.35240  0.52338  1.0000 -0.1587361055
C   C106      1.0  0.01223  0.28010  0.47678  1.0000 0.1300681264
C   C107      1.0  0.01135  0.28920  0.41687  1.0000 -0.189374858
C   C108      1.0  0.06210  0.37360  0.40361  1.0000 -0.1301872567
C   C109      1.0  0.91723  0.04720  0.53548  1.0000 0.1300681264
C   C110      1.0  0.88453  0.16540  0.45687  1.0000 0.1006707237
C   C111      1.0  0.08677  0.61340  0.33301  1.0000 0.0778357795
C   C112      1.0  0.02895  0.68850  0.34292  1.0000 -0.1301872567
C   C113      1.0  0.95880  0.71300  0.29652  1.0000 -0.189374858
C   C114      1.0  0.94467  0.65700  0.23923  1.0000 0.1300681264
C   C115      1.0  0.00130  0.58310  0.22729  1.0000 -0.1776705435
C   C116      1.0  0.07282  0.56460  0.27440  1.0000 -0.1382377273
C   C117      1.0  0.78180  0.66030  0.10474  1.0000 0.1300681264
C   C118      1.0  0.80904  0.74840  0.19151  1.0000 0.0778357795
C   C119      1.0  0.68729  0.66050  0.31028  1.0000 0.5452526012
C   C120      1.0  0.72846  0.53300  0.30898  1.0000 -0.0130770239
C   C121      1.0  0.80422  0.53470  0.30908  1.0000 -0.1202041173
C   C122      1.0  0.84298  0.42030  0.30648  1.0000 -0.1107559255
C   C123      1.0  0.80631  0.30140  0.30504  1.0000 -0.1301872567
C   C124      1.0  0.73084  0.29770  0.30705  1.0000 -0.0228253413
C   C125      1.0  0.69205  0.41390  0.30781  1.0000 -0.1382377273
C   C126      1.0  0.69178  0.16990  0.30846  1.0000 0.5408869186
C   C127      1.0  0.17515  0.96700  0.93664  1.0000 -0.0228253413
C   C128      1.0  0.16428  0.90330  0.88328  1.0000 -0.0228253413
C   C129      1.0  0.22960  0.83450  0.87069  1.0000 0.074033814
C   C130      1.0  0.22302  0.70240  0.85530  1.0000 -0.1301872567
C   C131      1.0  0.28419  0.63530  0.84645  1.0000 -0.1494069672
C   C132      1.0  0.35255  0.70130  0.85246  1.0000 0.1300681264
C   C133      1.0  0.35990  0.83200  0.86597  1.0000 -0.1708077988
C   C134      1.0  0.29820  0.89830  0.87446  1.0000 -0.1202041173
C   C135      1.0  0.48940  0.47530  0.84570  1.0000 0.1585328826
C   C136      1.0  0.47633  0.67460  0.82965  1.0000 0.1006707237
C   C137      1.0  0.25285  0.95660  0.98796  1.0000 0.064380989
C   C138      1.0  0.28216  0.83450  0.01074  1.0000 -0.1202041173
C   C139      1.0  0.35567  0.82220  0.05531  1.0000 -0.1494069672
C   C140      1.0  0.39976  0.93190  0.07667  1.0000 0.1300681264
C   C141      1.0  0.37150  0.05450  0.05711  1.0000 -0.1587361055
C   C142      1.0  0.29677  0.06530  0.01289  1.0000 -0.1301872567
C   C143      1.0  0.58874  0.84020  0.16426  1.0000 0.1534103998
C   C144      1.0  0.50415  0.95870  0.18052  1.0000 0.0915403167
C   C145      1.0  0.11616  0.05140  0.94962  1.0000 0.0778357795
C   C146      1.0  0.11530  0.06430  0.00984  1.0000 -0.1301872567
C   C147      1.0  0.06401  0.14760  0.02338  1.0000 -0.1587361055
C   C148      1.0  0.01223  0.21990  0.97678  1.0000 0.1300681264
C   C149      1.0  0.01135  0.21080  0.91687  1.0000 -0.189374858
C   C150      1.0  0.06210  0.12640  0.90361  1.0000 -0.1301872567
C   C151      1.0  0.91723  0.45280  0.03548  1.0000 0.1300681264
C   C152      1.0  0.88453  0.33460  0.95687  1.0000 0.1006707237
C   C153      1.0  0.08677  0.88660  0.83301  1.0000 0.0778357795
C   C154      1.0  0.02895  0.81150  0.84292  1.0000 -0.1301872567
C   C155      1.0  0.95880  0.78700  0.79652  1.0000 -0.189374858
C   C156      1.0  0.94467  0.84300  0.73923  1.0000 0.1300681264
C   C157      1.0  0.00130  0.91690  0.72729  1.0000 -0.1776705435
C   C158      1.0  0.07282  0.93540  0.77440  1.0000 -0.1382377273
C   C159      1.0  0.78180  0.83970  0.60474  1.0000 0.1300681264
C   C160      1.0  0.80904  0.75160  0.69151  1.0000 0.0778357795
C   C161      1.0  0.68729  0.83950  0.81028  1.0000 0.5452526012
C   C162      1.0  0.72846  0.96700  0.80898  1.0000 -0.0130770239
C   C163      1.0  0.80422  0.96530  0.80908  1.0000 -0.1202041173
C   C164      1.0  0.84298  0.07970  0.80648  1.0000 -0.1107559255
C   C165      1.0  0.80631  0.19860  0.80504  1.0000 -0.1301872567
C   C166      1.0  0.73084  0.20230  0.80705  1.0000 -0.0228253413
C   C167      1.0  0.69205  0.08610  0.80781  1.0000 -0.1382377273
C   C168      1.0  0.69178  0.33010  0.80846  1.0000 0.5408869186
N   N1        1.0  0.58329  0.36890  0.15531  1.0000 0.1398937205
N   N2        1.0  0.57585  0.49920  0.14491  1.0000 -0.2375928401
N   N3        1.0  0.47544  0.42180  0.16951  1.0000 -0.3287699795
N   N4        1.0  0.52312  0.08330  0.87739  1.0000 0.1195438357
N   N5        1.0  0.46906  0.16150  0.88911  1.0000 -0.2472669496
N   N6        1.0  0.42407  0.08790  0.79112  1.0000 -0.3287699795
N   N7        1.0  0.04118  0.69100  0.00965  1.0000 0.1113736398
N   N8        1.0  0.01880  0.61370  0.95835  1.0000 -0.2584196491
N   N9        1.0  0.14490  0.57480  0.01655  1.0000 -0.3287699795
N   N10       1.0  0.12958  0.17650  0.30886  1.0000 0.1113736398
N   N11       1.0  0.14660  0.11780  0.36460  1.0000 -0.2584196491
N   N12       1.0  0.24783  0.24100  0.36263  1.0000 -0.3370226822
N   N13       1.0  0.58329  0.13110  0.65531  1.0000 0.1398937205
N   N14       1.0  0.57585  0.00080  0.64491  1.0000 -0.2375928401
N   N15       1.0  0.47544  0.07820  0.66951  1.0000 -0.3287699795
N   N16       1.0  0.52312  0.41670  0.37739  1.0000 0.1195438357
N   N17       1.0  0.46906  0.33850  0.38911  1.0000 -0.2472669496
N   N18       1.0  0.42407  0.41210  0.29112  1.0000 -0.3287699795
N   N19       1.0  0.04118  0.80900  0.50965  1.0000 0.1113736398
N   N20       1.0  0.01880  0.88630  0.45835  1.0000 -0.2584196491
N   N21       1.0  0.14490  0.92520  0.51655  1.0000 -0.3287699795
N   N22       1.0  0.12958  0.32350  0.80886  1.0000 0.1113736398
N   N23       1.0  0.14660  0.38220  0.86460  1.0000 -0.2584196491
N   N24       1.0  0.24783  0.25900  0.86263  1.0000 -0.3370226822
N   N25       1.0  0.41671  0.86890  0.34469  1.0000 0.1398937205
N   N26       1.0  0.42415  0.99920  0.35509  1.0000 -0.2375928401
N   N27       1.0  0.52456  0.92180  0.33049  1.0000 -0.3287699795
N   N28       1.0  0.47688  0.58330  0.62261  1.0000 0.1195438357
N   N29       1.0  0.53094  0.66150  0.61089  1.0000 -0.2472669496
N   N30       1.0  0.57593  0.58790  0.70888  1.0000 -0.3287699795
N   N31       1.0  0.95882  0.19100  0.49035  1.0000 0.1113736398
N   N32       1.0  0.98120  0.11370  0.54165  1.0000 -0.2584196491
N   N33       1.0  0.85510  0.07480  0.48345  1.0000 -0.3287699795
N   N34       1.0  0.87042  0.67650  0.19114  1.0000 0.1113736398
N   N35       1.0  0.85340  0.61780  0.13540  1.0000 -0.2584196491
N   N36       1.0  0.75217  0.74100  0.13737  1.0000 -0.3370226822
N   N37       1.0  0.41671  0.63110  0.84469  1.0000 0.1398937205
N   N38       1.0  0.42415  0.50080  0.85509  1.0000 -0.2375928401
N   N39       1.0  0.52456  0.57820  0.83049  1.0000 -0.3287699795
N   N40       1.0  0.47688  0.91670  0.12261  1.0000 0.1195438357
N   N41       1.0  0.53094  0.83850  0.11089  1.0000 -0.2472669496
N   N42       1.0  0.57593  0.91210  0.20888  1.0000 -0.3287699795
N   N43       1.0  0.95882  0.30900  0.99035  1.0000 0.1113736398
N   N44       1.0  0.98120  0.38630  0.04165  1.0000 -0.2584196491
N   N45       1.0  0.85510  0.42520  0.98345  1.0000 -0.3287699795
N   N46       1.0  0.87042  0.82350  0.69114  1.0000 0.1113736398
N   N47       1.0  0.85340  0.88220  0.63540  1.0000 -0.2584196491
N   N48       1.0  0.75217  0.75900  0.63737  1.0000 -0.3370226822
O   O1        1.0  0.38177  0.16080  0.19125  1.0000 -0.5797421536
O   O2        1.0  0.27349  0.26240  0.18718  1.0000 -0.5299637518
O   O3        1.0  0.37862  0.66600  0.19728  1.0000 -0.565571656
O   O4        1.0  0.26639  0.56720  0.18342  1.0000 -0.5360474786
O   O5        1.0  0.38177  0.33920  0.69125  1.0000 -0.5797421536
O   O6        1.0  0.27349  0.23760  0.68718  1.0000 -0.5299637518
O   O7        1.0  0.37862  0.83400  0.69728  1.0000 -0.565571656
O   O8        1.0  0.26639  0.93280  0.68342  1.0000 -0.5360474786
O   O9        1.0  0.61823  0.66080  0.30875  1.0000 -0.5797421536
O   O10       1.0  0.72651  0.76240  0.31282  1.0000 -0.5299637518
O   O11       1.0  0.62138  0.16600  0.30272  1.0000 -0.565571656
O   O12       1.0  0.73361  0.06720  0.31658  1.0000 -0.5360474786
O   O13       1.0  0.61823  0.83920  0.80875  1.0000 -0.5797421536
O   O14       1.0  0.72651  0.73760  0.81282  1.0000 -0.5299637518
O   O15       1.0  0.62138  0.33400  0.80272  1.0000 -0.565571656
O   O16       1.0  0.73361  0.43280  0.81658  1.0000 -0.5360474786
