# DDEC6 charges by PACMAN v1.1 (https://github.com/mtap-research/PACMAN-charge/)
data_2020[Eu][nan]3[ASR]7
_chemical_formula_sum              "Eu6 H16 C48 S8 O42"
_cell_length_a       7.0508
_cell_length_b       23.884
_cell_length_c       11.7398
_cell_angle_alpha    90
_cell_angle_beta     92.732
_cell_angle_gamma    90

_symmetry_space_group_name_H-M    "P 1"
_symmetry_Int_Tables_number       1

loop_
  _symmetry_equiv_pos_as_xyz
  'x, y, z'

loop_
  _atom_site_type_symbol
  _atom_site_label
  _atom_site_symmetry_multiplicity
  _atom_site_fract_x
  _atom_site_fract_y
  _atom_site_fract_z
  _atom_site_occupancy
  _atom_site_charge
Eu  Eu1       1.0  0.68920  0.66300  0.43781  1.0000 2.2321023426
Eu  Eu2       1.0  0.53020  0.51229  0.26287  1.0000 2.2321023426
Eu  Eu3       1.0  0.19810  0.38808  0.07356  1.0000 2.1402883014
Eu  Eu4       1.0  0.31080  0.16300  0.56219  1.0000 2.2321023426
Eu  Eu5       1.0  0.46980  0.01229  0.73713  1.0000 2.2371222458
Eu  Eu6       1.0  0.80190  0.88808  0.92644  1.0000 2.1402883014
H   H1        1.0  0.03439  0.33975  0.41499  1.0000 0.142299377
H   H2        1.0  0.05477  0.31423  0.60488  1.0000 0.132230804
H   H3        1.0  0.16887  0.47864  0.80512  1.0000 0.142299377
H   H4        1.0  0.12600  0.59987  0.57337  1.0000 0.142299377
H   H5        1.0  0.71088  0.55436  0.92333  1.0000 0.1535998254
H   H6        1.0  0.71005  0.57975  0.73216  1.0000 0.132230804
H   H7        1.0  0.58165  0.41693  0.53501  1.0000 0.142299377
H   H8        1.0  0.61740  0.29519  0.76548  1.0000 0.1535998254
H   H9        1.0  0.96561  0.83975  0.58501  1.0000 0.142299377
H   H10       1.0  0.94523  0.81423  0.39512  1.0000 0.132230804
H   H11       1.0  0.83113  0.97864  0.19488  1.0000 0.142299377
H   H12       1.0  0.87400  0.09987  0.42663  1.0000 0.142299377
H   H13       1.0  0.28912  0.05436  0.07667  1.0000 0.1535998254
H   H14       1.0  0.28995  0.07975  0.26784  1.0000 0.132230804
H   H15       1.0  0.41835  0.91693  0.46499  1.0000 0.142299377
H   H16       1.0  0.38260  0.79519  0.23452  1.0000 0.1535998254
C   C1        1.0  0.08700  0.42250  0.43660  1.0000 -0.0515623571
C   C2        1.0  0.06100  0.36700  0.47020  1.0000 -0.0789254905
C   C3        1.0  0.07300  0.35160  0.58580  1.0000 -0.0789254905
C   C4        1.0  0.11200  0.38920  0.67140  1.0000 -0.0933578679
C   C5        1.0  0.12600  0.44770  0.64410  1.0000 0.0723137489
C   C6        1.0  0.15300  0.48950  0.72920  1.0000 -0.1055387439
C   C7        1.0  0.15800  0.54370  0.70360  1.0000 -0.0789254905
C   C8        1.0  0.12800  0.56180  0.59010  1.0000 -0.1004161372
C   C9        1.0  0.10300  0.52350  0.50440  1.0000 -0.1004161372
C   C10       1.0  0.11000  0.46500  0.52420  1.0000 0.0444603792
C   C11       1.0  0.12500  0.42590  0.31350  1.0000 0.6390370807
C   C12       1.0  0.14500  0.36520  0.78660  1.0000 0.6047448298
C   C13       1.0  0.64800  0.47400  0.89970  1.0000 -0.0515623571
C   C14       1.0  0.68400  0.52750  0.86760  1.0000 -0.0641263922
C   C15       1.0  0.68200  0.54310  0.75200  1.0000 -0.0699357924
C   C16       1.0  0.63900  0.50420  0.66830  1.0000 -0.0699357924
C   C17       1.0  0.62100  0.44880  0.69510  1.0000 0.0595769581
C   C18       1.0  0.59500  0.40620  0.61110  1.0000 -0.1004161372
C   C19       1.0  0.58900  0.35030  0.63650  1.0000 -0.0789254905
C   C20       1.0  0.61500  0.33320  0.74870  1.0000 -0.0789254905
C   C21       1.0  0.63800  0.37130  0.83550  1.0000 -0.1004161372
C   C22       1.0  0.63600  0.43120  0.81460  1.0000 0.0595769581
C   C23       1.0  0.60100  0.47020  0.02400  1.0000 0.6468556604
C   C24       1.0  0.61700  0.53070  0.54690  1.0000 0.6625350198
C   C25       1.0  0.91300  0.92250  0.56340  1.0000 -0.0515623571
C   C26       1.0  0.93900  0.86700  0.52980  1.0000 -0.0789254905
C   C27       1.0  0.92700  0.85160  0.41420  1.0000 -0.0789254905
C   C28       1.0  0.88800  0.88920  0.32860  1.0000 -0.0933578679
C   C29       1.0  0.87400  0.94770  0.35590  1.0000 0.0723137489
C   C30       1.0  0.84700  0.98950  0.27080  1.0000 -0.1055387439
C   C31       1.0  0.84200  0.04370  0.29640  1.0000 -0.0789254905
C   C32       1.0  0.87200  0.06180  0.40990  1.0000 -0.1004161372
C   C33       1.0  0.89700  0.02350  0.49560  1.0000 -0.1004161372
C   C34       1.0  0.89000  0.96500  0.47580  1.0000 0.0444603792
C   C35       1.0  0.87500  0.92590  0.68650  1.0000 0.6390370807
C   C36       1.0  0.85500  0.86520  0.21340  1.0000 0.6047448298
C   C37       1.0  0.35200  0.97400  0.10030  1.0000 -0.0515623571
C   C38       1.0  0.31600  0.02750  0.13240  1.0000 -0.0641263922
C   C39       1.0  0.31800  0.04310  0.24800  1.0000 -0.0699357924
C   C40       1.0  0.36100  0.00420  0.33170  1.0000 -0.0699357924
C   C41       1.0  0.37900  0.94880  0.30490  1.0000 0.0595769581
C   C42       1.0  0.40500  0.90620  0.38890  1.0000 -0.1004161372
C   C43       1.0  0.41100  0.85030  0.36350  1.0000 -0.0789254905
C   C44       1.0  0.38500  0.83320  0.25130  1.0000 -0.0789254905
C   C45       1.0  0.36200  0.87130  0.16450  1.0000 -0.1004161372
C   C46       1.0  0.36400  0.93120  0.18540  1.0000 0.0595769581
C   C47       1.0  0.39900  0.97020  0.97600  1.0000 0.6468556604
C   C48       1.0  0.38300  0.03070  0.45310  1.0000 0.6625350198
S   S1        1.0  0.04620  0.55449  0.36740  1.0000 1.2749952755
S   S2        1.0  0.18540  0.59517  0.81100  1.0000 1.1538419208
S   S3        1.0  0.56130  0.29966  0.52910  1.0000 1.1935059509
S   S4        1.0  0.67980  0.34205  0.97490  1.0000 1.2444431266
S   S5        1.0  0.95380  0.05449  0.63260  1.0000 1.2749952755
S   S6        1.0  0.81460  0.09517  0.18900  1.0000 1.1538419208
S   S7        1.0  0.43870  0.79966  0.47090  1.0000 1.1935059509
S   S8        1.0  0.32020  0.84205  0.02510  1.0000 1.2444431266
O   O1        1.0  0.28180  0.44650  0.28400  1.0000 -0.7689655938
O   O2        1.0  0.01650  0.40080  0.24350  1.0000 -0.6012276628
O   O3        1.0  0.15920  0.39550  0.87680  1.0000 -0.7201941231
O   O4        1.0  0.15100  0.31290  0.79830  1.0000 -0.4994780639
O   O5        1.0  0.22610  0.55950  0.31000  1.0000 -0.6388227114
O   O6        1.0  0.90700  0.51900  0.31020  1.0000 -0.605495117
O   O7        1.0  0.97960  0.61090  0.39250  1.0000 -0.6793748209
O   O8        1.0  0.01300  0.62900  0.80390  1.0000 -0.5761523563
O   O9        1.0  0.35440  0.62660  0.78830  1.0000 -0.5649799624
O   O10       1.0  0.20200  0.56410  0.91810  1.0000 -0.5855656185
O   O11       1.0  0.55890  0.50140  0.46470  1.0000 -0.6388227114
O   O12       1.0  0.65970  0.58170  0.54000  1.0000 -0.6871617505
O   O13       1.0  0.44460  0.45390  0.05060  1.0000 -0.6793748209
O   O14       1.0  0.71670  0.49420  0.09720  1.0000 -0.6259684482
O   O15       1.0  0.51430  0.33090  0.42310  1.0000 -0.5739221294
O   O16       1.0  0.73820  0.26980  0.52880  1.0000 -0.5761523563
O   O17       1.0  0.40570  0.26410  0.56050  1.0000 -0.7602516034
O   O18       1.0  0.50100  0.34380  0.03000  1.0000 -0.6992676773
O   O19       1.0  0.82950  0.37710  0.03250  1.0000 -0.6871617505
O   O20       1.0  0.73860  0.28370  0.95830  1.0000 -0.5171904484
O   O21       1.0  0.61030  0.60090  0.30010  1.0000 -1.4246883908
O   O22       1.0  0.71820  0.94650  0.71600  1.0000 -0.7689655938
O   O23       1.0  0.98350  0.90080  0.75650  1.0000 -0.6012276628
O   O24       1.0  0.84080  0.89550  0.12320  1.0000 -0.7201941231
O   O25       1.0  0.84900  0.81290  0.20170  1.0000 -0.4994780639
O   O26       1.0  0.77390  0.05950  0.69000  1.0000 -0.6388227114
O   O27       1.0  0.09300  0.01900  0.68980  1.0000 -0.605495117
O   O28       1.0  0.02040  0.11090  0.60750  1.0000 -0.6793748209
O   O29       1.0  0.98700  0.12900  0.19610  1.0000 -0.5761523563
O   O30       1.0  0.64560  0.12660  0.21170  1.0000 -0.5649799624
O   O31       1.0  0.79800  0.06410  0.08190  1.0000 -0.5855656185
O   O32       1.0  0.44110  0.00140  0.53530  1.0000 -0.6388227114
O   O33       1.0  0.34030  0.08170  0.46000  1.0000 -0.6871617505
O   O34       1.0  0.55540  0.95390  0.94940  1.0000 -0.6793748209
O   O35       1.0  0.28330  0.99420  0.90280  1.0000 -0.6259684482
O   O36       1.0  0.48570  0.83090  0.57690  1.0000 -0.5739221294
O   O37       1.0  0.26180  0.76980  0.47120  1.0000 -0.5739221294
O   O38       1.0  0.59430  0.76410  0.43950  1.0000 -0.7602516034
O   O39       1.0  0.49900  0.84380  0.97000  1.0000 -0.6992676773
O   O40       1.0  0.17050  0.87710  0.96750  1.0000 -0.6871617505
O   O41       1.0  0.26140  0.78370  0.04170  1.0000 -0.5171904484
O   O42       1.0  0.38970  0.10090  0.69990  1.0000 -1.4093570032
