# DDEC6 charges by PACMAN v1.1 (https://github.com/mtap-research/PACMAN-charge/)
data_2020[Cu][sql]2[ASR]14
_chemical_formula_sum              "Cu4 H32 C68 O16 F24"
_cell_length_a       14.4521
_cell_length_b       14.4521
_cell_length_c       22.8971
_cell_angle_alpha    66.6733
_cell_angle_beta     113.327
_cell_angle_gamma    152.041

_symmetry_space_group_name_H-M    "P 1"
_symmetry_Int_Tables_number       1

loop_
  _symmetry_equiv_pos_as_xyz
  'x, y, z'

loop_
  _atom_site_type_symbol
  _atom_site_label
  _atom_site_symmetry_multiplicity
  _atom_site_fract_x
  _atom_site_fract_y
  _atom_site_fract_z
  _atom_site_occupancy
  _atom_site_charge
Cu  Cu1       1.0  0.12546  0.18236  0.98542  1.0000 0.815636678
Cu  Cu2       1.0  0.18236  0.12546  0.51458  1.0000 0.815636678
Cu  Cu3       1.0  0.87454  0.81764  0.01458  1.0000 0.815636678
Cu  Cu4       1.0  0.81764  0.87454  0.48542  1.0000 0.8147376016
H   H1        1.0  0.54774  0.43638  0.15360  1.0000 0.1293206933
H   H2        1.0  0.73572  0.51922  0.25124  1.0000 0.121998054
H   H3        1.0  0.34480  0.94944  0.29679  1.0000 0.1115648443
H   H4        1.0  0.15323  0.86611  0.20057  1.0000 0.1293206933
H   H5        1.0  0.05379  0.65259  0.40540  1.0000 0.1115648443
H   H6        1.0  0.13541  0.84461  0.44723  1.0000 0.121998054
H   H7        1.0  0.57054  0.46240  0.39930  1.0000 0.1293206933
H   H8        1.0  0.48860  0.26550  0.36055  1.0000 0.121998054
H   H9        1.0  0.43638  0.54774  0.34640  1.0000 0.1293206933
H   H10       1.0  0.51922  0.73572  0.24876  1.0000 0.121998054
H   H11       1.0  0.94944  0.34480  0.20321  1.0000 0.1115648443
H   H12       1.0  0.86611  0.15322  0.29943  1.0000 0.1293206933
H   H13       1.0  0.65259  0.05379  0.09460  1.0000 0.1115648443
H   H14       1.0  0.84461  0.13541  0.05277  1.0000 0.121998054
H   H15       1.0  0.46240  0.57054  0.10070  1.0000 0.1293206933
H   H16       1.0  0.26550  0.48860  0.13945  1.0000 0.121998054
H   H17       1.0  0.45226  0.56362  0.84640  1.0000 0.1293206933
H   H18       1.0  0.26428  0.48078  0.74876  1.0000 0.121998054
H   H19       1.0  0.65520  0.05056  0.70321  1.0000 0.1115648443
H   H20       1.0  0.84678  0.13389  0.79943  1.0000 0.1293206933
H   H21       1.0  0.94621  0.34741  0.59460  1.0000 0.1115648443
H   H22       1.0  0.86459  0.15539  0.55277  1.0000 0.121998054
H   H23       1.0  0.42946  0.53760  0.60070  1.0000 0.1293206933
H   H24       1.0  0.51140  0.73450  0.63945  1.0000 0.121998054
H   H25       1.0  0.56362  0.45226  0.65360  1.0000 0.1293206933
H   H26       1.0  0.48078  0.26428  0.75124  1.0000 0.121998054
H   H27       1.0  0.05056  0.65520  0.79679  1.0000 0.1115648443
H   H28       1.0  0.13389  0.84677  0.70057  1.0000 0.1293206933
H   H29       1.0  0.34741  0.94621  0.90540  1.0000 0.1115648443
H   H30       1.0  0.15539  0.86459  0.94723  1.0000 0.121998054
H   H31       1.0  0.53760  0.42946  0.89930  1.0000 0.1293206933
H   H32       1.0  0.73450  0.51140  0.86055  1.0000 0.121998054
C   C1        1.0  0.20295  0.08705  0.10580  1.0000 0.56236711
C   C2        1.0  0.32827  0.14073  0.16843  1.0000 0.00517822
C   C3        1.0  0.50558  0.33722  0.18340  1.0000 -0.0910421389
C   C4        1.0  0.61850  0.38690  0.24080  1.0000 -0.1418362089
C   C5        1.0  0.56110  0.24250  0.28425  1.0000 0.0710593112
C   C6        1.0  0.38589  0.04871  0.26790  1.0000 -0.1506618947
C   C7        1.0  0.27163  0.99877  0.21090  1.0000 -0.0976004168
C   C8        1.0  0.69516  0.30684  0.34610  1.0000 -0.276842007
C   C9        1.0  0.58914  0.13106  0.40020  1.0000 0.6701975599
C   C10       1.0  0.86938  0.40942  0.33110  1.0000 0.6593826845
C   C11       1.0  0.76285  0.44355  0.37657  1.0000 0.0755444359
C   C12       1.0  0.95605  0.61455  0.40380  1.0000 -0.1506618947
C   C13       1.0  0.00399  0.72821  0.42850  1.0000 -0.0910421389
C   C14       1.0  0.86237  0.67423  0.42638  1.0000 0.0019031358
C   C15       1.0  0.66903  0.50157  0.40070  1.0000 -0.0910421389
C   C16       1.0  0.62170  0.38630  0.37690  1.0000 -0.1418362089
C   C17       1.0  0.91818  0.80082  0.45370  1.0000 0.56236711
C   C18       1.0  0.08705  0.20295  0.39420  1.0000 0.56236711
C   C19       1.0  0.14073  0.32827  0.33157  1.0000 0.0019031358
C   C20       1.0  0.33722  0.50558  0.31660  1.0000 -0.0910421389
C   C21       1.0  0.38690  0.61850  0.25920  1.0000 -0.1418362089
C   C22       1.0  0.24250  0.56110  0.21575  1.0000 0.0710593112
C   C23       1.0  0.04871  0.38589  0.23210  1.0000 -0.1506618947
C   C24       1.0  0.99877  0.27163  0.28910  1.0000 -0.0976004168
C   C25       1.0  0.30684  0.69516  0.15390  1.0000 -0.276842007
C   C26       1.0  0.13106  0.58914  0.09980  1.0000 0.6701975599
C   C27       1.0  0.40942  0.86938  0.16890  1.0000 0.6593826845
C   C28       1.0  0.44355  0.76285  0.12343  1.0000 0.0755444359
C   C29       1.0  0.61455  0.95605  0.09620  1.0000 -0.1506618947
C   C30       1.0  0.72821  0.00399  0.07150  1.0000 -0.0910421389
C   C31       1.0  0.67423  0.86237  0.07362  1.0000 0.0019031358
C   C32       1.0  0.50157  0.66903  0.09930  1.0000 -0.0910421389
C   C33       1.0  0.38630  0.62170  0.12310  1.0000 -0.1418362089
C   C34       1.0  0.80082  0.91818  0.04630  1.0000 0.56236711
C   C35       1.0  0.79705  0.91295  0.89420  1.0000 0.56236711
C   C36       1.0  0.67173  0.85927  0.83157  1.0000 0.0019031358
C   C37       1.0  0.49442  0.66278  0.81660  1.0000 -0.0910421389
C   C38       1.0  0.38150  0.61310  0.75920  1.0000 -0.1418362089
C   C39       1.0  0.43890  0.75750  0.71575  1.0000 0.0710593112
C   C40       1.0  0.61411  0.95129  0.73210  1.0000 -0.1506618947
C   C41       1.0  0.72837  0.00123  0.78910  1.0000 -0.0976004168
C   C42       1.0  0.30484  0.69316  0.65390  1.0000 -0.276842007
C   C43       1.0  0.41086  0.86894  0.59980  1.0000 0.6701975599
C   C44       1.0  0.13062  0.59058  0.66890  1.0000 0.6593826845
C   C45       1.0  0.23715  0.55645  0.62343  1.0000 0.0755444359
C   C46       1.0  0.04395  0.38545  0.59620  1.0000 -0.1506618947
C   C47       1.0  0.99601  0.27179  0.57150  1.0000 -0.0910421389
C   C48       1.0  0.13763  0.32577  0.57362  1.0000 -0.0003567306
C   C49       1.0  0.33097  0.49843  0.59930  1.0000 -0.0910421389
C   C50       1.0  0.37830  0.61370  0.62310  1.0000 -0.1418362089
C   C51       1.0  0.08182  0.19918  0.54630  1.0000 0.56236711
C   C52       1.0  0.91295  0.79705  0.60580  1.0000 0.56236711
C   C53       1.0  0.85927  0.67173  0.66843  1.0000 0.00517822
C   C54       1.0  0.66278  0.49442  0.68340  1.0000 -0.0910421389
C   C55       1.0  0.61310  0.38150  0.74080  1.0000 -0.1418362089
C   C56       1.0  0.75750  0.43890  0.78425  1.0000 0.0710593112
C   C57       1.0  0.95129  0.61411  0.76790  1.0000 -0.1506618947
C   C58       1.0  0.00123  0.72837  0.71090  1.0000 -0.0976004168
C   C59       1.0  0.69316  0.30484  0.84610  1.0000 -0.276842007
C   C60       1.0  0.86894  0.41086  0.90020  1.0000 0.6701975599
C   C61       1.0  0.59058  0.13062  0.83110  1.0000 0.6593826845
C   C62       1.0  0.55645  0.23715  0.87657  1.0000 0.0755444359
C   C63       1.0  0.38545  0.04395  0.90380  1.0000 -0.1506618947
C   C64       1.0  0.27179  0.99601  0.92850  1.0000 -0.0910421389
C   C65       1.0  0.32577  0.13763  0.92638  1.0000 0.0019031358
C   C66       1.0  0.49843  0.33097  0.90070  1.0000 -0.0910421389
C   C67       1.0  0.61370  0.37830  0.87690  1.0000 -0.1418362089
C   C68       1.0  0.19918  0.08182  0.95370  1.0000 0.56236711
O   O1        1.0  0.26329  0.22171  0.06940  1.0000 -0.5014311943
O   O2        1.0  0.04780  0.91300  0.09270  1.0000 -0.5014311943
O   O3        1.0  0.78209  0.73931  0.45170  1.0000 -0.5014311943
O   O4        1.0  0.09190  0.95290  0.47400  1.0000 -0.4846224651
O   O5        1.0  0.22171  0.26329  0.43060  1.0000 -0.5014311943
O   O6        1.0  0.91300  0.04780  0.40730  1.0000 -0.5014311943
O   O7        1.0  0.73931  0.78209  0.04830  1.0000 -0.5014311943
O   O8        1.0  0.95290  0.09190  0.02600  1.0000 -0.4846224651
O   O9        1.0  0.73671  0.77829  0.93060  1.0000 -0.5014311943
O   O10       1.0  0.95220  0.08700  0.90730  1.0000 -0.5014311943
O   O11       1.0  0.21791  0.26069  0.54830  1.0000 -0.5014311943
O   O12       1.0  0.90810  0.04710  0.52600  1.0000 -0.4846224651
O   O13       1.0  0.77829  0.73671  0.56940  1.0000 -0.5014311943
O   O14       1.0  0.08700  0.95220  0.59270  1.0000 -0.5053017303
O   O15       1.0  0.26069  0.21791  0.95170  1.0000 -0.5014311943
O   O16       1.0  0.04710  0.90810  0.97400  1.0000 -0.4850895867
F   F1        1.0  0.69962  0.19478  0.45669  1.0000 -0.1980866407
F   F2        1.0  0.41686  0.01594  0.40773  1.0000 -0.1980866407
F   F3        1.0  0.54887  0.01553  0.38510  1.0000 -0.2083123788
F   F4        1.0  0.98167  0.44453  0.38270  1.0000 -0.1980866407
F   F5        1.0  0.80202  0.29738  0.29799  1.0000 -0.1865785435
F   F6        1.0  0.98805  0.58095  0.29615  1.0000 -0.1865785435
F   F7        1.0  0.19478  0.69962  0.04331  1.0000 -0.1980866407
F   F8        1.0  0.01594  0.41686  0.09227  1.0000 -0.1980866407
F   F9        1.0  0.01553  0.54887  0.11490  1.0000 -0.2083123788
F   F10       1.0  0.44453  0.98167  0.11730  1.0000 -0.1980866407
F   F11       1.0  0.29738  0.80202  0.20201  1.0000 -0.1865785435
F   F12       1.0  0.58095  0.98805  0.20385  1.0000 -0.1865785435
F   F13       1.0  0.30038  0.80522  0.54331  1.0000 -0.1980866407
F   F14       1.0  0.58314  0.98406  0.59227  1.0000 -0.1980866407
F   F15       1.0  0.45113  0.98447  0.61490  1.0000 -0.2083123788
F   F16       1.0  0.01833  0.55547  0.61730  1.0000 -0.1980866407
F   F17       1.0  0.19798  0.70262  0.70201  1.0000 -0.1865785435
F   F18       1.0  0.01195  0.41905  0.70385  1.0000 -0.1865785435
F   F19       1.0  0.80522  0.30038  0.95669  1.0000 -0.1980866407
F   F20       1.0  0.98406  0.58314  0.90773  1.0000 -0.1980866407
F   F21       1.0  0.98447  0.45113  0.88510  1.0000 -0.2083123788
F   F22       1.0  0.55547  0.01833  0.88270  1.0000 -0.1980866407
F   F23       1.0  0.70262  0.19798  0.79799  1.0000 -0.1865785435
F   F24       1.0  0.41905  0.01195  0.79615  1.0000 -0.1865785435
