# DDEC6 charges by PACMAN v1.1 (https://github.com/mtap-research/PACMAN-charge/)
data_2020[Co][sql]2[ASR]8
_chemical_formula_sum              "Co4 H48 C72 S8 N8 O16"
_cell_length_a       24.2536
_cell_length_b       24.0477
_cell_length_c       11.2909
_cell_angle_alpha    77.4997
_cell_angle_beta     75.4675
_cell_angle_gamma    27.0327

_symmetry_space_group_name_H-M    "P 1"
_symmetry_Int_Tables_number       1

loop_
  _symmetry_equiv_pos_as_xyz
  'x, y, z'

loop_
  _atom_site_type_symbol
  _atom_site_label
  _atom_site_symmetry_multiplicity
  _atom_site_fract_x
  _atom_site_fract_y
  _atom_site_fract_z
  _atom_site_occupancy
  _atom_site_charge
Co  Co1       1.0  0.52377  0.52377  0.97623  1.0000 0.7890769247
Co  Co2       1.0  0.97623  0.97623  0.52377  1.0000 0.7890769247
Co  Co3       1.0  0.72623  0.72623  0.27377  1.0000 0.7890769247
Co  Co4       1.0  0.27377  0.27377  0.72623  1.0000 0.7890769247
H   H1        1.0  0.17779  0.90097  0.10335  1.0000 0.1030553247
H   H2        1.0  0.10533  0.97651  0.75739  1.0000 0.1162467677
H   H3        1.0  0.63968  0.34804  0.19622  1.0000 0.1077430512
H   H4        1.0  0.58885  0.33719  0.38975  1.0000 0.1485026557
H   H5        1.0  0.23426  0.66928  0.33714  1.0000 0.1485026557
H   H6        1.0  0.29643  0.67057  0.14591  1.0000 0.1077430512
H   H7        1.0  0.90097  0.17779  0.81789  1.0000 0.1030553247
H   H8        1.0  0.97651  0.10533  0.16077  1.0000 0.1162467677
H   H9        1.0  0.34804  0.63968  0.81606  1.0000 0.1077430512
H   H10       1.0  0.33719  0.58885  0.68421  1.0000 0.1485026557
H   H11       1.0  0.66928  0.23426  0.75932  1.0000 0.1485026557
H   H12       1.0  0.67057  0.29643  0.88709  1.0000 0.1077430512
H   H13       1.0  0.10335  0.81789  0.17779  1.0000 0.1030553247
H   H14       1.0  0.75739  0.16077  0.10533  1.0000 0.1162467677
H   H15       1.0  0.19622  0.81606  0.63968  1.0000 0.1077430512
H   H16       1.0  0.38975  0.68421  0.58885  1.0000 0.1485026557
H   H17       1.0  0.33714  0.75932  0.23426  1.0000 0.1485026557
H   H18       1.0  0.14591  0.88709  0.29643  1.0000 0.1077430512
H   H19       1.0  0.81789  0.10335  0.90097  1.0000 0.1030553247
H   H20       1.0  0.16077  0.75739  0.97651  1.0000 0.1162467677
H   H21       1.0  0.81606  0.19622  0.34804  1.0000 0.1077430512
H   H22       1.0  0.68421  0.38975  0.33719  1.0000 0.1485026557
H   H23       1.0  0.75932  0.33714  0.66928  1.0000 0.1485026557
H   H24       1.0  0.88709  0.14591  0.67057  1.0000 0.1077430512
H   H25       1.0  0.07221  0.34903  0.14665  1.0000 0.1030553247
H   H26       1.0  0.14467  0.27349  0.49261  1.0000 0.1162467677
H   H27       1.0  0.61032  0.90196  0.05378  1.0000 0.1077430512
H   H28       1.0  0.66115  0.91281  0.86025  1.0000 0.1485026557
H   H29       1.0  0.01574  0.58072  0.91286  1.0000 0.1485026557
H   H30       1.0  0.95357  0.57943  0.10409  1.0000 0.1077430512
H   H31       1.0  0.34903  0.07221  0.43211  1.0000 0.1030553247
H   H32       1.0  0.27349  0.14467  0.08923  1.0000 0.1162467677
H   H33       1.0  0.90196  0.61032  0.43394  1.0000 0.1077430512
H   H34       1.0  0.91281  0.66115  0.56579  1.0000 0.1485026557
H   H35       1.0  0.58072  0.01574  0.49068  1.0000 0.1485026557
H   H36       1.0  0.57943  0.95357  0.36291  1.0000 0.1077430512
H   H37       1.0  0.14665  0.43211  0.07221  1.0000 0.1030553247
H   H38       1.0  0.49261  0.08923  0.14467  1.0000 0.1162467677
H   H39       1.0  0.05378  0.43394  0.61032  1.0000 0.1077430512
H   H40       1.0  0.86025  0.56579  0.66115  1.0000 0.1485026557
H   H41       1.0  0.91286  0.49068  0.01574  1.0000 0.1485026557
H   H42       1.0  0.10409  0.36291  0.95357  1.0000 0.1077430512
H   H43       1.0  0.43211  0.14665  0.34903  1.0000 0.1030553247
H   H44       1.0  0.08923  0.49261  0.27349  1.0000 0.1162467677
H   H45       1.0  0.43394  0.05378  0.90196  1.0000 0.1077430512
H   H46       1.0  0.56579  0.86025  0.91281  1.0000 0.1485026557
H   H47       1.0  0.49068  0.91286  0.58072  1.0000 0.1485026557
H   H48       1.0  0.36291  0.10409  0.57943  1.0000 0.1077430512
C   C1        1.0  0.16018  0.91808  0.92590  1.0000 -0.0193186056
C   C2        1.0  0.12160  0.95736  0.04496  1.0000 -0.1110748771
C   C3        1.0  0.07848  0.00150  0.84032  1.0000 -0.1110748771
C   C4        1.0  0.28905  0.78615  0.89043  1.0000 0.5592275265
C   C5        1.0  0.55561  0.41487  0.22525  1.0000 0.1030553247
C   C6        1.0  0.52639  0.40711  0.34121  1.0000 -0.2004102651
C   C7        1.0  0.40568  0.50212  0.38478  1.0000 0.1030553247
C   C8        1.0  0.31883  0.60167  0.31033  1.0000 -0.2004102651
C   C9        1.0  0.35718  0.60122  0.19586  1.0000 0.0915149006
C   C10       1.0  0.91808  0.16018  0.99584  1.0000 -0.0193186056
C   C11       1.0  0.95736  0.12160  0.87608  1.0000 -0.1110748771
C   C12       1.0  0.00150  0.07848  0.07970  1.0000 -0.1110748771
C   C13       1.0  0.78615  0.28905  0.03437  1.0000 0.5592275265
C   C14       1.0  0.41487  0.55561  0.80427  1.0000 0.1030553247
C   C15       1.0  0.40711  0.52639  0.72529  1.0000 -0.2004102651
C   C16       1.0  0.50212  0.40568  0.70742  1.0000 0.1030553247
C   C17       1.0  0.60167  0.31883  0.76917  1.0000 -0.2004102651
C   C18       1.0  0.60122  0.35718  0.84574  1.0000 0.0915149006
C   C19       1.0  0.92590  0.99584  0.16018  1.0000 -0.0193186056
C   C20       1.0  0.04496  0.87608  0.12160  1.0000 -0.1110748771
C   C21       1.0  0.84032  0.07970  0.07848  1.0000 -0.1110748771
C   C22       1.0  0.89043  0.03437  0.28905  1.0000 0.5592275265
C   C23       1.0  0.22525  0.80427  0.55561  1.0000 0.1030553247
C   C24       1.0  0.34121  0.72529  0.52639  1.0000 -0.2004102651
C   C25       1.0  0.38478  0.70742  0.40568  1.0000 0.1030553247
C   C26       1.0  0.31033  0.76917  0.31883  1.0000 -0.2004102651
C   C27       1.0  0.19586  0.84574  0.35718  1.0000 0.0915149006
C   C28       1.0  0.99584  0.92590  0.91808  1.0000 -0.0193186056
C   C29       1.0  0.87608  0.04496  0.95736  1.0000 -0.1110748771
C   C30       1.0  0.07970  0.84032  0.00150  1.0000 -0.1110748771
C   C31       1.0  0.03437  0.89043  0.78615  1.0000 0.5592275265
C   C32       1.0  0.80427  0.22525  0.41487  1.0000 0.1030553247
C   C33       1.0  0.72529  0.34121  0.40711  1.0000 -0.2004102651
C   C34       1.0  0.70742  0.38478  0.50212  1.0000 0.1030553247
C   C35       1.0  0.76917  0.31033  0.60167  1.0000 -0.2004102651
C   C36       1.0  0.84574  0.19586  0.60122  1.0000 0.0915149006
C   C37       1.0  0.08982  0.33192  0.32410  1.0000 -0.0193186056
C   C38       1.0  0.12840  0.29264  0.20504  1.0000 -0.1110748771
C   C39       1.0  0.17152  0.24850  0.40968  1.0000 -0.1110748771
C   C40       1.0  0.96095  0.46385  0.35957  1.0000 0.5592275265
C   C41       1.0  0.69439  0.83513  0.02475  1.0000 0.1030553247
C   C42       1.0  0.72361  0.84289  0.90879  1.0000 -0.2004102651
C   C43       1.0  0.84432  0.74788  0.86522  1.0000 0.1030553247
C   C44       1.0  0.93117  0.64833  0.93967  1.0000 -0.2004102651
C   C45       1.0  0.89282  0.64878  0.05414  1.0000 0.0915149006
C   C46       1.0  0.33192  0.08982  0.25416  1.0000 -0.0193186056
C   C47       1.0  0.29264  0.12840  0.37392  1.0000 -0.1110748771
C   C48       1.0  0.24850  0.17152  0.17030  1.0000 -0.1110748771
C   C49       1.0  0.46385  0.96095  0.21563  1.0000 0.5592275265
C   C50       1.0  0.83513  0.69439  0.44573  1.0000 0.1030553247
C   C51       1.0  0.84289  0.72361  0.52471  1.0000 -0.2004102651
C   C52       1.0  0.74788  0.84432  0.54258  1.0000 0.1030553247
C   C53       1.0  0.64833  0.93117  0.48083  1.0000 -0.2004102651
C   C54       1.0  0.64878  0.89282  0.40426  1.0000 0.0915149006
C   C55       1.0  0.32410  0.25416  0.08982  1.0000 -0.0193186056
C   C56       1.0  0.20504  0.37392  0.12840  1.0000 -0.1110748771
C   C57       1.0  0.40968  0.17030  0.17152  1.0000 -0.1110748771
C   C58       1.0  0.35957  0.21563  0.96095  1.0000 0.5592275265
C   C59       1.0  0.02475  0.44573  0.69439  1.0000 0.1030553247
C   C60       1.0  0.90879  0.52471  0.72361  1.0000 -0.2004102651
C   C61       1.0  0.86522  0.54258  0.84432  1.0000 0.1030553247
C   C62       1.0  0.93967  0.48083  0.93117  1.0000 -0.2004102651
C   C63       1.0  0.05414  0.40426  0.89282  1.0000 0.0915149006
C   C64       1.0  0.25416  0.32410  0.33192  1.0000 -0.0193186056
C   C65       1.0  0.37392  0.20504  0.29264  1.0000 -0.1110748771
C   C66       1.0  0.17030  0.40968  0.24850  1.0000 -0.1110748771
C   C67       1.0  0.21563  0.35957  0.46385  1.0000 0.5592275265
C   C68       1.0  0.44573  0.02475  0.83513  1.0000 0.1030553247
C   C69       1.0  0.52471  0.90879  0.84289  1.0000 -0.2004102651
C   C70       1.0  0.54258  0.86522  0.74788  1.0000 0.1030553247
C   C71       1.0  0.48083  0.93967  0.64833  1.0000 -0.2004102651
C   C72       1.0  0.40426  0.05414  0.64878  1.0000 0.0915149006
S   S1        1.0  0.35302  0.50320  0.52806  1.0000 0.0561596117
S   S2        1.0  0.50320  0.35302  0.61572  1.0000 0.0561596117
S   S3        1.0  0.52806  0.61572  0.35302  1.0000 0.0561596117
S   S4        1.0  0.61572  0.52806  0.50320  1.0000 0.0561596117
S   S5        1.0  0.89698  0.74680  0.72194  1.0000 0.0561596117
S   S6        1.0  0.74680  0.89698  0.63428  1.0000 0.0561596117
S   S7        1.0  0.72194  0.63428  0.89698  1.0000 0.0561596117
S   S8        1.0  0.63428  0.72194  0.74680  1.0000 0.0561596117
N   N1        1.0  0.47377  0.50975  0.15153  1.0000 -0.2406433967
N   N2        1.0  0.50975  0.47377  0.86495  1.0000 -0.2406433967
N   N3        1.0  0.15153  0.86495  0.47377  1.0000 -0.2406433967
N   N4        1.0  0.86495  0.15153  0.50975  1.0000 -0.2406433967
N   N5        1.0  0.77623  0.74025  0.09847  1.0000 -0.2406433967
N   N6        1.0  0.74025  0.77623  0.38505  1.0000 -0.2406433967
N   N7        1.0  0.09847  0.38505  0.77623  1.0000 -0.2406433967
N   N8        1.0  0.38505  0.09847  0.74025  1.0000 -0.2406433967
O   O1        1.0  0.34234  0.70894  0.97504  1.0000 -0.5884618458
O   O2        1.0  0.33539  0.76087  0.78117  1.0000 -0.5679505241
O   O3        1.0  0.70894  0.34234  0.97368  1.0000 -0.5884618458
O   O4        1.0  0.76087  0.33539  0.12257  1.0000 -0.5679505241
O   O5        1.0  0.97504  0.97368  0.34234  1.0000 -0.5884618458
O   O6        1.0  0.78117  0.12257  0.33539  1.0000 -0.5679505241
O   O7        1.0  0.97368  0.97504  0.70894  1.0000 -0.5884618458
O   O8        1.0  0.12257  0.78117  0.76087  1.0000 -0.5679505241
O   O9        1.0  0.90766  0.54106  0.27496  1.0000 -0.5884618458
O   O10       1.0  0.91461  0.48913  0.46883  1.0000 -0.5679505241
O   O11       1.0  0.54106  0.90766  0.27632  1.0000 -0.5884618458
O   O12       1.0  0.48913  0.91461  0.12743  1.0000 -0.5679505241
O   O13       1.0  0.27496  0.27632  0.90766  1.0000 -0.5884618458
O   O14       1.0  0.46883  0.12743  0.91461  1.0000 -0.5679505241
O   O15       1.0  0.27632  0.27496  0.54106  1.0000 -0.5884618458
O   O16       1.0  0.12743  0.46883  0.48913  1.0000 -0.5679505241
