# DDEC6 charges by PACMAN v1.1 (https://github.com/mtap-research/PACMAN-charge/)
data_2020[Cd][pts]3[ASR]2
_chemical_formula_sum              "Cd8 H96 C160 N32 O32"
_cell_length_a       15.382
_cell_length_b       15.382
_cell_length_c       23.6009
_cell_angle_alpha    90
_cell_angle_beta     90
_cell_angle_gamma    90

_symmetry_space_group_name_H-M    "P 1"
_symmetry_Int_Tables_number       1

loop_
  _symmetry_equiv_pos_as_xyz
  'x, y, z'

loop_
  _atom_site_type_symbol
  _atom_site_label
  _atom_site_symmetry_multiplicity
  _atom_site_fract_x
  _atom_site_fract_y
  _atom_site_fract_z
  _atom_site_occupancy
  _atom_site_charge
Cd  Cd1       1.0  0.37455  0.49709  0.41153  1.0000 0.8736621267
Cd  Cd2       1.0  0.62545  0.50291  0.91153  1.0000 0.8736621267
Cd  Cd3       1.0  0.00291  0.87455  0.66153  1.0000 0.8736621267
Cd  Cd4       1.0  0.99709  0.12545  0.16153  1.0000 0.8736621267
Cd  Cd5       1.0  0.12545  0.99709  0.83847  1.0000 0.8736621267
Cd  Cd6       1.0  0.87455  0.00291  0.33847  1.0000 0.8736621267
Cd  Cd7       1.0  0.49709  0.37455  0.58847  1.0000 0.8736621267
Cd  Cd8       1.0  0.50291  0.62545  0.08847  1.0000 0.8736621267
H   H1        1.0  0.35650  0.75765  0.29863  1.0000 0.1312846183
H   H2        1.0  0.30817  0.89022  0.26238  1.0000 0.1312846183
H   H3        1.0  0.08593  0.86639  0.35574  1.0000 0.1458087317
H   H4        1.0  0.13797  0.73415  0.39138  1.0000 0.1232230566
H   H5        1.0  0.26303  0.05546  0.29488  1.0000 0.1389006478
H   H6        1.0  0.17053  0.16191  0.24417  1.0000 0.1389006478
H   H7        1.0  0.63276  0.48697  0.30847  1.0000 0.1312846183
H   H8        1.0  0.76352  0.43827  0.26882  1.0000 0.1312846183
H   H9        1.0  0.73620  0.20715  0.35165  1.0000 0.1312846183
H   H10       1.0  0.60302  0.25544  0.38791  1.0000 0.1232230566
H   H11       1.0  0.92174  0.39778  0.28562  1.0000 0.1312846183
H   H12       1.0  0.02377  0.31147  0.22714  1.0000 0.1389006478
H   H13       1.0  0.64350  0.24235  0.79863  1.0000 0.1312846183
H   H14       1.0  0.69183  0.10978  0.76238  1.0000 0.1312846183
H   H15       1.0  0.91407  0.13361  0.85574  1.0000 0.1458087317
H   H16       1.0  0.86203  0.26585  0.89138  1.0000 0.1232230566
H   H17       1.0  0.73697  0.94454  0.79488  1.0000 0.1389006478
H   H18       1.0  0.82947  0.83809  0.74417  1.0000 0.1389006478
H   H19       1.0  0.36724  0.51303  0.80847  1.0000 0.1312846183
H   H20       1.0  0.23648  0.56173  0.76882  1.0000 0.1312846183
H   H21       1.0  0.26380  0.79285  0.85165  1.0000 0.1312846183
H   H22       1.0  0.39698  0.74456  0.88791  1.0000 0.1232230566
H   H23       1.0  0.07826  0.60222  0.78562  1.0000 0.1312846183
H   H24       1.0  0.97623  0.68853  0.72714  1.0000 0.1389006478
H   H25       1.0  0.74235  0.85650  0.54863  1.0000 0.1312846183
H   H26       1.0  0.60978  0.80817  0.51238  1.0000 0.1312846183
H   H27       1.0  0.63361  0.58593  0.60574  1.0000 0.1458087317
H   H28       1.0  0.76585  0.63797  0.64138  1.0000 0.1232230566
H   H29       1.0  0.44454  0.76303  0.54488  1.0000 0.1389006478
H   H30       1.0  0.33809  0.67053  0.49417  1.0000 0.1389006478
H   H31       1.0  0.01303  0.13276  0.55847  1.0000 0.1312846183
H   H32       1.0  0.06173  0.26352  0.51882  1.0000 0.1312846183
H   H33       1.0  0.29285  0.23620  0.60165  1.0000 0.1312846183
H   H34       1.0  0.24456  0.10302  0.63791  1.0000 0.1232230566
H   H35       1.0  0.10222  0.42174  0.53562  1.0000 0.1312846183
H   H36       1.0  0.18853  0.52377  0.47714  1.0000 0.1389006478
H   H37       1.0  0.25765  0.14350  0.04863  1.0000 0.1312846183
H   H38       1.0  0.39022  0.19183  0.01238  1.0000 0.1312846183
H   H39       1.0  0.36639  0.41407  0.10574  1.0000 0.1458087317
H   H40       1.0  0.23415  0.36203  0.14138  1.0000 0.1232230566
H   H41       1.0  0.55546  0.23697  0.04488  1.0000 0.1389006478
H   H42       1.0  0.66191  0.32947  0.99417  1.0000 0.1389006478
H   H43       1.0  0.98697  0.86724  0.05847  1.0000 0.1312846183
H   H44       1.0  0.93827  0.73648  0.01882  1.0000 0.1312846183
H   H45       1.0  0.70715  0.76380  0.10165  1.0000 0.1312846183
H   H46       1.0  0.75544  0.89698  0.13791  1.0000 0.1232230566
H   H47       1.0  0.89778  0.57826  0.03562  1.0000 0.1312846183
H   H48       1.0  0.81147  0.47623  0.97714  1.0000 0.1389006478
H   H49       1.0  0.14350  0.25765  0.95137  1.0000 0.1312846183
H   H50       1.0  0.19183  0.39022  0.98762  1.0000 0.1312846183
H   H51       1.0  0.41407  0.36639  0.89426  1.0000 0.1458087317
H   H52       1.0  0.36203  0.23415  0.85862  1.0000 0.1232230566
H   H53       1.0  0.23697  0.55546  0.95512  1.0000 0.1389006478
H   H54       1.0  0.32947  0.66191  0.00583  1.0000 0.1389006478
H   H55       1.0  0.86724  0.98697  0.94153  1.0000 0.1312846183
H   H56       1.0  0.73648  0.93827  0.98118  1.0000 0.1312846183
H   H57       1.0  0.76380  0.70715  0.89835  1.0000 0.1312846183
H   H58       1.0  0.89698  0.75544  0.86209  1.0000 0.1232230566
H   H59       1.0  0.57826  0.89778  0.96438  1.0000 0.1312846183
H   H60       1.0  0.47623  0.81147  0.02286  1.0000 0.1389006478
H   H61       1.0  0.85650  0.74235  0.45137  1.0000 0.1312846183
H   H62       1.0  0.80817  0.60978  0.48762  1.0000 0.1312846183
H   H63       1.0  0.58593  0.63361  0.39426  1.0000 0.1458087317
H   H64       1.0  0.63797  0.76585  0.35862  1.0000 0.1232230566
H   H65       1.0  0.76303  0.44454  0.45512  1.0000 0.1389006478
H   H66       1.0  0.67053  0.33809  0.50583  1.0000 0.1389006478
H   H67       1.0  0.13276  0.01303  0.44153  1.0000 0.1312846183
H   H68       1.0  0.26352  0.06173  0.48118  1.0000 0.1312846183
H   H69       1.0  0.23620  0.29285  0.39835  1.0000 0.1312846183
H   H70       1.0  0.10302  0.24456  0.36209  1.0000 0.1232230566
H   H71       1.0  0.42174  0.10222  0.46438  1.0000 0.1312846183
H   H72       1.0  0.52377  0.18853  0.52286  1.0000 0.1389006478
H   H73       1.0  0.75765  0.35650  0.70137  1.0000 0.1312846183
H   H74       1.0  0.89022  0.30817  0.73762  1.0000 0.1312846183
H   H75       1.0  0.86639  0.08593  0.64426  1.0000 0.1458087317
H   H76       1.0  0.73415  0.13797  0.60862  1.0000 0.1232230566
H   H77       1.0  0.05546  0.26303  0.70512  1.0000 0.1389006478
H   H78       1.0  0.16191  0.17053  0.75583  1.0000 0.1389006478
H   H79       1.0  0.48697  0.63276  0.69153  1.0000 0.1312846183
H   H80       1.0  0.43827  0.76352  0.73118  1.0000 0.1312846183
H   H81       1.0  0.20715  0.73620  0.64835  1.0000 0.1312846183
H   H82       1.0  0.25544  0.60302  0.61209  1.0000 0.1232230566
H   H83       1.0  0.39778  0.92174  0.71438  1.0000 0.1312846183
H   H84       1.0  0.31147  0.02377  0.77286  1.0000 0.1389006478
H   H85       1.0  0.24235  0.64350  0.20137  1.0000 0.1312846183
H   H86       1.0  0.10978  0.69183  0.23762  1.0000 0.1312846183
H   H87       1.0  0.13361  0.91407  0.14426  1.0000 0.1458087317
H   H88       1.0  0.26585  0.86203  0.10862  1.0000 0.1232230566
H   H89       1.0  0.94454  0.73697  0.20512  1.0000 0.1389006478
H   H90       1.0  0.83809  0.82947  0.25583  1.0000 0.1389006478
H   H91       1.0  0.51303  0.36724  0.19153  1.0000 0.1312846183
H   H92       1.0  0.56173  0.23648  0.23118  1.0000 0.1312846183
H   H93       1.0  0.79285  0.26380  0.14835  1.0000 0.1312846183
H   H94       1.0  0.74456  0.39698  0.11209  1.0000 0.1232230566
H   H95       1.0  0.60222  0.07826  0.21438  1.0000 0.1312846183
H   H96       1.0  0.68853  0.97623  0.27286  1.0000 0.1389006478
C   C1        1.0  0.28730  0.64940  0.37370  1.0000 0.5400974504
C   C2        1.0  0.25250  0.73300  0.34834  1.0000 -0.0224256696
C   C3        1.0  0.30170  0.77990  0.31020  1.0000 -0.0755632878
C   C4        1.0  0.27340  0.85820  0.28832  1.0000 -0.1841321816
C   C5        1.0  0.19220  0.88900  0.30552  1.0000 0.1575807049
C   C6        1.0  0.14070  0.84420  0.34410  1.0000 -0.1930823144
C   C7        1.0  0.17210  0.76600  0.36500  1.0000 -0.0910343916
C   C8        1.0  0.20700  0.04490  0.27950  1.0000 -0.0910343916
C   C9        1.0  0.15590  0.10290  0.25130  1.0000 -0.0110705518
C   C10       1.0  0.08490  0.98230  0.25355  1.0000 0.2005898734
C   C11       1.0  0.51930  0.40780  0.37512  1.0000 0.5325516961
C   C12       1.0  0.60400  0.37510  0.35122  1.0000 -0.0224256696
C   C13       1.0  0.65300  0.42990  0.31640  1.0000 -0.0910343916
C   C14       1.0  0.73110  0.40140  0.29327  1.0000 -0.1930823144
C   C15       1.0  0.76150  0.31830  0.30629  1.0000 0.1652559485
C   C16       1.0  0.71470  0.26320  0.34225  1.0000 -0.2002579463
C   C17       1.0  0.63590  0.29250  0.36390  1.0000 -0.0910343916
C   C18       1.0  0.91240  0.34060  0.27170  1.0000 -0.0975529314
C   C19       1.0  0.96790  0.29300  0.23930  1.0000 -0.0110705518
C   C20       1.0  0.85360  0.21370  0.25218  1.0000 0.2005898734
C   C21       1.0  0.71270  0.35060  0.87370  1.0000 0.5400974504
C   C22       1.0  0.74750  0.26700  0.84834  1.0000 -0.0224256696
C   C23       1.0  0.69830  0.22010  0.81020  1.0000 -0.0755632878
C   C24       1.0  0.72660  0.14180  0.78832  1.0000 -0.1841321816
C   C25       1.0  0.80780  0.11100  0.80552  1.0000 0.1575807049
C   C26       1.0  0.85930  0.15580  0.84410  1.0000 -0.1930823144
C   C27       1.0  0.82790  0.23400  0.86500  1.0000 -0.0910343916
C   C28       1.0  0.79300  0.95510  0.77950  1.0000 -0.0910343916
C   C29       1.0  0.84410  0.89710  0.75130  1.0000 -0.0043187867
C   C30       1.0  0.91510  0.01770  0.75355  1.0000 0.2005898734
C   C31       1.0  0.48070  0.59220  0.87512  1.0000 0.5325516961
C   C32       1.0  0.39600  0.62490  0.85122  1.0000 -0.0224256696
C   C33       1.0  0.34700  0.57010  0.81640  1.0000 -0.0910343916
C   C34       1.0  0.26890  0.59860  0.79327  1.0000 -0.1930823144
C   C35       1.0  0.23850  0.68170  0.80629  1.0000 0.1652559485
C   C36       1.0  0.28530  0.73680  0.84225  1.0000 -0.2002579463
C   C37       1.0  0.36410  0.70750  0.86390  1.0000 -0.0910343916
C   C38       1.0  0.08760  0.65940  0.77170  1.0000 -0.0975529314
C   C39       1.0  0.03210  0.70700  0.73930  1.0000 -0.0110705518
C   C40       1.0  0.14640  0.78630  0.75218  1.0000 0.2005898734
C   C41       1.0  0.85060  0.78730  0.62370  1.0000 0.5400974504
C   C42       1.0  0.76700  0.75250  0.59834  1.0000 -0.0224256696
C   C43       1.0  0.72010  0.80170  0.56020  1.0000 -0.0755632878
C   C44       1.0  0.64180  0.77340  0.53832  1.0000 -0.1841321816
C   C45       1.0  0.61100  0.69220  0.55552  1.0000 0.1575807049
C   C46       1.0  0.65580  0.64070  0.59410  1.0000 -0.1930823144
C   C47       1.0  0.73400  0.67210  0.61500  1.0000 -0.0910343916
C   C48       1.0  0.45510  0.70700  0.52950  1.0000 -0.0910343916
C   C49       1.0  0.39710  0.65590  0.50130  1.0000 -0.0043187867
C   C50       1.0  0.51770  0.58490  0.50355  1.0000 0.2005898734
C   C51       1.0  0.09220  0.01930  0.62512  1.0000 0.5325516961
C   C52       1.0  0.12490  0.10400  0.60122  1.0000 -0.0224256696
C   C53       1.0  0.07010  0.15300  0.56640  1.0000 -0.0910343916
C   C54       1.0  0.09860  0.23110  0.54327  1.0000 -0.1930823144
C   C55       1.0  0.18170  0.26150  0.55629  1.0000 0.1652559485
C   C56       1.0  0.23680  0.21470  0.59225  1.0000 -0.2002579463
C   C57       1.0  0.20750  0.13590  0.61390  1.0000 -0.0910343916
C   C58       1.0  0.15940  0.41240  0.52170  1.0000 -0.0975529314
C   C59       1.0  0.20700  0.46790  0.48930  1.0000 -0.0110705518
C   C60       1.0  0.28630  0.35360  0.50218  1.0000 0.2005898734
C   C61       1.0  0.14940  0.21270  0.12370  1.0000 0.5400974504
C   C62       1.0  0.23300  0.24750  0.09834  1.0000 -0.0224256696
C   C63       1.0  0.27990  0.19830  0.06020  1.0000 -0.0755632878
C   C64       1.0  0.35820  0.22660  0.03832  1.0000 -0.1841321816
C   C65       1.0  0.38900  0.30780  0.05552  1.0000 0.1575807049
C   C66       1.0  0.34420  0.35930  0.09410  1.0000 -0.1930823144
C   C67       1.0  0.26600  0.32790  0.11500  1.0000 -0.0910343916
C   C68       1.0  0.54490  0.29300  0.02950  1.0000 -0.0910343916
C   C69       1.0  0.60290  0.34410  0.00130  1.0000 -0.0043187867
C   C70       1.0  0.48230  0.41510  0.00355  1.0000 0.2005898734
C   C71       1.0  0.90780  0.98070  0.12512  1.0000 0.5325516961
C   C72       1.0  0.87510  0.89600  0.10122  1.0000 -0.0224256696
C   C73       1.0  0.92990  0.84700  0.06640  1.0000 -0.0910343916
C   C74       1.0  0.90140  0.76890  0.04327  1.0000 -0.1930823144
C   C75       1.0  0.81830  0.73850  0.05629  1.0000 0.1652559485
C   C76       1.0  0.76320  0.78530  0.09225  1.0000 -0.2002579463
C   C77       1.0  0.79250  0.86410  0.11390  1.0000 -0.0910343916
C   C78       1.0  0.84060  0.58760  0.02170  1.0000 -0.0975529314
C   C79       1.0  0.79300  0.53210  0.98930  1.0000 -0.0110705518
C   C80       1.0  0.71370  0.64640  0.00218  1.0000 0.2005898734
C   C81       1.0  0.21270  0.14940  0.87630  1.0000 0.5400974504
C   C82       1.0  0.24750  0.23300  0.90166  1.0000 -0.0224256696
C   C83       1.0  0.19830  0.27990  0.93980  1.0000 -0.0755632878
C   C84       1.0  0.22660  0.35820  0.96168  1.0000 -0.1841321816
C   C85       1.0  0.30780  0.38900  0.94448  1.0000 0.1575807049
C   C86       1.0  0.35930  0.34420  0.90590  1.0000 -0.1930823144
C   C87       1.0  0.32790  0.26600  0.88500  1.0000 -0.0910343916
C   C88       1.0  0.29300  0.54490  0.97050  1.0000 -0.0910343916
C   C89       1.0  0.34410  0.60290  0.99870  1.0000 -0.0043187867
C   C90       1.0  0.41510  0.48230  0.99645  1.0000 0.2005898734
C   C91       1.0  0.98070  0.90780  0.87488  1.0000 0.5325516961
C   C92       1.0  0.89600  0.87510  0.89878  1.0000 -0.0224256696
C   C93       1.0  0.84700  0.92990  0.93360  1.0000 -0.0910343916
C   C94       1.0  0.76890  0.90140  0.95673  1.0000 -0.1930823144
C   C95       1.0  0.73850  0.81830  0.94371  1.0000 0.1652559485
C   C96       1.0  0.78530  0.76320  0.90775  1.0000 -0.2002579463
C   C97       1.0  0.86410  0.79250  0.88610  1.0000 -0.0910343916
C   C98       1.0  0.58760  0.84060  0.97830  1.0000 -0.0975529314
C   C99       1.0  0.53210  0.79300  0.01070  1.0000 -0.0110705518
C   C100      1.0  0.64640  0.71370  0.99782  1.0000 0.2005898734
C   C101      1.0  0.78730  0.85060  0.37630  1.0000 0.5400974504
C   C102      1.0  0.75250  0.76700  0.40166  1.0000 -0.0224256696
C   C103      1.0  0.80170  0.72010  0.43980  1.0000 -0.0755632878
C   C104      1.0  0.77340  0.64180  0.46168  1.0000 -0.1841321816
C   C105      1.0  0.69220  0.61100  0.44448  1.0000 0.1575807049
C   C106      1.0  0.64070  0.65580  0.40590  1.0000 -0.1930823144
C   C107      1.0  0.67210  0.73400  0.38500  1.0000 -0.0910343916
C   C108      1.0  0.70700  0.45510  0.47050  1.0000 -0.0910343916
C   C109      1.0  0.65590  0.39710  0.49870  1.0000 -0.0043187867
C   C110      1.0  0.58490  0.51770  0.49645  1.0000 0.2005898734
C   C111      1.0  0.01930  0.09220  0.37488  1.0000 0.5325516961
C   C112      1.0  0.10400  0.12490  0.39878  1.0000 -0.0224256696
C   C113      1.0  0.15300  0.07010  0.43360  1.0000 -0.0910343916
C   C114      1.0  0.23110  0.09860  0.45673  1.0000 -0.1930823144
C   C115      1.0  0.26150  0.18170  0.44371  1.0000 0.1652559485
C   C116      1.0  0.21470  0.23680  0.40775  1.0000 -0.2002579463
C   C117      1.0  0.13590  0.20750  0.38610  1.0000 -0.0910343916
C   C118      1.0  0.41240  0.15940  0.47830  1.0000 -0.0975529314
C   C119      1.0  0.46790  0.20700  0.51070  1.0000 -0.0110705518
C   C120      1.0  0.35360  0.28630  0.49782  1.0000 0.2005898734
C   C121      1.0  0.64940  0.28730  0.62630  1.0000 0.5400974504
C   C122      1.0  0.73300  0.25250  0.65166  1.0000 -0.0224256696
C   C123      1.0  0.77990  0.30170  0.68980  1.0000 -0.0755632878
C   C124      1.0  0.85820  0.27340  0.71168  1.0000 -0.1841321816
C   C125      1.0  0.88900  0.19220  0.69448  1.0000 0.1575807049
C   C126      1.0  0.84420  0.14070  0.65590  1.0000 -0.1930823144
C   C127      1.0  0.76600  0.17210  0.63500  1.0000 -0.0910343916
C   C128      1.0  0.04490  0.20700  0.72050  1.0000 -0.0910343916
C   C129      1.0  0.10290  0.15590  0.74870  1.0000 -0.0043187867
C   C130      1.0  0.98230  0.08490  0.74645  1.0000 0.2005898734
C   C131      1.0  0.40780  0.51930  0.62488  1.0000 0.5325516961
C   C132      1.0  0.37510  0.60400  0.64878  1.0000 -0.0224256696
C   C133      1.0  0.42990  0.65300  0.68360  1.0000 -0.0910343916
C   C134      1.0  0.40140  0.73110  0.70673  1.0000 -0.1930823144
C   C135      1.0  0.31830  0.76150  0.69371  1.0000 0.1652559485
C   C136      1.0  0.26320  0.71470  0.65775  1.0000 -0.2002579463
C   C137      1.0  0.29250  0.63590  0.63610  1.0000 -0.0910343916
C   C138      1.0  0.34060  0.91240  0.72830  1.0000 -0.0975529314
C   C139      1.0  0.29300  0.96790  0.76070  1.0000 -0.0110705518
C   C140      1.0  0.21370  0.85360  0.74782  1.0000 0.2005898734
C   C141      1.0  0.35060  0.71270  0.12630  1.0000 0.5400974504
C   C142      1.0  0.26700  0.74750  0.15166  1.0000 -0.0224256696
C   C143      1.0  0.22010  0.69830  0.18980  1.0000 -0.0755632878
C   C144      1.0  0.14180  0.72660  0.21168  1.0000 -0.1841321816
C   C145      1.0  0.11100  0.80780  0.19448  1.0000 0.1575807049
C   C146      1.0  0.15580  0.85930  0.15590  1.0000 -0.1930823144
C   C147      1.0  0.23400  0.82790  0.13500  1.0000 -0.0910343916
C   C148      1.0  0.95510  0.79300  0.22050  1.0000 -0.0910343916
C   C149      1.0  0.89710  0.84410  0.24870  1.0000 -0.0043187867
C   C150      1.0  0.01770  0.91510  0.24645  1.0000 0.2005898734
C   C151      1.0  0.59220  0.48070  0.12488  1.0000 0.5325516961
C   C152      1.0  0.62490  0.39600  0.14878  1.0000 -0.0224256696
C   C153      1.0  0.57010  0.34700  0.18360  1.0000 -0.0910343916
C   C154      1.0  0.59860  0.26890  0.20673  1.0000 -0.1930823144
C   C155      1.0  0.68170  0.23850  0.19371  1.0000 0.1652559485
C   C156      1.0  0.73680  0.28530  0.15775  1.0000 -0.2002579463
C   C157      1.0  0.70750  0.36410  0.13610  1.0000 -0.0910343916
C   C158      1.0  0.65940  0.08760  0.22830  1.0000 -0.0975529314
C   C159      1.0  0.70700  0.03210  0.26070  1.0000 -0.0110705518
C   C160      1.0  0.78630  0.14640  0.24782  1.0000 0.2005898734
N   N1        1.0  0.83980  0.28960  0.28020  1.0000 -0.0224256696
N   N2        1.0  0.93050  0.21350  0.22693  1.0000 -0.3183728703
N   N3        1.0  0.16170  0.96890  0.28118  1.0000 -0.0224256696
N   N4        1.0  0.08010  0.06310  0.23476  1.0000 -0.3183728703
N   N5        1.0  0.16020  0.71040  0.78020  1.0000 -0.0224256696
N   N6        1.0  0.06950  0.78650  0.72693  1.0000 -0.3183728703
N   N7        1.0  0.83830  0.03110  0.78118  1.0000 -0.0224256696
N   N8        1.0  0.91990  0.93690  0.73476  1.0000 -0.3183728703
N   N9        1.0  0.21040  0.33980  0.53020  1.0000 -0.0224256696
N   N10       1.0  0.28650  0.43050  0.47693  1.0000 -0.3183728703
N   N11       1.0  0.53110  0.66170  0.53118  1.0000 -0.0224256696
N   N12       1.0  0.43690  0.58010  0.48476  1.0000 -0.3183728703
N   N13       1.0  0.78960  0.66020  0.03020  1.0000 -0.0224256696
N   N14       1.0  0.71350  0.56950  0.97693  1.0000 -0.3183728703
N   N15       1.0  0.46890  0.33830  0.03118  1.0000 -0.0224256696
N   N16       1.0  0.56310  0.41990  0.98476  1.0000 -0.3183728703
N   N17       1.0  0.66020  0.78960  0.96980  1.0000 -0.0224256696
N   N18       1.0  0.56950  0.71350  0.02307  1.0000 -0.3183728703
N   N19       1.0  0.33830  0.46890  0.96882  1.0000 -0.0224256696
N   N20       1.0  0.41990  0.56310  0.01524  1.0000 -0.3183728703
N   N21       1.0  0.33980  0.21040  0.46980  1.0000 -0.0224256696
N   N22       1.0  0.43050  0.28650  0.52307  1.0000 -0.3183728703
N   N23       1.0  0.66170  0.53110  0.46882  1.0000 -0.0224256696
N   N24       1.0  0.58010  0.43690  0.51524  1.0000 -0.3183728703
N   N25       1.0  0.28960  0.83980  0.71980  1.0000 -0.0224256696
N   N26       1.0  0.21350  0.93050  0.77307  1.0000 -0.3183728703
N   N27       1.0  0.96890  0.16170  0.71882  1.0000 -0.0224256696
N   N28       1.0  0.06310  0.08010  0.76524  1.0000 -0.3183728703
N   N29       1.0  0.71040  0.16020  0.21980  1.0000 -0.0224256696
N   N30       1.0  0.78650  0.06950  0.27307  1.0000 -0.3183728703
N   N31       1.0  0.03110  0.83830  0.21882  1.0000 -0.0224256696
N   N32       1.0  0.93690  0.91990  0.26524  1.0000 -0.3183728703
O   O1        1.0  0.35910  0.62150  0.35631  1.0000 -0.532621453
O   O2        1.0  0.24440  0.61300  0.41133  1.0000 -0.5717066624
O   O3        1.0  0.50530  0.48840  0.37023  1.0000 -0.5488329926
O   O4        1.0  0.46800  0.35560  0.39774  1.0000 -0.5633407929
O   O5        1.0  0.64090  0.37850  0.85631  1.0000 -0.532621453
O   O6        1.0  0.75560  0.38700  0.91133  1.0000 -0.5717066624
O   O7        1.0  0.49470  0.51160  0.87023  1.0000 -0.5488329926
O   O8        1.0  0.53200  0.64440  0.89774  1.0000 -0.5633407929
O   O9        1.0  0.87850  0.85910  0.60631  1.0000 -0.532621453
O   O10       1.0  0.88700  0.74440  0.66133  1.0000 -0.5717066624
O   O11       1.0  0.01160  0.00530  0.62023  1.0000 -0.5488329926
O   O12       1.0  0.14440  0.96800  0.64774  1.0000 -0.5633407929
O   O13       1.0  0.12150  0.14090  0.10631  1.0000 -0.532621453
O   O14       1.0  0.11300  0.25560  0.16133  1.0000 -0.5717066624
O   O15       1.0  0.98840  0.99470  0.12023  1.0000 -0.5488329926
O   O16       1.0  0.85560  0.03200  0.14774  1.0000 -0.5633407929
O   O17       1.0  0.14090  0.12150  0.89369  1.0000 -0.532621453
O   O18       1.0  0.25560  0.11300  0.83867  1.0000 -0.5717066624
O   O19       1.0  0.99470  0.98840  0.87977  1.0000 -0.5488329926
O   O20       1.0  0.03200  0.85560  0.85226  1.0000 -0.5633407929
O   O21       1.0  0.85910  0.87850  0.39369  1.0000 -0.532621453
O   O22       1.0  0.74440  0.88700  0.33867  1.0000 -0.5717066624
O   O23       1.0  0.00530  0.01160  0.37977  1.0000 -0.5488329926
O   O24       1.0  0.96800  0.14440  0.35226  1.0000 -0.5633407929
O   O25       1.0  0.62150  0.35910  0.64369  1.0000 -0.532621453
O   O26       1.0  0.61300  0.24440  0.58867  1.0000 -0.5717066624
O   O27       1.0  0.48840  0.50530  0.62977  1.0000 -0.5488329926
O   O28       1.0  0.35560  0.46800  0.60226  1.0000 -0.5633407929
O   O29       1.0  0.37850  0.64090  0.14369  1.0000 -0.532621453
O   O30       1.0  0.38700  0.75560  0.08867  1.0000 -0.5717066624
O   O31       1.0  0.51160  0.49470  0.12977  1.0000 -0.5488329926
O   O32       1.0  0.64440  0.53200  0.10226  1.0000 -0.5633407929
