# DDEC6 charges by PACMAN v1.1 (https://github.com/mtap-research/PACMAN-charge/)
data_2020[Zn][dmc]3[ASR]1
_chemical_formula_sum              "Zn4 H20 C24 N16 O8"
_cell_length_a       9.9003
_cell_length_b       9.6051
_cell_length_c       13.6761
_cell_angle_alpha    90
_cell_angle_beta     109.18
_cell_angle_gamma    90

_symmetry_space_group_name_H-M    "P 1"
_symmetry_Int_Tables_number       1

loop_
  _symmetry_equiv_pos_as_xyz
  'x, y, z'

loop_
  _atom_site_type_symbol
  _atom_site_label
  _atom_site_symmetry_multiplicity
  _atom_site_fract_x
  _atom_site_fract_y
  _atom_site_fract_z
  _atom_site_occupancy
  _atom_site_charge
Zn  Zn1       1.0  0.34223  0.92663  0.40213  1.0000 0.6643476584
Zn  Zn2       1.0  0.15777  0.42663  0.59787  1.0000 0.6643476584
Zn  Zn3       1.0  0.65777  0.07337  0.59787  1.0000 0.6643476584
Zn  Zn4       1.0  0.84223  0.57337  0.40213  1.0000 0.6643476584
H   H1        1.0  0.52890  0.68470  0.34680  1.0000 0.1289717355
H   H2        1.0  0.86210  0.85280  0.54260  1.0000 0.12105454
H   H3        1.0  0.97100  0.06650  0.15480  1.0000 0.12105454
H   H4        1.0  0.75620  0.18380  0.06110  1.0000 0.2971035936
H   H5        1.0  0.70080  0.18790  0.94590  1.0000 0.305604952
H   H6        1.0  0.97110  0.18470  0.65320  1.0000 0.1289717355
H   H7        1.0  0.63790  0.35280  0.45740  1.0000 0.12105454
H   H8        1.0  0.52900  0.56650  0.84520  1.0000 0.12105454
H   H9        1.0  0.74380  0.68380  0.93890  1.0000 0.2971035936
H   H10       1.0  0.79920  0.68790  0.05410  1.0000 0.305604952
H   H11       1.0  0.47110  0.31530  0.65320  1.0000 0.1289717355
H   H12       1.0  0.13790  0.14720  0.45740  1.0000 0.12105454
H   H13       1.0  0.02900  0.93350  0.84520  1.0000 0.12105454
H   H14       1.0  0.24380  0.81620  0.93890  1.0000 0.2971035936
H   H15       1.0  0.29920  0.81210  0.05410  1.0000 0.305604952
H   H16       1.0  0.02890  0.81530  0.34680  1.0000 0.1289717355
H   H17       1.0  0.36210  0.64720  0.54260  1.0000 0.12105454
H   H18       1.0  0.47100  0.43350  0.15480  1.0000 0.12105454
H   H19       1.0  0.25620  0.31620  0.06110  1.0000 0.2971035936
H   H20       1.0  0.20080  0.31210  0.94590  1.0000 0.305604952
C   C1        1.0  0.58780  0.74530  0.39530  1.0000 0.1584410766
C   C2        1.0  0.76800  0.83550  0.50180  1.0000 0.1508933404
C   C3        1.0  0.20810  0.92400  0.19680  1.0000 0.5672527352
C   C4        1.0  0.10030  0.96170  0.09430  1.0000 -0.1071246373
C   C5        1.0  0.98270  0.04050  0.09260  1.0000 -0.2158592841
C   C6        1.0  0.88060  0.08230  0.99900  1.0000 0.2294301116
C   C7        1.0  0.91220  0.24530  0.60470  1.0000 0.1584410766
C   C8        1.0  0.73200  0.33550  0.49820  1.0000 0.1508933404
C   C9        1.0  0.29190  0.42400  0.80320  1.0000 0.5672527352
C   C10       1.0  0.39970  0.46170  0.90570  1.0000 -0.1071246373
C   C11       1.0  0.51730  0.54050  0.90740  1.0000 -0.2158592841
C   C12       1.0  0.61940  0.58230  0.00100  1.0000 0.2294301116
C   C13       1.0  0.41220  0.25470  0.60470  1.0000 0.1584410766
C   C14       1.0  0.23200  0.16450  0.49820  1.0000 0.1508933404
C   C15       1.0  0.79190  0.07600  0.80320  1.0000 0.5672527352
C   C16       1.0  0.89970  0.03830  0.90570  1.0000 -0.1071246373
C   C17       1.0  0.01730  0.95950  0.90740  1.0000 -0.2158592841
C   C18       1.0  0.11940  0.91770  0.00100  1.0000 0.2294301116
C   C19       1.0  0.08780  0.75470  0.39530  1.0000 0.1584410766
C   C20       1.0  0.26800  0.66450  0.50180  1.0000 0.1508933404
C   C21       1.0  0.70810  0.57600  0.19680  1.0000 0.5672527352
C   C22       1.0  0.60030  0.53830  0.09430  1.0000 -0.1071246373
C   C23       1.0  0.48270  0.45950  0.09260  1.0000 -0.2158592841
C   C24       1.0  0.38060  0.41770  0.99900  1.0000 0.2294301116
N   N1        1.0  0.72850  0.72890  0.43560  1.0000 -0.3164267815
N   N2        1.0  0.65920  0.91310  0.50270  1.0000 -0.1986695206
N   N3        1.0  0.53970  0.85620  0.43080  1.0000 -0.1986695206
N   N4        1.0  0.76400  0.16100  0.00250  1.0000 -0.5984423062
N   N5        1.0  0.77150  0.22890  0.56440  1.0000 -0.3164267815
N   N6        1.0  0.84080  0.41310  0.49730  1.0000 -0.1986695206
N   N7        1.0  0.96030  0.35620  0.56920  1.0000 -0.1986695206
N   N8        1.0  0.73600  0.66100  0.99750  1.0000 -0.5984423062
N   N9        1.0  0.27150  0.27110  0.56440  1.0000 -0.3164267815
N   N10       1.0  0.34080  0.08690  0.49730  1.0000 -0.1986695206
N   N11       1.0  0.46030  0.14380  0.56920  1.0000 -0.1986695206
N   N12       1.0  0.23600  0.83900  0.99750  1.0000 -0.5984423062
N   N13       1.0  0.22850  0.77110  0.43560  1.0000 -0.3164267815
N   N14       1.0  0.15920  0.58690  0.50270  1.0000 -0.1986695206
N   N15       1.0  0.03970  0.64380  0.43080  1.0000 -0.1986695206
N   N16       1.0  0.26400  0.33900  0.00250  1.0000 -0.5984423062
O   O1        1.0  0.29060  0.82540  0.20620  1.0000 -0.5508151403
O   O2        1.0  0.20900  0.00150  0.27250  1.0000 -0.5581470928
O   O3        1.0  0.20940  0.32540  0.79380  1.0000 -0.5508151403
O   O4        1.0  0.29100  0.50150  0.72750  1.0000 -0.5581470928
O   O5        1.0  0.70940  0.17460  0.79380  1.0000 -0.5508151403
O   O6        1.0  0.79100  0.99850  0.72750  1.0000 -0.5581470928
O   O7        1.0  0.79060  0.67460  0.20620  1.0000 -0.5508151403
O   O8        1.0  0.70900  0.49850  0.27250  1.0000 -0.5581470928
