# DDEC6 charges by PACMAN v1.1 (https://github.com/mtap-research/PACMAN-charge/)
data_2020[Cd][sql]2[ASR]8
_chemical_formula_sum              "Cd2 H40 C56 N12 O12"
_cell_length_a       10.0911
_cell_length_b       10.4145
_cell_length_c       17.7975
_cell_angle_alpha    81.709
_cell_angle_beta     79.727
_cell_angle_gamma    75.01

_symmetry_space_group_name_H-M    "P 1"
_symmetry_Int_Tables_number       1

loop_
  _symmetry_equiv_pos_as_xyz
  'x, y, z'

loop_
  _atom_site_type_symbol
  _atom_site_label
  _atom_site_symmetry_multiplicity
  _atom_site_fract_x
  _atom_site_fract_y
  _atom_site_fract_z
  _atom_site_occupancy
  _atom_site_charge
Cd  Cd1       1.0  0.09623  0.10233  0.05303  1.0000 0.8589705146
Cd  Cd2       1.0  0.90377  0.89767  0.94697  1.0000 0.8589705146
H   H1        1.0  0.89604  0.82640  0.70707  1.0000 0.1188346884
H   H2        1.0  0.80986  0.28195  0.11195  1.0000 0.1188346884
H   H3        1.0  0.09072  0.57777  0.05313  1.0000 0.1292277026
H   H4        1.0  0.55202  0.90626  0.86973  1.0000 0.1402462613
H   H5        1.0  0.45645  0.83926  0.44690  1.0000 0.1088797546
H   H6        1.0  0.78089  0.92700  0.29629  1.0000 0.1292277026
H   H7        1.0  0.29240  0.32251  0.21378  1.0000 0.1088797546
H   H8        1.0  0.98853  0.11546  0.59645  1.0000 0.1188346884
H   H9        1.0  0.37382  0.91184  0.97164  1.0000 0.1088797546
H   H10       1.0  0.34851  0.50158  0.25657  1.0000 0.1188346884
H   H11       1.0  0.10791  0.71213  0.62593  1.0000 0.1292277026
H   H12       1.0  0.97538  0.92406  0.20335  1.0000 0.1088797546
H   H13       1.0  0.30766  0.71803  0.53768  1.0000 0.1292277026
H   H14       1.0  0.39166  0.29182  0.81288  1.0000 0.1402462613
H   H15       1.0  0.18436  0.12274  0.50797  1.0000 0.1188346884
H   H16       1.0  0.28009  0.71675  0.19552  1.0000 0.1088797546
H   H17       1.0  0.61360  0.29710  0.20313  1.0000 0.1402462613
H   H18       1.0  0.21596  0.28651  0.91415  1.0000 0.1188346884
H   H19       1.0  0.72000  0.93900  0.78300  1.0000 0.2682514108
H   H20       1.0  0.58800  0.94200  0.36300  1.0000 0.254792235
H   H21       1.0  0.10396  0.17360  0.29293  1.0000 0.1188346884
H   H22       1.0  0.19014  0.71805  0.88805  1.0000 0.1188346884
H   H23       1.0  0.90928  0.42223  0.94687  1.0000 0.1292277026
H   H24       1.0  0.44798  0.09374  0.13027  1.0000 0.1402462613
H   H25       1.0  0.54355  0.16074  0.55310  1.0000 0.1088797546
H   H26       1.0  0.21911  0.07300  0.70371  1.0000 0.1292277026
H   H27       1.0  0.70760  0.67749  0.78622  1.0000 0.1088797546
H   H28       1.0  0.01147  0.88454  0.40355  1.0000 0.1188346884
H   H29       1.0  0.62618  0.08816  0.02836  1.0000 0.1088797546
H   H30       1.0  0.65149  0.49842  0.74343  1.0000 0.1188346884
H   H31       1.0  0.89209  0.28787  0.37407  1.0000 0.1292277026
H   H32       1.0  0.02462  0.07594  0.79665  1.0000 0.1088797546
H   H33       1.0  0.69234  0.28197  0.46232  1.0000 0.1292277026
H   H34       1.0  0.60834  0.70818  0.18712  1.0000 0.1402462613
H   H35       1.0  0.81564  0.87726  0.49203  1.0000 0.1188346884
H   H36       1.0  0.71991  0.28325  0.80448  1.0000 0.1088797546
H   H37       1.0  0.38640  0.70290  0.79687  1.0000 0.1402462613
H   H38       1.0  0.78404  0.71349  0.08585  1.0000 0.1188346884
H   H39       1.0  0.28000  0.06100  0.21700  1.0000 0.2682514108
H   H40       1.0  0.41200  0.05800  0.63700  1.0000 0.254792235
C   C1        1.0  0.90670  0.90890  0.67908  1.0000 -0.0012556351
C   C2        1.0  0.80410  0.20890  0.15010  1.0000 0.081023247
C   C3        1.0  0.14380  0.56210  0.09400  1.0000 -0.1235736244
C   C4        1.0  0.48380  0.98720  0.87750  1.0000 -0.1830692523
C   C5        1.0  0.02880  0.91360  0.62071  1.0000 0.081023247
C   C6        1.0  0.18600  0.43300  0.13007  1.0000 -0.0240746056
C   C7        1.0  0.14090  0.80820  0.07977  1.0000 0.5546721137
C   C8        1.0  0.49130  0.09950  0.82925  1.0000 0.0268698737
C   C9        1.0  0.38930  0.92040  0.45570  1.0000 -0.0012556351
C   C10       1.0  0.59860  0.11170  0.75957  1.0000 0.4275260932
C   C11       1.0  0.18020  0.66720  0.11849  1.0000 -0.0305491815
C   C12       1.0  0.15030  0.31650  0.10347  1.0000 0.540663085
C   C13       1.0  0.78430  0.00180  0.25920  1.0000 -0.1855600559
C   C14       1.0  0.26300  0.41060  0.18985  1.0000 -0.1073957355
C   C15       1.0  0.05340  0.03450  0.58440  1.0000 -0.1309049188
C   C16       1.0  0.37590  0.99130  0.93810  1.0000 0.0653768546
C   C17       1.0  0.67470  0.11300  0.26000  1.0000 0.0268698737
C   C18       1.0  0.29720  0.51660  0.21490  1.0000 -0.0864787259
C   C19       1.0  0.12400  0.79560  0.60220  1.0000 -0.1473757856
C   C20       1.0  0.26580  0.92020  0.51280  1.0000 0.081023247
C   C21       1.0  0.54240  0.13000  0.31680  1.0000 0.4396148539
C   C22       1.0  0.89980  0.00060  0.20320  1.0000 0.081023247
C   C23       1.0  0.24230  0.79900  0.54920  1.0000 -0.1434897963
C   C24       1.0  0.39020  0.21040  0.84450  1.0000 -0.1633118325
C   C25       1.0  0.16920  0.03900  0.53180  1.0000 -0.1434897963
C   C26       1.0  0.25610  0.64420  0.17880  1.0000 -0.1073957355
C   C27       1.0  0.68650  0.21830  0.20420  1.0000 -0.1689836764
C   C28       1.0  0.28540  0.20670  0.90540  1.0000 0.0644485346
C   C29       1.0  0.09330  0.09110  0.32092  1.0000 -0.0012556351
C   C30       1.0  0.19590  0.79110  0.84990  1.0000 0.081023247
C   C31       1.0  0.85620  0.43790  0.90600  1.0000 -0.1235736244
C   C32       1.0  0.51620  0.01280  0.12250  1.0000 -0.1830692523
C   C33       1.0  0.97120  0.08640  0.37929  1.0000 0.081023247
C   C34       1.0  0.81400  0.56700  0.86993  1.0000 -0.0240746056
C   C35       1.0  0.85910  0.19180  0.92023  1.0000 0.5546721137
C   C36       1.0  0.50870  0.90050  0.17075  1.0000 0.0268698737
C   C37       1.0  0.61070  0.07960  0.54430  1.0000 -0.0012556351
C   C38       1.0  0.40140  0.88830  0.24043  1.0000 0.4275260932
C   C39       1.0  0.81980  0.33280  0.88151  1.0000 -0.0305491815
C   C40       1.0  0.84970  0.68350  0.89653  1.0000 0.540663085
C   C41       1.0  0.21570  0.99820  0.74080  1.0000 -0.1855600559
C   C42       1.0  0.73700  0.58940  0.81015  1.0000 -0.1073957355
C   C43       1.0  0.94660  0.96550  0.41560  1.0000 -0.1309049188
C   C44       1.0  0.62410  0.00870  0.06190  1.0000 0.0653768546
C   C45       1.0  0.32530  0.88700  0.74000  1.0000 0.0268698737
C   C46       1.0  0.70280  0.48340  0.78510  1.0000 -0.0864787259
C   C47       1.0  0.87600  0.20440  0.39780  1.0000 -0.1473757856
C   C48       1.0  0.73420  0.07980  0.48720  1.0000 0.081023247
C   C49       1.0  0.45760  0.87000  0.68320  1.0000 0.4396148539
C   C50       1.0  0.10020  0.99940  0.79680  1.0000 0.081023247
C   C51       1.0  0.75770  0.20100  0.45080  1.0000 -0.1434897963
C   C52       1.0  0.60980  0.78960  0.15550  1.0000 -0.1633118325
C   C53       1.0  0.83080  0.96100  0.46820  1.0000 -0.1473757856
C   C54       1.0  0.74390  0.35580  0.82120  1.0000 -0.1073957355
C   C55       1.0  0.31350  0.78170  0.79580  1.0000 -0.1689836764
C   C56       1.0  0.71460  0.79330  0.09460  1.0000 0.0644485346
N   N1        1.0  0.90910  0.10230  0.14932  1.0000 -0.2190160461
N   N2        1.0  0.40680  0.03070  0.41730  1.0000 -0.1309049188
N   N3        1.0  0.27670  0.09800  0.95205  1.0000 -0.2124717616
N   N4        1.0  0.70780  0.00420  0.75035  1.0000 -0.2190160461
N   N5        1.0  0.52590  0.01950  0.36455  1.0000 -0.2485851877
N   N6        1.0  0.81480  0.01700  0.69182  1.0000 -0.1309049188
N   N7        1.0  0.09090  0.89770  0.85068  1.0000 -0.2190160461
N   N8        1.0  0.59320  0.96930  0.58270  1.0000 -0.1309049188
N   N9        1.0  0.72330  0.90200  0.04795  1.0000 -0.2124717616
N   N10       1.0  0.29220  0.99580  0.24965  1.0000 -0.2190160461
N   N11       1.0  0.47410  0.98050  0.63545  1.0000 -0.2485851877
N   N12       1.0  0.18520  0.98300  0.30818  1.0000 -0.1309049188
O   O1        1.0  0.07220  0.33620  0.05425  1.0000 -0.5372908198
O   O2        1.0  0.20470  0.19950  0.13190  1.0000 -0.5912723624
O   O3        1.0  0.19720  0.89190  0.09747  1.0000 -0.555219897
O   O4        1.0  0.05640  0.83530  0.03362  1.0000 -0.5736380898
O   O5        1.0  0.58450  0.21320  0.71509  1.0000 -0.4494911217
O   O6        1.0  0.45810  0.23670  0.31707  1.0000 -0.4292867713
O   O7        1.0  0.92780  0.66380  0.94575  1.0000 -0.5372908198
O   O8        1.0  0.79530  0.80050  0.86810  1.0000 -0.5912723624
O   O9        1.0  0.80280  0.10810  0.90253  1.0000 -0.555219897
O   O10       1.0  0.94360  0.16470  0.96638  1.0000 -0.5736380898
O   O11       1.0  0.41550  0.78680  0.28491  1.0000 -0.4494911217
O   O12       1.0  0.54190  0.76330  0.68293  1.0000 -0.4292867713
