# DDEC6 charges by PACMAN v1.1 (https://github.com/mtap-research/PACMAN-charge/)
data_2020[Cd][dia]3[ASR]1
_chemical_formula_sum              "Cd4 H40 C32 N16"
_cell_length_a       9.4264
_cell_length_b       10.0807
_cell_length_c       16.7415
_cell_angle_alpha    90
_cell_angle_beta     90
_cell_angle_gamma    90

_symmetry_space_group_name_H-M    "P 1"
_symmetry_Int_Tables_number       1

loop_
  _symmetry_equiv_pos_as_xyz
  'x, y, z'

loop_
  _atom_site_type_symbol
  _atom_site_label
  _atom_site_symmetry_multiplicity
  _atom_site_fract_x
  _atom_site_fract_y
  _atom_site_fract_z
  _atom_site_occupancy
  _atom_site_charge
Cd  Cd1       1.0  0.83490  0.49960  0.62980  1.0000 0.7549291117
Cd  Cd2       1.0  0.33490  0.50040  0.37020  1.0000 0.7551470262
Cd  Cd3       1.0  0.83490  0.99960  0.87020  1.0000 0.7549291117
Cd  Cd4       1.0  0.33490  0.00040  0.12980  1.0000 0.7549291117
H   H1        1.0  0.54159  0.84908  0.77790  1.0000 0.1181514653
H   H2        1.0  0.55195  0.65931  0.69015  1.0000 0.1181514653
H   H3        1.0  0.03328  0.67701  0.72807  1.0000 0.1425135427
H   H4        1.0  0.01979  0.73299  0.81193  1.0000 0.1425135427
H   H5        1.0  0.03404  0.82608  0.74107  1.0000 0.1477837948
H   H6        1.0  0.50730  0.24975  0.46801  1.0000 0.1181514653
H   H7        1.0  0.68617  0.25717  0.57149  1.0000 0.1181514653
H   H8        1.0  0.55750  0.70392  0.45531  1.0000 0.1425135427
H   H9        1.0  0.70559  0.70416  0.49102  1.0000 0.1477837948
H   H10       1.0  0.57685  0.71598  0.54507  1.0000 0.1425135427
H   H11       1.0  0.04159  0.15092  0.22210  1.0000 0.1181514653
H   H12       1.0  0.05195  0.34069  0.30985  1.0000 0.1181514653
H   H13       1.0  0.53328  0.32299  0.27193  1.0000 0.1425135427
H   H14       1.0  0.51979  0.26701  0.18807  1.0000 0.1425135427
H   H15       1.0  0.53404  0.17392  0.25893  1.0000 0.1477837948
H   H16       1.0  0.00730  0.75025  0.53199  1.0000 0.1181514653
H   H17       1.0  0.18617  0.74283  0.42851  1.0000 0.1181514653
H   H18       1.0  0.05750  0.29608  0.54469  1.0000 0.1425135427
H   H19       1.0  0.20559  0.29584  0.50898  1.0000 0.1477837948
H   H20       1.0  0.07685  0.28402  0.45493  1.0000 0.1425135427
H   H21       1.0  0.54159  0.34908  0.72210  1.0000 0.1181514653
H   H22       1.0  0.55195  0.15931  0.80985  1.0000 0.1181514653
H   H23       1.0  0.03328  0.17701  0.77193  1.0000 0.1425135427
H   H24       1.0  0.01979  0.23299  0.68807  1.0000 0.1425135427
H   H25       1.0  0.03404  0.32608  0.75893  1.0000 0.1477837948
H   H26       1.0  0.50730  0.74975  0.03199  1.0000 0.1181514653
H   H27       1.0  0.68617  0.75717  0.92851  1.0000 0.1181514653
H   H28       1.0  0.55750  0.20392  0.04469  1.0000 0.1425135427
H   H29       1.0  0.70559  0.20416  0.00898  1.0000 0.1477837948
H   H30       1.0  0.57685  0.21598  0.95493  1.0000 0.1425135427
H   H31       1.0  0.04159  0.65092  0.27790  1.0000 0.1181514653
H   H32       1.0  0.05195  0.84069  0.19015  1.0000 0.1181514653
H   H33       1.0  0.53328  0.82299  0.22807  1.0000 0.1425135427
H   H34       1.0  0.51979  0.76701  0.31193  1.0000 0.1425135427
H   H35       1.0  0.53404  0.67392  0.24107  1.0000 0.1477837948
H   H36       1.0  0.00730  0.25025  0.96801  1.0000 0.1181514653
H   H37       1.0  0.18617  0.24283  0.07149  1.0000 0.1181514653
H   H38       1.0  0.05750  0.79608  0.95531  1.0000 0.1425135427
H   H39       1.0  0.20559  0.79584  0.99102  1.0000 0.1477837948
H   H40       1.0  0.07685  0.78402  0.04507  1.0000 0.1425135427
C   C1        1.0  0.84007  0.74871  0.74989  1.0000 0.362881766
C   C2        1.0  0.62378  0.80475  0.76267  1.0000 -0.0671296656
C   C3        1.0  0.62951  0.70033  0.71403  1.0000 -0.0756350427
C   C4        1.0  0.99632  0.74594  0.75854  1.0000 -0.5100909236
C   C5        1.0  0.60676  0.53119  0.50620  1.0000 0.353387968
C   C6        1.0  0.55033  0.32622  0.48751  1.0000 -0.0622802327
C   C7        1.0  0.64899  0.33035  0.54490  1.0000 -0.1029306004
C   C8        1.0  0.61218  0.67740  0.49871  1.0000 -0.5100909236
C   C9        1.0  0.34007  0.25129  0.25011  1.0000 0.362881766
C   C10       1.0  0.12378  0.19525  0.23733  1.0000 -0.0671296656
C   C11       1.0  0.12951  0.29967  0.28597  1.0000 -0.0756350427
C   C12       1.0  0.49632  0.25406  0.24146  1.0000 -0.5100909236
C   C13       1.0  0.10676  0.46881  0.49380  1.0000 0.353387968
C   C14       1.0  0.05033  0.67378  0.51249  1.0000 -0.0622802327
C   C15       1.0  0.14899  0.66965  0.45510  1.0000 -0.1029306004
C   C16       1.0  0.11218  0.32260  0.50129  1.0000 -0.5100909236
C   C17       1.0  0.84007  0.24871  0.75011  1.0000 0.362881766
C   C18       1.0  0.62378  0.30475  0.73733  1.0000 -0.0671296656
C   C19       1.0  0.62951  0.20033  0.78597  1.0000 -0.0756350427
C   C20       1.0  0.99632  0.24594  0.74146  1.0000 -0.5100909236
C   C21       1.0  0.60676  0.03119  0.99380  1.0000 0.353387968
C   C22       1.0  0.55033  0.82622  0.01249  1.0000 -0.0622802327
C   C23       1.0  0.64899  0.83035  0.95510  1.0000 -0.1029306004
C   C24       1.0  0.61218  0.17740  0.00129  1.0000 -0.5100909236
C   C25       1.0  0.34007  0.75129  0.24989  1.0000 0.362881766
C   C26       1.0  0.12378  0.69525  0.26267  1.0000 -0.0671296656
C   C27       1.0  0.12951  0.79967  0.21403  1.0000 -0.0756350427
C   C28       1.0  0.49632  0.75406  0.25854  1.0000 -0.5100909236
C   C29       1.0  0.10676  0.96881  0.00620  1.0000 0.353387968
C   C30       1.0  0.05033  0.17378  0.98751  1.0000 -0.0622802327
C   C31       1.0  0.14899  0.16965  0.04490  1.0000 -0.1029306004
C   C32       1.0  0.11218  0.82260  0.99871  1.0000 -0.5100909236
N   N1        1.0  0.76818  0.66256  0.70558  1.0000 -0.3765219959
N   N2        1.0  0.75827  0.83714  0.78583  1.0000 -0.3765219959
N   N3        1.0  0.68802  0.46183  0.55782  1.0000 -0.335254206
N   N4        1.0  0.52166  0.45478  0.46220  1.0000 -0.3931341308
N   N5        1.0  0.26818  0.33744  0.29442  1.0000 -0.3765219959
N   N6        1.0  0.25827  0.16286  0.21417  1.0000 -0.3765219959
N   N7        1.0  0.18802  0.53817  0.44218  1.0000 -0.335254206
N   N8        1.0  0.02166  0.54522  0.53780  1.0000 -0.3931341308
N   N9        1.0  0.76818  0.16256  0.79442  1.0000 -0.3765219959
N   N10       1.0  0.75827  0.33714  0.71417  1.0000 -0.3765219959
N   N11       1.0  0.68802  0.96183  0.94218  1.0000 -0.335254206
N   N12       1.0  0.52166  0.95478  0.03780  1.0000 -0.3931341308
N   N13       1.0  0.26818  0.83744  0.20558  1.0000 -0.3765219959
N   N14       1.0  0.25827  0.66286  0.28583  1.0000 -0.3765219959
N   N15       1.0  0.18802  0.03817  0.05782  1.0000 -0.3348191219
N   N16       1.0  0.02166  0.04522  0.96220  1.0000 -0.3931341308
