# DDEC6 charges by PACMAN v1.1 (https://github.com/mtap-research/PACMAN-charge/)
data_2020[Yb][hcb]2[ASR]1
_chemical_formula_sum              "Yb8 H56 C104 N48 O56"
_cell_length_a       6.8593
_cell_length_b       20.2374
_cell_length_c       29.4468
_cell_angle_alpha    90
_cell_angle_beta     90
_cell_angle_gamma    90

_symmetry_space_group_name_H-M    "P 1"
_symmetry_Int_Tables_number       1

loop_
  _symmetry_equiv_pos_as_xyz
  'x, y, z'

loop_
  _atom_site_type_symbol
  _atom_site_label
  _atom_site_symmetry_multiplicity
  _atom_site_fract_x
  _atom_site_fract_y
  _atom_site_fract_z
  _atom_site_occupancy
  _atom_site_charge
Yb  Yb1       1.0  0.28420  0.63942  0.09228  1.0000 1.9868977164
Yb  Yb2       1.0  0.21580  0.86058  0.59228  1.0000 1.9868977164
Yb  Yb3       1.0  0.71580  0.63942  0.59228  1.0000 1.9868977164
Yb  Yb4       1.0  0.78420  0.86058  0.09228  1.0000 1.9868977164
Yb  Yb5       1.0  0.28420  0.36058  0.40772  1.0000 1.9868977164
Yb  Yb6       1.0  0.21580  0.13942  0.90772  1.0000 1.9868977164
Yb  Yb7       1.0  0.71580  0.36058  0.90772  1.0000 1.9868977164
Yb  Yb8       1.0  0.78420  0.13942  0.40772  1.0000 1.9868977164
H   H1        1.0  0.15430  0.58350  0.79770  1.0000 0.1481580158
H   H2        1.0  0.30560  0.54160  0.86310  1.0000 0.1359732096
H   H3        1.0  0.38470  0.61400  0.92250  1.0000 0.1481580158
H   H4        1.0  0.26050  0.83360  0.89610  1.0000 0.1291421895
H   H5        1.0  0.36350  0.87960  0.97120  1.0000 0.1588523659
H   H6        1.0  0.06050  0.80850  0.79440  1.0000 0.1291421895
H   H7        1.0  0.92330  0.81790  0.71600  1.0000 0.1588523659
H   H8        1.0  0.34570  0.91650  0.29770  1.0000 0.1481580158
H   H9        1.0  0.19440  0.95840  0.36310  1.0000 0.1359732096
H   H10       1.0  0.11530  0.88600  0.42250  1.0000 0.1481580158
H   H11       1.0  0.23950  0.66640  0.39610  1.0000 0.1291421895
H   H12       1.0  0.13650  0.62040  0.47120  1.0000 0.1588523659
H   H13       1.0  0.43950  0.69150  0.29440  1.0000 0.1291421895
H   H14       1.0  0.57670  0.68210  0.21600  1.0000 0.1588523659
H   H15       1.0  0.84570  0.58350  0.29770  1.0000 0.1481580158
H   H16       1.0  0.69440  0.54160  0.36310  1.0000 0.1359732096
H   H17       1.0  0.61530  0.61400  0.42250  1.0000 0.1481580158
H   H18       1.0  0.73950  0.83360  0.39610  1.0000 0.1291421895
H   H19       1.0  0.63650  0.87960  0.47120  1.0000 0.1588523659
H   H20       1.0  0.93950  0.80850  0.29440  1.0000 0.1291421895
H   H21       1.0  0.07670  0.81790  0.21600  1.0000 0.1588523659
H   H22       1.0  0.65430  0.91650  0.79770  1.0000 0.1481580158
H   H23       1.0  0.80560  0.95840  0.86310  1.0000 0.1359732096
H   H24       1.0  0.88470  0.88600  0.92250  1.0000 0.1481580158
H   H25       1.0  0.76050  0.66640  0.89610  1.0000 0.1291421895
H   H26       1.0  0.86350  0.62040  0.97120  1.0000 0.1588523659
H   H27       1.0  0.56050  0.69150  0.79440  1.0000 0.1291421895
H   H28       1.0  0.42330  0.68210  0.71600  1.0000 0.1588523659
H   H29       1.0  0.15430  0.41650  0.70230  1.0000 0.1481580158
H   H30       1.0  0.30560  0.45840  0.63690  1.0000 0.1359732096
H   H31       1.0  0.38470  0.38600  0.57750  1.0000 0.1481580158
H   H32       1.0  0.26050  0.16640  0.60390  1.0000 0.1291421895
H   H33       1.0  0.36350  0.12040  0.52880  1.0000 0.1588523659
H   H34       1.0  0.06050  0.19150  0.70560  1.0000 0.1291421895
H   H35       1.0  0.92330  0.18210  0.78400  1.0000 0.1588523659
H   H36       1.0  0.34570  0.08350  0.20230  1.0000 0.1481580158
H   H37       1.0  0.19440  0.04160  0.13690  1.0000 0.1359732096
H   H38       1.0  0.11530  0.11400  0.07750  1.0000 0.1481580158
H   H39       1.0  0.23950  0.33360  0.10390  1.0000 0.1291421895
H   H40       1.0  0.13650  0.37960  0.02880  1.0000 0.1588523659
H   H41       1.0  0.43950  0.30850  0.20560  1.0000 0.1291421895
H   H42       1.0  0.57670  0.31790  0.28400  1.0000 0.1588523659
H   H43       1.0  0.84570  0.41650  0.20230  1.0000 0.1481580158
H   H44       1.0  0.69440  0.45840  0.13690  1.0000 0.1359732096
H   H45       1.0  0.61530  0.38600  0.07750  1.0000 0.1481580158
H   H46       1.0  0.73950  0.16640  0.10390  1.0000 0.1291421895
H   H47       1.0  0.63650  0.12040  0.02880  1.0000 0.1588523659
H   H48       1.0  0.93950  0.19150  0.20560  1.0000 0.1291421895
H   H49       1.0  0.07670  0.18210  0.28400  1.0000 0.1588523659
H   H50       1.0  0.65430  0.08350  0.70230  1.0000 0.1481580158
H   H51       1.0  0.80560  0.04160  0.63690  1.0000 0.1359732096
H   H52       1.0  0.88470  0.11400  0.57750  1.0000 0.1481580158
H   H53       1.0  0.76050  0.33360  0.60390  1.0000 0.1291421895
H   H54       1.0  0.86350  0.37960  0.52880  1.0000 0.1588523659
H   H55       1.0  0.56050  0.30850  0.70560  1.0000 0.1291421895
H   H56       1.0  0.42330  0.31790  0.78400  1.0000 0.1588523659
C   C1        1.0  0.13950  0.67810  0.82187  1.0000 0.2864483466
C   C2        1.0  0.18440  0.61150  0.82270  1.0000 -0.2170918341
C   C3        1.0  0.27420  0.58730  0.86100  1.0000 0.0311361049
C   C4        1.0  0.31850  0.62940  0.89619  1.0000 -0.2065110504
C   C5        1.0  0.26300  0.69490  0.89188  1.0000 0.2864483466
C   C6        1.0  0.29490  0.80910  0.92240  1.0000 -0.0431421081
C   C7        1.0  0.34980  0.83430  0.96328  1.0000 -0.1994653845
C   C8        1.0  0.38190  0.77930  0.99108  1.0000 0.0398956631
C   C9        1.0  0.44850  0.77750  0.03875  1.0000 0.6616830026
C   C10       1.0  0.02980  0.77320  0.77440  1.0000 -0.048012128
C   C11       1.0  0.95570  0.77850  0.73189  1.0000 -0.2065110504
C   C12       1.0  0.93720  0.71320  0.71635  1.0000 0.083444236
C   C13       1.0  0.86100  0.68910  0.67222  1.0000 0.5587008243
C   C14       1.0  0.36050  0.82190  0.32187  1.0000 0.2864483466
C   C15       1.0  0.31560  0.88850  0.32270  1.0000 -0.2170918341
C   C16       1.0  0.22580  0.91270  0.36100  1.0000 0.0311361049
C   C17       1.0  0.18150  0.87060  0.39619  1.0000 -0.2065110504
C   C18       1.0  0.23700  0.80510  0.39188  1.0000 0.2864483466
C   C19       1.0  0.20510  0.69090  0.42240  1.0000 -0.0431421081
C   C20       1.0  0.15020  0.66570  0.46328  1.0000 -0.1994653845
C   C21       1.0  0.11810  0.72070  0.49108  1.0000 0.0398956631
C   C22       1.0  0.05150  0.72250  0.53875  1.0000 0.6616830026
C   C23       1.0  0.47020  0.72680  0.27440  1.0000 -0.048012128
C   C24       1.0  0.54430  0.72150  0.23189  1.0000 -0.2065110504
C   C25       1.0  0.56280  0.78680  0.21635  1.0000 0.083444236
C   C26       1.0  0.63900  0.81090  0.17222  1.0000 0.5587008243
C   C27       1.0  0.86050  0.67810  0.32187  1.0000 0.2864483466
C   C28       1.0  0.81560  0.61150  0.32270  1.0000 -0.2170918341
C   C29       1.0  0.72580  0.58730  0.36100  1.0000 0.0311361049
C   C30       1.0  0.68150  0.62940  0.39619  1.0000 -0.2065110504
C   C31       1.0  0.73700  0.69490  0.39188  1.0000 0.2864483466
C   C32       1.0  0.70510  0.80910  0.42240  1.0000 -0.0431421081
C   C33       1.0  0.65020  0.83430  0.46328  1.0000 -0.1994653845
C   C34       1.0  0.61810  0.77930  0.49108  1.0000 0.0398956631
C   C35       1.0  0.55150  0.77750  0.53875  1.0000 0.6616830026
C   C36       1.0  0.97020  0.77320  0.27440  1.0000 -0.048012128
C   C37       1.0  0.04430  0.77850  0.23189  1.0000 -0.2065110504
C   C38       1.0  0.06280  0.71320  0.21635  1.0000 0.083444236
C   C39       1.0  0.13900  0.68910  0.17222  1.0000 0.5587008243
C   C40       1.0  0.63950  0.82190  0.82187  1.0000 0.2864483466
C   C41       1.0  0.68440  0.88850  0.82270  1.0000 -0.2170918341
C   C42       1.0  0.77420  0.91270  0.86100  1.0000 0.0311361049
C   C43       1.0  0.81850  0.87060  0.89619  1.0000 -0.2065110504
C   C44       1.0  0.76300  0.80510  0.89188  1.0000 0.2864483466
C   C45       1.0  0.79490  0.69090  0.92240  1.0000 -0.0431421081
C   C46       1.0  0.84980  0.66570  0.96328  1.0000 -0.1994653845
C   C47       1.0  0.88190  0.72070  0.99108  1.0000 0.0398956631
C   C48       1.0  0.94850  0.72250  0.03875  1.0000 0.6616830026
C   C49       1.0  0.52980  0.72680  0.77440  1.0000 -0.048012128
C   C50       1.0  0.45570  0.72150  0.73189  1.0000 -0.2065110504
C   C51       1.0  0.43720  0.78680  0.71635  1.0000 0.083444236
C   C52       1.0  0.36100  0.81090  0.67222  1.0000 0.5587008243
C   C53       1.0  0.13950  0.32190  0.67813  1.0000 0.2864483466
C   C54       1.0  0.18440  0.38850  0.67730  1.0000 -0.2170918341
C   C55       1.0  0.27420  0.41270  0.63900  1.0000 0.0311361049
C   C56       1.0  0.31850  0.37060  0.60381  1.0000 -0.2065110504
C   C57       1.0  0.26300  0.30510  0.60812  1.0000 0.2864483466
C   C58       1.0  0.29490  0.19090  0.57760  1.0000 -0.0431421081
C   C59       1.0  0.34980  0.16570  0.53672  1.0000 -0.1994653845
C   C60       1.0  0.38190  0.22070  0.50892  1.0000 0.0398956631
C   C61       1.0  0.44850  0.22250  0.46125  1.0000 0.6616830026
C   C62       1.0  0.02980  0.22680  0.72560  1.0000 -0.048012128
C   C63       1.0  0.95570  0.22150  0.76811  1.0000 -0.2065110504
C   C64       1.0  0.93720  0.28680  0.78365  1.0000 0.083444236
C   C65       1.0  0.86100  0.31090  0.82778  1.0000 0.5587008243
C   C66       1.0  0.36050  0.17810  0.17813  1.0000 0.2864483466
C   C67       1.0  0.31560  0.11150  0.17730  1.0000 -0.2170918341
C   C68       1.0  0.22580  0.08730  0.13900  1.0000 0.0311361049
C   C69       1.0  0.18150  0.12940  0.10381  1.0000 -0.2065110504
C   C70       1.0  0.23700  0.19490  0.10812  1.0000 0.2864483466
C   C71       1.0  0.20510  0.30910  0.07760  1.0000 -0.0431421081
C   C72       1.0  0.15020  0.33430  0.03672  1.0000 -0.1994653845
C   C73       1.0  0.11810  0.27930  0.00892  1.0000 0.0398956631
C   C74       1.0  0.05150  0.27750  0.96125  1.0000 0.6616830026
C   C75       1.0  0.47020  0.27320  0.22560  1.0000 -0.048012128
C   C76       1.0  0.54430  0.27850  0.26811  1.0000 -0.2065110504
C   C77       1.0  0.56280  0.21320  0.28365  1.0000 0.083444236
C   C78       1.0  0.63900  0.18910  0.32778  1.0000 0.5587008243
C   C79       1.0  0.86050  0.32190  0.17813  1.0000 0.2864483466
C   C80       1.0  0.81560  0.38850  0.17730  1.0000 -0.2170918341
C   C81       1.0  0.72580  0.41270  0.13900  1.0000 0.0311361049
C   C82       1.0  0.68150  0.37060  0.10381  1.0000 -0.2065110504
C   C83       1.0  0.73700  0.30510  0.10812  1.0000 0.2864483466
C   C84       1.0  0.70510  0.19090  0.07760  1.0000 -0.0431421081
C   C85       1.0  0.65020  0.16570  0.03672  1.0000 -0.1994653845
C   C86       1.0  0.61810  0.22070  0.00892  1.0000 0.0398956631
C   C87       1.0  0.55150  0.22250  0.96125  1.0000 0.6616830026
C   C88       1.0  0.97020  0.22680  0.22560  1.0000 -0.048012128
C   C89       1.0  0.04430  0.22150  0.26811  1.0000 -0.2065110504
C   C90       1.0  0.06280  0.28680  0.28365  1.0000 0.083444236
C   C91       1.0  0.13900  0.31090  0.32778  1.0000 0.5587008243
C   C92       1.0  0.63950  0.17810  0.67813  1.0000 0.2864483466
C   C93       1.0  0.68440  0.11150  0.67730  1.0000 -0.2170918341
C   C94       1.0  0.77420  0.08730  0.63900  1.0000 0.0311361049
C   C95       1.0  0.81850  0.12940  0.60381  1.0000 -0.2065110504
C   C96       1.0  0.76300  0.19490  0.60812  1.0000 0.2864483466
C   C97       1.0  0.79490  0.30910  0.57760  1.0000 -0.0431421081
C   C98       1.0  0.84980  0.33430  0.53672  1.0000 -0.1994653845
C   C99       1.0  0.88190  0.27930  0.50892  1.0000 0.0398956631
C   C100      1.0  0.94850  0.27750  0.46125  1.0000 0.6616830026
C   C101      1.0  0.52980  0.27320  0.72560  1.0000 -0.048012128
C   C102      1.0  0.45570  0.27850  0.76811  1.0000 -0.2065110504
C   C103      1.0  0.43720  0.21320  0.78365  1.0000 0.083444236
C   C104      1.0  0.36100  0.18910  0.82778  1.0000 0.5587008243
N   N1        1.0  0.17490  0.72020  0.85540  1.0000 -0.4114752913
N   N2        1.0  0.29840  0.74160  0.92623  1.0000 0.1001053929
N   N3        1.0  0.35230  0.72240  0.96900  1.0000 -0.2509895767
N   N4        1.0  0.05180  0.70730  0.78303  1.0000 0.1001053929
N   N5        1.0  0.99700  0.66920  0.74706  1.0000 -0.2434921096
N   N6        1.0  0.21300  0.50340  0.10239  1.0000 0.7222288047
N   N7        1.0  0.32510  0.77980  0.35540  1.0000 -0.4114752913
N   N8        1.0  0.20160  0.75840  0.42623  1.0000 0.1001053929
N   N9        1.0  0.14770  0.77760  0.46900  1.0000 -0.2509895767
N   N10       1.0  0.44820  0.79270  0.28303  1.0000 0.1001053929
N   N11       1.0  0.50300  0.83080  0.24706  1.0000 -0.2434921096
N   N12       1.0  0.28700  0.99660  0.60239  1.0000 0.7222288047
N   N13       1.0  0.82510  0.72020  0.35540  1.0000 -0.4114752913
N   N14       1.0  0.70160  0.74160  0.42623  1.0000 0.1001053929
N   N15       1.0  0.64770  0.72240  0.46900  1.0000 -0.2509895767
N   N16       1.0  0.94820  0.70730  0.28303  1.0000 0.1001053929
N   N17       1.0  0.00300  0.66920  0.24706  1.0000 -0.2434921096
N   N18       1.0  0.78700  0.50340  0.60239  1.0000 0.7222288047
N   N19       1.0  0.67490  0.77980  0.85540  1.0000 -0.4114752913
N   N20       1.0  0.79840  0.75840  0.92623  1.0000 0.1001053929
N   N21       1.0  0.85230  0.77760  0.96900  1.0000 -0.2509895767
N   N22       1.0  0.55180  0.79270  0.78303  1.0000 0.1001053929
N   N23       1.0  0.49700  0.83080  0.74706  1.0000 -0.2434921096
N   N24       1.0  0.71300  0.99660  0.10239  1.0000 0.7222288047
N   N25       1.0  0.17490  0.27980  0.64460  1.0000 -0.4114752913
N   N26       1.0  0.29840  0.25840  0.57377  1.0000 0.1001053929
N   N27       1.0  0.35230  0.27760  0.53100  1.0000 -0.2509895767
N   N28       1.0  0.05180  0.29270  0.71697  1.0000 0.1001053929
N   N29       1.0  0.99700  0.33080  0.75294  1.0000 -0.2434921096
N   N30       1.0  0.21300  0.49660  0.39761  1.0000 0.7222288047
N   N31       1.0  0.32510  0.22020  0.14460  1.0000 -0.4114752913
N   N32       1.0  0.20160  0.24160  0.07377  1.0000 0.1001053929
N   N33       1.0  0.14770  0.22240  0.03100  1.0000 -0.2509895767
N   N34       1.0  0.44820  0.20730  0.21697  1.0000 0.1001053929
N   N35       1.0  0.50300  0.16920  0.25294  1.0000 -0.2434921096
N   N36       1.0  0.28700  0.00340  0.89761  1.0000 0.7222288047
N   N37       1.0  0.82510  0.27980  0.14460  1.0000 -0.4114752913
N   N38       1.0  0.70160  0.25840  0.07377  1.0000 0.1001053929
N   N39       1.0  0.64770  0.27760  0.03100  1.0000 -0.2509895767
N   N40       1.0  0.94820  0.29270  0.21697  1.0000 0.1001053929
N   N41       1.0  0.00300  0.33080  0.25294  1.0000 -0.2434921096
N   N42       1.0  0.78700  0.49660  0.89761  1.0000 0.7222288047
N   N43       1.0  0.67490  0.22020  0.64460  1.0000 -0.4114752913
N   N44       1.0  0.79840  0.24160  0.57377  1.0000 0.1001053929
N   N45       1.0  0.85230  0.22240  0.53100  1.0000 -0.2509895767
N   N46       1.0  0.55180  0.20730  0.71697  1.0000 0.1001053929
N   N47       1.0  0.49700  0.16920  0.75294  1.0000 -0.2434921096
N   N48       1.0  0.71300  0.00340  0.39761  1.0000 0.7222288047
O   O1        1.0  0.43160  0.72444  0.06044  1.0000 -0.67396917
O   O2        1.0  0.51970  0.82973  0.05448  1.0000 -0.6512258704
O   O3        1.0  0.78960  0.72898  0.64383  1.0000 -0.6043367739
O   O4        1.0  0.86370  0.62732  0.66360  1.0000 -0.6341230477
O   O5        1.0  0.37600  0.53022  0.11230  1.0000 -0.5832678582
O   O6        1.0  0.08990  0.54183  0.08283  1.0000 -0.5363808478
O   O7        1.0  0.17600  0.44670  0.11050  1.0000 -0.3553780819
O   O8        1.0  0.06840  0.77556  0.56044  1.0000 -0.67396917
O   O9        1.0  0.98030  0.67027  0.55448  1.0000 -0.6512258704
O   O10       1.0  0.71040  0.77102  0.14383  1.0000 -0.6043367739
O   O11       1.0  0.63630  0.87268  0.16360  1.0000 -0.6341230477
O   O12       1.0  0.12400  0.96978  0.61230  1.0000 -0.5832678582
O   O13       1.0  0.41010  0.95817  0.58283  1.0000 -0.5363808478
O   O14       1.0  0.32400  0.05330  0.61050  1.0000 -0.3553780819
O   O15       1.0  0.56840  0.72444  0.56044  1.0000 -0.67396917
O   O16       1.0  0.48030  0.82973  0.55448  1.0000 -0.6512258704
O   O17       1.0  0.21040  0.72898  0.14383  1.0000 -0.6043367739
O   O18       1.0  0.13630  0.62732  0.16360  1.0000 -0.6341230477
O   O19       1.0  0.62400  0.53022  0.61230  1.0000 -0.5832678582
O   O20       1.0  0.91010  0.54183  0.58283  1.0000 -0.5363808478
O   O21       1.0  0.82400  0.44670  0.61050  1.0000 -0.3553780819
O   O22       1.0  0.93160  0.77556  0.06044  1.0000 -0.67396917
O   O23       1.0  0.01970  0.67027  0.05448  1.0000 -0.6512258704
O   O24       1.0  0.28960  0.77102  0.64383  1.0000 -0.6043367739
O   O25       1.0  0.36370  0.87268  0.66360  1.0000 -0.6341230477
O   O26       1.0  0.87600  0.96978  0.11230  1.0000 -0.5832678582
O   O27       1.0  0.58990  0.95817  0.08283  1.0000 -0.5363808478
O   O28       1.0  0.67600  0.05330  0.11050  1.0000 -0.3553780819
O   O29       1.0  0.43160  0.27556  0.43956  1.0000 -0.67396917
O   O30       1.0  0.51970  0.17027  0.44552  1.0000 -0.6512258704
O   O31       1.0  0.78960  0.27102  0.85617  1.0000 -0.6043367739
O   O32       1.0  0.86370  0.37268  0.83640  1.0000 -0.6341230477
O   O33       1.0  0.37600  0.46978  0.38770  1.0000 -0.5832678582
O   O34       1.0  0.08990  0.45817  0.41717  1.0000 -0.5363808478
O   O35       1.0  0.17600  0.55330  0.38950  1.0000 -0.3553780819
O   O36       1.0  0.06840  0.22444  0.93956  1.0000 -0.67396917
O   O37       1.0  0.98030  0.32973  0.94552  1.0000 -0.6512258704
O   O38       1.0  0.71040  0.22898  0.35617  1.0000 -0.6043367739
O   O39       1.0  0.63630  0.12732  0.33640  1.0000 -0.6341230477
O   O40       1.0  0.12400  0.03022  0.88770  1.0000 -0.5832678582
O   O41       1.0  0.41010  0.04183  0.91717  1.0000 -0.5363808478
O   O42       1.0  0.32400  0.94670  0.88950  1.0000 -0.3553780819
O   O43       1.0  0.56840  0.27556  0.93956  1.0000 -0.67396917
O   O44       1.0  0.48030  0.17027  0.94552  1.0000 -0.6512258704
O   O45       1.0  0.21040  0.27102  0.35617  1.0000 -0.6043367739
O   O46       1.0  0.13630  0.37268  0.33640  1.0000 -0.6341230477
O   O47       1.0  0.62400  0.46978  0.88770  1.0000 -0.5832678582
O   O48       1.0  0.91010  0.45817  0.91717  1.0000 -0.5363808478
O   O49       1.0  0.82400  0.55330  0.88950  1.0000 -0.3553780819
O   O50       1.0  0.93160  0.22444  0.43956  1.0000 -0.67396917
O   O51       1.0  0.01970  0.32973  0.44552  1.0000 -0.6512258704
O   O52       1.0  0.28960  0.22898  0.85617  1.0000 -0.6043367739
O   O53       1.0  0.36370  0.12732  0.83640  1.0000 -0.6341230477
O   O54       1.0  0.87600  0.03022  0.38770  1.0000 -0.5832678582
O   O55       1.0  0.58990  0.04183  0.41717  1.0000 -0.5363808478
O   O56       1.0  0.67600  0.94670  0.38950  1.0000 -0.3553780819
