# DDEC6 charges by PACMAN v1.1 (https://github.com/mtap-research/PACMAN-charge/)
data_2020[Cu][pcu]3[ASR]3
_chemical_formula_sum              "Cu4 H48 C72 N8 O20"
_cell_length_a       11.056
_cell_length_b       11.5874
_cell_length_c       19.531
_cell_angle_alpha    85.796
_cell_angle_beta     76.791
_cell_angle_gamma    83.027

_symmetry_space_group_name_H-M    "P 1"
_symmetry_Int_Tables_number       1

loop_
  _symmetry_equiv_pos_as_xyz
  'x, y, z'

loop_
  _atom_site_type_symbol
  _atom_site_label
  _atom_site_symmetry_multiplicity
  _atom_site_fract_x
  _atom_site_fract_y
  _atom_site_fract_z
  _atom_site_occupancy
  _atom_site_charge
Cu  Cu1       1.0  0.59062  0.88787  0.42004  1.0000 0.7747900789
Cu  Cu2       1.0  0.09340  0.60999  0.91575  1.0000 0.7798663085
Cu  Cu3       1.0  0.40938  0.11213  0.57996  1.0000 0.7747900789
Cu  Cu4       1.0  0.90660  0.39001  0.08425  1.0000 0.7798663085
H   H1        1.0  0.34137  0.37123  0.61371  1.0000 0.3462125739
H   H2        1.0  0.41145  0.71415  0.42727  1.0000 0.1109145904
H   H3        1.0  0.31071  0.81962  0.68547  1.0000 0.1189891943
H   H4        1.0  0.91736  0.12425  0.13326  1.0000 0.3462125739
H   H5        1.0  0.47879  0.59868  0.53163  1.0000 0.1306114649
H   H6        1.0  0.81180  0.67301  0.18454  1.0000 0.1306114649
H   H7        1.0  0.37697  0.05313  0.39384  1.0000 0.1189891943
H   H8        1.0  0.00827  0.88885  0.03926  1.0000 0.1388480453
H   H9        1.0  0.20314  0.70770  0.42977  1.0000 0.1388480453
H   H10       1.0  0.47554  0.79994  0.90469  1.0000 0.1388480453
H   H11       1.0  0.85824  0.77647  0.95191  1.0000 0.1109145904
H   H12       1.0  0.26564  0.78575  0.91784  1.0000 0.1189891943
H   H13       1.0  0.65052  0.78303  0.95117  1.0000 0.1388480453
H   H14       1.0  0.53510  0.45058  0.90872  1.0000 0.1306114649
H   H15       1.0  0.16627  0.05638  0.39798  1.0000 0.1306114649
H   H16       1.0  0.32301  0.44491  0.91820  1.0000 0.1189891943
H   H17       1.0  0.93753  0.49344  0.84601  1.0000 0.1189891943
H   H18       1.0  0.79309  0.02938  0.36579  1.0000 0.1109145904
H   H19       1.0  0.72953  0.48447  0.84841  1.0000 0.1388480453
H   H20       1.0  0.00392  0.03063  0.35959  1.0000 0.1388480453
H   H21       1.0  0.99440  0.73644  0.48392  1.0000 0.1388480453
H   H22       1.0  0.78128  0.74616  0.48938  1.0000 0.1189891943
H   H23       1.0  0.79944  0.01578  0.22116  1.0000 0.1388480453
H   H24       1.0  0.24040  0.48279  0.70628  1.0000 0.1388480453
H   H25       1.0  0.65863  0.62877  0.38629  1.0000 0.3462125739
H   H26       1.0  0.58855  0.28585  0.57273  1.0000 0.1109145904
H   H27       1.0  0.68929  0.18038  0.31453  1.0000 0.1189891943
H   H28       1.0  0.08264  0.87575  0.86674  1.0000 0.3462125739
H   H29       1.0  0.52121  0.40132  0.46837  1.0000 0.1306114649
H   H30       1.0  0.18820  0.32699  0.81546  1.0000 0.1306114649
H   H31       1.0  0.62303  0.94687  0.60616  1.0000 0.1189891943
H   H32       1.0  0.99173  0.11115  0.96074  1.0000 0.1388480453
H   H33       1.0  0.79686  0.29230  0.57023  1.0000 0.1388480453
H   H34       1.0  0.52446  0.20006  0.09531  1.0000 0.1388480453
H   H35       1.0  0.14176  0.22353  0.04809  1.0000 0.1109145904
H   H36       1.0  0.73436  0.21425  0.08216  1.0000 0.1189891943
H   H37       1.0  0.34948  0.21697  0.04883  1.0000 0.1388480453
H   H38       1.0  0.46490  0.54942  0.09128  1.0000 0.1306114649
H   H39       1.0  0.83373  0.94362  0.60202  1.0000 0.1306114649
H   H40       1.0  0.67699  0.55509  0.08180  1.0000 0.1189891943
H   H41       1.0  0.06247  0.50656  0.15399  1.0000 0.1189891943
H   H42       1.0  0.20691  0.97062  0.63421  1.0000 0.1109145904
H   H43       1.0  0.27047  0.51553  0.15159  1.0000 0.1388480453
H   H44       1.0  0.99608  0.96937  0.64041  1.0000 0.1388480453
H   H45       1.0  0.00560  0.26356  0.51608  1.0000 0.1388480453
H   H46       1.0  0.21872  0.25384  0.51062  1.0000 0.1189891943
H   H47       1.0  0.20056  0.98422  0.77884  1.0000 0.1388480453
H   H48       1.0  0.75960  0.51721  0.29372  1.0000 0.1388480453
C   C1        1.0  0.66410  0.63110  0.90240  1.0000 0.1109145904
C   C2        1.0  0.52910  0.62590  0.90730  1.0000 0.0997404573
C   C3        1.0  0.02290  0.88250  0.42100  1.0000 0.1109145904
C   C4        1.0  0.16020  0.88150  0.41710  1.0000 0.1109145904
C   C5        1.0  0.36100  0.78510  0.42180  1.0000 0.0911713337
C   C6        1.0  0.32430  0.74410  0.66740  1.0000 -0.1641469593
C   C7        1.0  0.95460  0.66840  0.05580  1.0000 0.5565681761
C   C8        1.0  0.72110  0.82020  0.28740  1.0000 0.5538632875
C   C9        1.0  0.42260  0.61360  0.57550  1.0000 -0.2330271895
C   C10       1.0  0.83620  0.74830  0.16970  1.0000 -0.1713609094
C   C11       1.0  0.34040  0.98190  0.40270  1.0000 0.0911713337
C   C12       1.0  0.95070  0.87740  0.08280  1.0000 -0.2222825433
C   C13       1.0  0.23630  0.78060  0.42380  1.0000 -0.1897503143
C   C14       1.0  0.44620  0.72550  0.90850  1.0000 -0.1897503143
C   C15       1.0  0.83120  0.71580  0.93080  1.0000 0.0911713337
C   C16       1.0  0.32150  0.71630  0.91520  1.0000 0.0911713337
C   C17       1.0  0.70720  0.71970  0.93120  1.0000 -0.1897503143
C   C18       1.0  0.48110  0.52120  0.91040  1.0000 -0.2013532415
C   C19       1.0  0.79580  0.84140  0.21450  1.0000 0.0096336935
C   C20       1.0  0.21480  0.98480  0.40480  1.0000 -0.1897503143
C   C21       1.0  0.26460  0.65500  0.70610  1.0000 0.0096336935
C   C22       1.0  0.35440  0.51820  0.91590  1.0000 0.0911713337
C   C23       1.0  0.87730  0.55060  0.87030  1.0000 0.0997404573
C   C24       1.0  0.46430  0.82250  0.56020  1.0000 0.5538632875
C   C25       1.0  0.40320  0.72520  0.60290  1.0000 -0.0179966124
C   C26       1.0  0.91190  0.76720  0.10350  1.0000 -0.0179966124
C   C27       1.0  0.18310  0.67360  0.77810  1.0000 0.5565681761
C   C28       1.0  0.83470  0.96930  0.39050  1.0000 0.0997404573
C   C29       1.0  0.35800  0.52630  0.61390  1.0000 0.2999485438
C   C30       1.0  0.75350  0.54590  0.87030  1.0000 -0.1897503143
C   C31       1.0  0.96040  0.97040  0.38610  1.0000 -0.1897503143
C   C32       1.0  0.95470  0.79810  0.45940  1.0000 -0.2013532415
C   C33       1.0  0.90500  0.96970  0.12600  1.0000 0.2926898008
C   C34       1.0  0.82760  0.80400  0.46210  1.0000 0.0997404573
C   C35       1.0  0.82910  0.95220  0.19160  1.0000 -0.2521683867
C   C36       1.0  0.28120  0.54460  0.67970  1.0000 -0.2365317936
C   C37       1.0  0.33590  0.36890  0.09760  1.0000 0.1109145904
C   C38       1.0  0.47090  0.37410  0.09270  1.0000 0.0997404573
C   C39       1.0  0.97710  0.11750  0.57900  1.0000 0.1109145904
C   C40       1.0  0.83980  0.11850  0.58290  1.0000 0.1109145904
C   C41       1.0  0.63900  0.21490  0.57820  1.0000 0.0911713337
C   C42       1.0  0.67570  0.25590  0.33260  1.0000 -0.1641469593
C   C43       1.0  0.04540  0.33160  0.94420  1.0000 0.5565681761
C   C44       1.0  0.27890  0.17980  0.71260  1.0000 0.5538632875
C   C45       1.0  0.57740  0.38640  0.42450  1.0000 -0.2330271895
C   C46       1.0  0.16380  0.25170  0.83030  1.0000 -0.1713609094
C   C47       1.0  0.65960  0.01810  0.59730  1.0000 0.0911713337
C   C48       1.0  0.04930  0.12260  0.91720  1.0000 -0.2222825433
C   C49       1.0  0.76370  0.21940  0.57620  1.0000 -0.1897503143
C   C50       1.0  0.55380  0.27450  0.09150  1.0000 -0.1897503143
C   C51       1.0  0.16880  0.28420  0.06920  1.0000 0.0911713337
C   C52       1.0  0.67850  0.28370  0.08480  1.0000 0.0911713337
C   C53       1.0  0.29280  0.28030  0.06880  1.0000 -0.1897503143
C   C54       1.0  0.51890  0.47880  0.08960  1.0000 -0.2013532415
C   C55       1.0  0.20420  0.15860  0.78550  1.0000 0.0096336935
C   C56       1.0  0.78520  0.01520  0.59520  1.0000 -0.1897503143
C   C57       1.0  0.73540  0.34500  0.29390  1.0000 0.0096336935
C   C58       1.0  0.64560  0.48180  0.08410  1.0000 0.0911713337
C   C59       1.0  0.12270  0.44940  0.12970  1.0000 0.0997404573
C   C60       1.0  0.53570  0.17750  0.43980  1.0000 0.5538632875
C   C61       1.0  0.59680  0.27480  0.39710  1.0000 -0.0179966124
C   C62       1.0  0.08810  0.23280  0.89650  1.0000 -0.0179966124
C   C63       1.0  0.81690  0.32640  0.22190  1.0000 0.5565681761
C   C64       1.0  0.16530  0.03070  0.60950  1.0000 0.0997404573
C   C65       1.0  0.64200  0.47370  0.38610  1.0000 0.2999485438
C   C66       1.0  0.24650  0.45410  0.12970  1.0000 -0.1897503143
C   C67       1.0  0.03960  0.02960  0.61390  1.0000 -0.1897503143
C   C68       1.0  0.04530  0.20190  0.54060  1.0000 -0.2013532415
C   C69       1.0  0.09500  0.03030  0.87400  1.0000 0.2926898008
C   C70       1.0  0.17240  0.19600  0.53790  1.0000 0.0997404573
C   C71       1.0  0.17090  0.04780  0.80840  1.0000 -0.2521683867
C   C72       1.0  0.71880  0.45540  0.32030  1.0000 -0.2365317936
N   N1        1.0  0.76810  0.88770  0.42780  1.0000 -0.2092777448
N   N2        1.0  0.27500  0.61500  0.91810  1.0000 -0.1897503143
N   N3        1.0  0.91670  0.63060  0.90230  1.0000 -0.2013532415
N   N4        1.0  0.41450  0.88350  0.41250  1.0000 -0.2092777448
N   N5        1.0  0.23190  0.11230  0.57220  1.0000 -0.2092777448
N   N6        1.0  0.72500  0.38500  0.08190  1.0000 -0.1897503143
N   N7        1.0  0.08330  0.36940  0.09770  1.0000 -0.2013532415
N   N8        1.0  0.58550  0.11650  0.58750  1.0000 -0.2092777448
O   O1        1.0  0.89540  0.58210  0.06550  1.0000 -0.5784503514
O   O2        1.0  0.55430  0.79350  0.50790  1.0000 -0.5513428643
O   O3        1.0  0.04880  0.68420  0.00530  1.0000 -0.5513428643
O   O4        1.0  0.14650  0.77560  0.79640  1.0000 -0.5906024868
O   O5        1.0  0.15600  0.58360  0.81570  1.0000 -0.520834058
O   O6        1.0  0.42680  0.92260  0.57590  1.0000 -0.5513428643
O   O7        1.0  0.64610  0.90650  0.31480  1.0000 -0.5415500397
O   O8        1.0  0.37640  0.42030  0.58440  1.0000 -0.4807431245
O   O9        1.0  0.94620  0.07540  0.10230  1.0000 -0.4807431245
O   O10       1.0  0.73860  0.72420  0.31790  1.0000 -0.5728394682
O   O11       1.0  0.10460  0.41790  0.93450  1.0000 -0.5784503514
O   O12       1.0  0.44570  0.20650  0.49210  1.0000 -0.5513428643
O   O13       1.0  0.95120  0.31580  0.99470  1.0000 -0.5513428643
O   O14       1.0  0.85350  0.22440  0.20360  1.0000 -0.5906024868
O   O15       1.0  0.84400  0.41640  0.18430  1.0000 -0.520834058
O   O16       1.0  0.57320  0.07740  0.42410  1.0000 -0.5513428643
O   O17       1.0  0.35390  0.09350  0.68520  1.0000 -0.5415500397
O   O18       1.0  0.62360  0.57970  0.41560  1.0000 -0.4807431245
O   O19       1.0  0.05380  0.92460  0.89770  1.0000 -0.4807431245
O   O20       1.0  0.26140  0.27580  0.68210  1.0000 -0.5728394682
