# DDEC6 charges by PACMAN v1.1 (https://github.com/mtap-research/PACMAN-charge/)
data_2020[Cu][pts]3[ASR]1
_chemical_formula_sum              "Cu4 H24 C28 O16"
_cell_length_a       8.4337
_cell_length_b       8.4337
_cell_length_c       14.4284
_cell_angle_alpha    90
_cell_angle_beta     90
_cell_angle_gamma    90

_symmetry_space_group_name_H-M    "P 1"
_symmetry_Int_Tables_number       1

loop_
  _symmetry_equiv_pos_as_xyz
  'x, y, z'

loop_
  _atom_site_type_symbol
  _atom_site_label
  _atom_site_symmetry_multiplicity
  _atom_site_fract_x
  _atom_site_fract_y
  _atom_site_fract_z
  _atom_site_occupancy
  _atom_site_charge
Cu  Cu1       1.0  0.64919  0.00000  0.50000  1.0000 0.8404548917
Cu  Cu2       1.0  0.35081  0.00000  0.50000  1.0000 0.8404548917
Cu  Cu3       1.0  0.00000  0.64919  0.00000  1.0000 0.8404548917
Cu  Cu4       1.0  0.00000  0.35081  0.00000  1.0000 0.8404548917
H   H1        1.0  0.25480  0.65060  0.28950  1.0000 0.1225221037
H   H2        1.0  0.74520  0.34940  0.28950  1.0000 0.1225221037
H   H3        1.0  0.34940  0.25480  0.78950  1.0000 0.1225221037
H   H4        1.0  0.65060  0.74520  0.78950  1.0000 0.1225221037
H   H5        1.0  0.74520  0.65060  0.71050  1.0000 0.1225221037
H   H6        1.0  0.25480  0.34940  0.71050  1.0000 0.1225221037
H   H7        1.0  0.65060  0.25480  0.21050  1.0000 0.1225221037
H   H8        1.0  0.34940  0.74520  0.21050  1.0000 0.1225221037
H   H9        1.0  0.74520  0.34940  0.71050  1.0000 0.1225221037
H   H10       1.0  0.25480  0.65060  0.71050  1.0000 0.1225221037
H   H11       1.0  0.65060  0.74520  0.21050  1.0000 0.1225221037
H   H12       1.0  0.34940  0.25480  0.21050  1.0000 0.1225221037
H   H13       1.0  0.25480  0.34940  0.28950  1.0000 0.1225221037
H   H14       1.0  0.74520  0.65060  0.28950  1.0000 0.1225221037
H   H15       1.0  0.34940  0.74520  0.78950  1.0000 0.1225221037
H   H16       1.0  0.65060  0.25480  0.78950  1.0000 0.1225221037
H   H17       1.0  0.40490  0.50000  0.41270  1.0000 0.1225221037
H   H18       1.0  0.59510  0.50000  0.41270  1.0000 0.1225221037
H   H19       1.0  0.50000  0.40490  0.91270  1.0000 0.1225221037
H   H20       1.0  0.50000  0.59510  0.91270  1.0000 0.1225221037
H   H21       1.0  0.59510  0.50000  0.58730  1.0000 0.1225221037
H   H22       1.0  0.40490  0.50000  0.58730  1.0000 0.1225221037
H   H23       1.0  0.50000  0.40490  0.08730  1.0000 0.1225221037
H   H24       1.0  0.50000  0.59510  0.08730  1.0000 0.1225221037
C   C1        1.0  0.50000  0.50000  0.37250  1.0000 -0.270727028
C   C2        1.0  0.50000  0.50000  0.87250  1.0000 -0.270727028
C   C3        1.0  0.50000  0.50000  0.62750  1.0000 -0.270727028
C   C4        1.0  0.50000  0.50000  0.12750  1.0000 -0.270727028
C   C5        1.0  0.50000  0.78750  0.37810  1.0000 0.5478788171
C   C6        1.0  0.50000  0.64940  0.31110  1.0000 0.085998271
C   C7        1.0  0.50000  0.21250  0.37810  1.0000 0.5478788171
C   C8        1.0  0.50000  0.35060  0.31110  1.0000 0.085998271
C   C9        1.0  0.21250  0.50000  0.87810  1.0000 0.5478788171
C   C10       1.0  0.35060  0.50000  0.81110  1.0000 0.085998271
C   C11       1.0  0.78750  0.50000  0.87810  1.0000 0.5478788171
C   C12       1.0  0.64940  0.50000  0.81110  1.0000 0.085998271
C   C13       1.0  0.50000  0.78750  0.62190  1.0000 0.5478788171
C   C14       1.0  0.50000  0.64940  0.68890  1.0000 0.085998271
C   C15       1.0  0.50000  0.21250  0.62190  1.0000 0.5478788171
C   C16       1.0  0.50000  0.35060  0.68890  1.0000 0.085998271
C   C17       1.0  0.78750  0.50000  0.12190  1.0000 0.5478788171
C   C18       1.0  0.64940  0.50000  0.18890  1.0000 0.085998271
C   C19       1.0  0.21250  0.50000  0.12190  1.0000 0.5478788171
C   C20       1.0  0.35060  0.50000  0.18890  1.0000 0.085998271
C   C21       1.0  0.35070  0.64930  0.25000  1.0000 -0.270727028
C   C22       1.0  0.64930  0.35070  0.25000  1.0000 -0.270727028
C   C23       1.0  0.35070  0.35070  0.75000  1.0000 -0.270727028
C   C24       1.0  0.64930  0.64930  0.75000  1.0000 -0.270727028
C   C25       1.0  0.64930  0.35070  0.75000  1.0000 -0.270727028
C   C26       1.0  0.35070  0.64930  0.75000  1.0000 -0.270727028
C   C27       1.0  0.64930  0.64930  0.25000  1.0000 -0.270727028
C   C28       1.0  0.35070  0.35070  0.25000  1.0000 -0.270727028
O   O1        1.0  0.63210  0.83820  0.40554  1.0000 -0.5077901515
O   O2        1.0  0.36790  0.16180  0.40554  1.0000 -0.5077901515
O   O3        1.0  0.16180  0.63210  0.90554  1.0000 -0.5077901515
O   O4        1.0  0.83820  0.36790  0.90554  1.0000 -0.5077901515
O   O5        1.0  0.36790  0.83820  0.59446  1.0000 -0.5077901515
O   O6        1.0  0.63210  0.16180  0.59446  1.0000 -0.5077901515
O   O7        1.0  0.83820  0.63210  0.09446  1.0000 -0.5077901515
O   O8        1.0  0.16180  0.36790  0.09446  1.0000 -0.5077901515
O   O9        1.0  0.36790  0.16180  0.59446  1.0000 -0.5077901515
O   O10       1.0  0.63210  0.83820  0.59446  1.0000 -0.5077901515
O   O11       1.0  0.83820  0.36790  0.09446  1.0000 -0.5077901515
O   O12       1.0  0.16180  0.63210  0.09446  1.0000 -0.5077901515
O   O13       1.0  0.63210  0.16180  0.40554  1.0000 -0.5077901515
O   O14       1.0  0.36790  0.83820  0.40554  1.0000 -0.5077901515
O   O15       1.0  0.16180  0.36790  0.90554  1.0000 -0.5077901515
O   O16       1.0  0.83820  0.63210  0.90554  1.0000 -0.5077901515
