# DDEC6 charges by PACMAN v1.1 (https://github.com/mtap-research/PACMAN-charge/)
data_2020[Ni][nan]3[ASR]2
_chemical_formula_sum              "Ni3 H64 C74 N12 O16"
_cell_length_a       10.174
_cell_length_b       11.889
_cell_length_c       17.943
_cell_angle_alpha    95.068
_cell_angle_beta     96.164
_cell_angle_gamma    104.075

_symmetry_space_group_name_H-M    "P 1"
_symmetry_Int_Tables_number       1

loop_
  _symmetry_equiv_pos_as_xyz
  'x, y, z'

loop_
  _atom_site_type_symbol
  _atom_site_label
  _atom_site_symmetry_multiplicity
  _atom_site_fract_x
  _atom_site_fract_y
  _atom_site_fract_z
  _atom_site_occupancy
  _atom_site_charge
Ni  Ni1       1.0  0.05862  0.47689  0.17823  1.0000 0.7302906689
Ni  Ni2       1.0  0.94138  0.52311  0.82177  1.0000 0.7302906689
Ni  Ni3       1.0  0.50000  0.00000  0.50000  1.0000 0.6984659609
H   H1        1.0  0.49100  0.85620  0.71820  1.0000 0.1203456081
H   H2        1.0  0.48090  0.80750  0.84020  1.0000 0.1203456081
H   H3        1.0  0.45670  0.94330  0.93470  1.0000 0.1297388597
H   H4        1.0  0.46970  0.17770  0.78700  1.0000 0.1297388597
H   H5        1.0  0.39540  0.28090  0.88660  1.0000 0.1083145364
H   H6        1.0  0.55490  0.29740  0.89480  1.0000 0.1083145364
H   H7        1.0  0.68610  0.35260  0.02120  1.0000 0.1203456081
H   H8        1.0  0.51880  0.48730  0.18930  1.0000 0.1203456081
H   H9        1.0  0.29280  0.34400  0.99270  1.0000 0.1203456081
H   H10       1.0  0.55160  0.77980  0.58790  1.0000 0.1297388597
H   H11       1.0  0.70740  0.66360  0.55290  1.0000 0.1297388597
H   H12       1.0  0.73800  0.91680  0.42560  1.0000 0.1083145364
H   H13       1.0  0.81340  0.64990  0.41250  1.0000 0.1363793365
H   H14       1.0  0.93250  0.72700  0.47210  1.0000 0.1203456081
H   H15       1.0  0.77940  0.72230  0.28930  1.0000 0.1455637541
H   H16       1.0  0.87040  0.83260  0.20300  1.0000 0.1297388597
H   H17       1.0  0.15170  0.03210  0.36250  1.0000 0.1203456081
H   H18       1.0  0.06110  0.90500  0.44800  1.0000 0.1083145364
H   H19       1.0  0.17280  0.04400  0.22490  1.0000 0.1203456081
H   H20       1.0  0.04550  0.98180  0.16500  1.0000 0.1203456081
H   H21       1.0  0.18430  0.25650  0.20550  1.0000 0.1203456081
H   H22       1.0  0.81440  0.27510  0.22310  1.0000 0.1297388597
H   H23       1.0  0.81970  0.07490  0.23500  1.0000 0.1297388597
H   H24       1.0  0.02520  0.59990  0.02950  1.0000 0.1297388597
H   H25       1.0  0.21410  0.75300  0.22730  1.0000 0.1363793365
H   H26       1.0  0.26340  0.89360  0.13740  1.0000 0.1203456081
H   H27       1.0  0.09110  0.75520  0.94580  1.0000 0.1363793365
H   H28       1.0  0.23170  0.84490  0.97620  1.0000 0.1203456081
H   H29       1.0  0.87920  0.80990  0.98280  1.0000 0.1203456081
H   H30       1.0  0.76500  0.95550  0.99220  1.0000 0.1203456081
H   H31       1.0  0.28300  0.90100  0.48600  1.0000 0.3439268645
H   H32       1.0  0.37900  0.87000  0.43400  1.0000 0.349014121
H   H33       1.0  0.50900  0.14380  0.28180  1.0000 0.1203456081
H   H34       1.0  0.51910  0.19250  0.15980  1.0000 0.1203456081
H   H35       1.0  0.54330  0.05670  0.06530  1.0000 0.1297388597
H   H36       1.0  0.53030  0.82230  0.21300  1.0000 0.1297388597
H   H37       1.0  0.60460  0.71910  0.11340  1.0000 0.1083145364
H   H38       1.0  0.44510  0.70260  0.10520  1.0000 0.1083145364
H   H39       1.0  0.31390  0.64740  0.97880  1.0000 0.1203456081
H   H40       1.0  0.48120  0.51270  0.81070  1.0000 0.1203456081
H   H41       1.0  0.70720  0.65600  0.00730  1.0000 0.1203456081
H   H42       1.0  0.44840  0.22020  0.41210  1.0000 0.1297388597
H   H43       1.0  0.29260  0.33640  0.44710  1.0000 0.1297388597
H   H44       1.0  0.26200  0.08320  0.57440  1.0000 0.1083145364
H   H45       1.0  0.18660  0.35010  0.58750  1.0000 0.1363793365
H   H46       1.0  0.06750  0.27300  0.52790  1.0000 0.1203456081
H   H47       1.0  0.22060  0.27770  0.71070  1.0000 0.1455637541
H   H48       1.0  0.12960  0.16740  0.79700  1.0000 0.1297388597
H   H49       1.0  0.84830  0.96790  0.63750  1.0000 0.1203456081
H   H50       1.0  0.93890  0.09500  0.55200  1.0000 0.1083145364
H   H51       1.0  0.82720  0.95600  0.77510  1.0000 0.1203456081
H   H52       1.0  0.95450  0.01820  0.83500  1.0000 0.1203456081
H   H53       1.0  0.81570  0.74350  0.79450  1.0000 0.1203456081
H   H54       1.0  0.18560  0.72490  0.77690  1.0000 0.1297388597
H   H55       1.0  0.18030  0.92510  0.76500  1.0000 0.1297388597
H   H56       1.0  0.97480  0.40010  0.97050  1.0000 0.1297388597
H   H57       1.0  0.78590  0.24700  0.77270  1.0000 0.1363793365
H   H58       1.0  0.73660  0.10640  0.86260  1.0000 0.1203456081
H   H59       1.0  0.90890  0.24480  0.05420  1.0000 0.1363793365
H   H60       1.0  0.76830  0.15510  0.02380  1.0000 0.1203456081
H   H61       1.0  0.12080  0.19010  0.01720  1.0000 0.1203456081
H   H62       1.0  0.23500  0.04450  0.00780  1.0000 0.1203456081
H   H63       1.0  0.71700  0.09900  0.51400  1.0000 0.3439268645
H   H64       1.0  0.62100  0.13000  0.56600  1.0000 0.349014121
C   C1        1.0  0.50890  0.06000  0.66667  1.0000 0.5401184734
C   C2        1.0  0.48420  0.02130  0.74260  1.0000 -0.0107918365
C   C3        1.0  0.48510  0.91140  0.75690  1.0000 -0.1392431605
C   C4        1.0  0.47710  0.88190  0.82960  1.0000 -0.0868409101
C   C5        1.0  0.46350  0.96280  0.88600  1.0000 -0.2180929605
C   C6        1.0  0.46020  0.07360  0.86940  1.0000 0.2353252273
C   C7        1.0  0.47120  0.10290  0.79790  1.0000 -0.2481655899
C   C8        1.0  0.47360  0.27060  0.91870  1.0000 -0.0661967296
C   C9        1.0  0.48820  0.33830  0.99600  1.0000 0.0818789628
C   C10       1.0  0.61060  0.36990  0.04000  1.0000 -0.1521957043
C   C11       1.0  0.62680  0.42810  0.11340  1.0000 -0.0208158024
C   C12       1.0  0.51150  0.45060  0.14050  1.0000 -0.1392431605
C   C13       1.0  0.38780  0.41930  0.09600  1.0000 -0.0208158024
C   C14       1.0  0.37670  0.36390  0.02320  1.0000 -0.1587596528
C   C15       1.0  0.26310  0.44130  0.12590  1.0000 0.5158778604
C   C16       1.0  0.76300  0.46300  0.16110  1.0000 0.5317622003
C   C17       1.0  0.60800  0.79300  0.55040  1.0000 -0.0381235634
C   C18       1.0  0.69360  0.72870  0.53120  1.0000 -0.1193485506
C   C19       1.0  0.70940  0.86770  0.46150  1.0000 0.09786187
C   C20       1.0  0.85640  0.72930  0.43520  1.0000 -0.1722247127
C   C21       1.0  0.90970  0.80160  0.37500  1.0000 0.0818789628
C   C22       1.0  0.85650  0.78380  0.30470  1.0000 -0.1193485506
C   C23       1.0  0.90950  0.85140  0.25330  1.0000 -0.1521957043
C   C24       1.0  0.01720  0.94540  0.27190  1.0000 0.0873948716
C   C25       1.0  0.07710  0.96860  0.34660  1.0000 -0.1587596528
C   C26       1.0  0.02110  0.89260  0.39790  1.0000 -0.1778496813
C   C27       1.0  0.07370  0.02270  0.21560  1.0000 -0.1897274825
C   C28       1.0  0.09220  0.23710  0.21180  1.0000 0.09786187
C   C29       1.0  0.89120  0.24610  0.22130  1.0000 -0.0381235634
C   C30       1.0  0.89290  0.13550  0.22790  1.0000 -0.0981410417
C   C31       1.0  0.07870  0.65510  0.06780  1.0000 0.1203456081
C   C32       1.0  0.18260  0.73930  0.17590  1.0000 -0.0381235634
C   C33       1.0  0.20940  0.81730  0.12690  1.0000 -0.1193485506
C   C34       1.0  0.13900  0.81460  0.98680  1.0000 -0.1778496813
C   C35       1.0  0.06770  0.91240  0.99180  1.0000 0.0873948716
C   C36       1.0  0.92910  0.88760  0.98930  1.0000 -0.1587596528
C   C37       1.0  0.85990  0.97470  0.99600  1.0000 -0.1587596528
C   C38       1.0  0.49110  0.94000  0.33333  1.0000 0.5401184734
C   C39       1.0  0.51580  0.97870  0.25740  1.0000 -0.0107918365
C   C40       1.0  0.51490  0.08860  0.24310  1.0000 -0.1392431605
C   C41       1.0  0.52290  0.11810  0.17040  1.0000 -0.0868409101
C   C42       1.0  0.53650  0.03720  0.11400  1.0000 -0.2180929605
C   C43       1.0  0.53980  0.92640  0.13060  1.0000 0.2353252273
C   C44       1.0  0.52880  0.89710  0.20210  1.0000 -0.2481655899
C   C45       1.0  0.52640  0.72940  0.08130  1.0000 -0.0661967296
C   C46       1.0  0.51180  0.66170  0.00400  1.0000 0.0818789628
C   C47       1.0  0.38940  0.63010  0.96000  1.0000 -0.1521957043
C   C48       1.0  0.37320  0.57190  0.88660  1.0000 -0.0208158024
C   C49       1.0  0.48850  0.54940  0.85950  1.0000 -0.1392431605
C   C50       1.0  0.61220  0.58070  0.90400  1.0000 -0.0208158024
C   C51       1.0  0.62330  0.63610  0.97680  1.0000 -0.1587596528
C   C52       1.0  0.73690  0.55870  0.87410  1.0000 0.5158778604
C   C53       1.0  0.23700  0.53700  0.83890  1.0000 0.5317622003
C   C54       1.0  0.39200  0.20700  0.44960  1.0000 -0.0381235634
C   C55       1.0  0.30640  0.27130  0.46880  1.0000 -0.1193485506
C   C56       1.0  0.29060  0.13230  0.53850  1.0000 0.09786187
C   C57       1.0  0.14360  0.27070  0.56480  1.0000 -0.1722247127
C   C58       1.0  0.09030  0.19840  0.62500  1.0000 0.0818789628
C   C59       1.0  0.14350  0.21620  0.69530  1.0000 -0.1193485506
C   C60       1.0  0.09050  0.14860  0.74670  1.0000 -0.1521957043
C   C61       1.0  0.98280  0.05460  0.72810  1.0000 0.0873948716
C   C62       1.0  0.92290  0.03140  0.65340  1.0000 -0.1587596528
C   C63       1.0  0.97890  0.10740  0.60210  1.0000 -0.1778496813
C   C64       1.0  0.92630  0.97730  0.78440  1.0000 -0.1897274825
C   C65       1.0  0.90780  0.76290  0.78820  1.0000 0.09786187
C   C66       1.0  0.10880  0.75390  0.77870  1.0000 -0.0381235634
C   C67       1.0  0.10710  0.86450  0.77210  1.0000 -0.0981410417
C   C68       1.0  0.92130  0.34490  0.93220  1.0000 0.1203456081
C   C69       1.0  0.81740  0.26070  0.82410  1.0000 -0.0381235634
C   C70       1.0  0.79060  0.18270  0.87310  1.0000 -0.1193485506
C   C71       1.0  0.86100  0.18540  0.01320  1.0000 -0.1778496813
C   C72       1.0  0.93230  0.08760  0.00820  1.0000 0.0873948716
C   C73       1.0  0.07090  0.11240  0.01070  1.0000 -0.1587596528
C   C74       1.0  0.14010  0.02530  0.00400  1.0000 -0.1587596528
N   N1        1.0  0.61800  0.88170  0.50530  1.0000 -0.2862001184
N   N2        1.0  0.75610  0.77630  0.47410  1.0000 0.0415690735
N   N3        1.0  0.01670  0.31070  0.21160  1.0000 -0.2688995126
N   N4        1.0  0.02220  0.12950  0.22220  1.0000 0.0415690735
N   N5        1.0  0.10170  0.63560  0.13890  1.0000 -0.2835643861
N   N6        1.0  0.14160  0.76280  0.05820  1.0000 0.0458350804
N   N7        1.0  0.38200  0.11830  0.49470  1.0000 -0.2862001184
N   N8        1.0  0.24390  0.22370  0.52590  1.0000 0.0415690735
N   N9        1.0  0.98330  0.68930  0.78840  1.0000 -0.2688995126
N   N10       1.0  0.97780  0.87050  0.77780  1.0000 0.0415690735
N   N11       1.0  0.89830  0.36440  0.86110  1.0000 -0.2835643861
N   N12       1.0  0.85840  0.23720  0.94180  1.0000 0.0458350804
O   O1        1.0  0.47380  0.98050  0.60940  1.0000 -0.5670254949
O   O2        1.0  0.56670  0.16340  0.66220  1.0000 -0.5267216388
O   O3        1.0  0.14830  0.41170  0.08440  1.0000 -0.5386036459
O   O4        1.0  0.27100  0.48620  0.19320  1.0000 -0.5119469586
O   O5        1.0  0.76730  0.49850  0.22890  1.0000 -0.5757524792
O   O6        1.0  0.86170  0.44520  0.12930  1.0000 -0.5670254949
O   O7        1.0  0.45500  0.15050  0.93020  1.0000 -0.1897274825
O   O8        1.0  0.32760  0.85510  0.46790  1.0000 -0.5965358141
O   O9        1.0  0.52620  0.01950  0.39060  1.0000 -0.5670254949
O   O10       1.0  0.43330  0.83660  0.33780  1.0000 -0.5267216388
O   O11       1.0  0.85170  0.58830  0.91560  1.0000 -0.5386036459
O   O12       1.0  0.72900  0.51380  0.80680  1.0000 -0.5119469586
O   O13       1.0  0.23270  0.50150  0.77110  1.0000 -0.5757524792
O   O14       1.0  0.13830  0.55480  0.87070  1.0000 -0.5670254949
O   O15       1.0  0.54500  0.84950  0.06980  1.0000 -0.1897274825
O   O16       1.0  0.67240  0.14490  0.53210  1.0000 -0.5965358141
