# DDEC6 charges by PACMAN v1.1 (https://github.com/mtap-research/PACMAN-charge/)
data_2021[Co][pts]3[ASR]1
_chemical_formula_sum              "Co4 P8 H56 C52 O32"
_cell_length_a       15.8995
_cell_length_b       15.8995
_cell_length_c       9.925
_cell_angle_alpha    83.1649
_cell_angle_beta     96.8351
_cell_angle_gamma    134.863

_symmetry_space_group_name_H-M    "P 1"
_symmetry_Int_Tables_number       1

loop_
  _symmetry_equiv_pos_as_xyz
  'x, y, z'

loop_
  _atom_site_type_symbol
  _atom_site_label
  _atom_site_symmetry_multiplicity
  _atom_site_fract_x
  _atom_site_fract_y
  _atom_site_fract_z
  _atom_site_occupancy
  _atom_site_charge
Co  Co1       1.0  0.56459  0.04071  0.86111  1.0000 1.1005344939
Co  Co2       1.0  0.04071  0.56459  0.63889  1.0000 1.1005344939
Co  Co3       1.0  0.43541  0.95929  0.13889  1.0000 1.1005344939
Co  Co4       1.0  0.95929  0.43541  0.36111  1.0000 1.1005344939
P   P1        1.0  0.22628  0.57034  0.51282  1.0000 1.2337971182
P   P2        1.0  0.61480  0.97422  0.59686  1.0000 1.2337971182
P   P3        1.0  0.57034  0.22628  0.98718  1.0000 1.2350122583
P   P4        1.0  0.97422  0.61480  0.90314  1.0000 1.2337971182
P   P5        1.0  0.77372  0.42966  0.48718  1.0000 1.2350122583
P   P6        1.0  0.38520  0.02578  0.40314  1.0000 1.2337971182
P   P7        1.0  0.42966  0.77372  0.01282  1.0000 1.2337971182
P   P8        1.0  0.02578  0.38520  0.09686  1.0000 1.2337971182
H   H1        1.0  0.52170  0.87430  0.75600  1.0000 0.2618488026
H   H2        1.0  0.75750  0.10110  0.94260  1.0000 0.3513668802
H   H3        1.0  0.20960  0.57520  0.30780  1.0000 0.2851468277
H   H4        1.0  0.46560  0.81100  0.54230  1.0000 0.3703962219
H   H5        1.0  0.32810  0.66410  0.66810  1.0000 0.3367418599
H   H6        1.0  0.35640  0.90760  0.73410  1.0000 0.3973538902
H   H7        1.0  0.29820  0.52060  0.76550  1.0000 0.1181337388
H   H8        1.0  0.82000  0.11900  0.77310  1.0000 0.1181337388
H   H9        1.0  0.98030  0.14450  0.83440  1.0000 0.1181337388
H   H10       1.0  0.10770  0.34410  0.42460  1.0000 0.1113893565
H   H11       1.0  0.68480  0.85820  0.53090  1.0000 0.1181337388
H   H12       1.0  0.07770  0.18390  0.51370  1.0000 0.1113893565
H   H13       1.0  0.28410  0.36730  0.84760  1.0000 0.1181337388
H   H14       1.0  0.84490  0.88050  0.59410  1.0000 0.1181337388
H   H15       1.0  0.87430  0.52170  0.74400  1.0000 0.2618488026
H   H16       1.0  0.10110  0.75750  0.55740  1.0000 0.3513668802
H   H17       1.0  0.57520  0.20960  0.19220  1.0000 0.284203167
H   H18       1.0  0.81100  0.46560  0.95770  1.0000 0.3703962219
H   H19       1.0  0.66410  0.32810  0.83190  1.0000 0.3367418599
H   H20       1.0  0.90760  0.35640  0.76590  1.0000 0.3973538902
H   H21       1.0  0.52060  0.29820  0.73450  1.0000 0.1181337388
H   H22       1.0  0.11900  0.82000  0.72690  1.0000 0.1181337388
H   H23       1.0  0.14450  0.98030  0.66560  1.0000 0.1181337388
H   H24       1.0  0.34410  0.10770  0.07540  1.0000 0.1113893565
H   H25       1.0  0.85820  0.68480  0.96910  1.0000 0.1181337388
H   H26       1.0  0.18390  0.07770  0.98630  1.0000 0.1113893565
H   H27       1.0  0.36730  0.28410  0.65240  1.0000 0.1181337388
H   H28       1.0  0.88050  0.84490  0.90590  1.0000 0.1181337388
H   H29       1.0  0.47830  0.12570  0.24400  1.0000 0.2618488026
H   H30       1.0  0.24250  0.89890  0.05740  1.0000 0.3513668802
H   H31       1.0  0.79040  0.42480  0.69220  1.0000 0.2851468277
H   H32       1.0  0.53440  0.18900  0.45770  1.0000 0.3703962219
H   H33       1.0  0.67190  0.33590  0.33190  1.0000 0.3367418599
H   H34       1.0  0.64360  0.09240  0.26590  1.0000 0.3973538902
H   H35       1.0  0.70180  0.47940  0.23450  1.0000 0.1181337388
H   H36       1.0  0.18000  0.88100  0.22690  1.0000 0.1181337388
H   H37       1.0  0.01970  0.85550  0.16560  1.0000 0.1181337388
H   H38       1.0  0.89230  0.65590  0.57540  1.0000 0.1113893565
H   H39       1.0  0.31520  0.14180  0.46910  1.0000 0.1181337388
H   H40       1.0  0.92230  0.81610  0.48630  1.0000 0.1113893565
H   H41       1.0  0.71590  0.63270  0.15240  1.0000 0.1181337388
H   H42       1.0  0.15510  0.11950  0.40590  1.0000 0.1181337388
H   H43       1.0  0.12570  0.47830  0.25600  1.0000 0.2618488026
H   H44       1.0  0.89890  0.24250  0.44260  1.0000 0.3513668802
H   H45       1.0  0.42480  0.79040  0.80780  1.0000 0.284203167
H   H46       1.0  0.18900  0.53440  0.04230  1.0000 0.3703962219
H   H47       1.0  0.33590  0.67190  0.16810  1.0000 0.3367418599
H   H48       1.0  0.09240  0.64360  0.23410  1.0000 0.3973538902
H   H49       1.0  0.47940  0.70180  0.26550  1.0000 0.1181337388
H   H50       1.0  0.88100  0.18000  0.27310  1.0000 0.1181337388
H   H51       1.0  0.85550  0.01970  0.33440  1.0000 0.1181337388
H   H52       1.0  0.65590  0.89230  0.92460  1.0000 0.1113893565
H   H53       1.0  0.14180  0.31520  0.03090  1.0000 0.1181337388
H   H54       1.0  0.81610  0.92230  0.01370  1.0000 0.1113893565
H   H55       1.0  0.63270  0.71590  0.34760  1.0000 0.1181337388
H   H56       1.0  0.11950  0.15510  0.09410  1.0000 0.1181337388
C   C1        1.0  0.25570  0.45330  0.71290  1.0000 -0.0596370195
C   C2        1.0  0.73560  0.98640  0.64190  1.0000 -0.1915616367
C   C3        1.0  0.20600  0.44860  0.58630  1.0000 -0.1915616367
C   C4        1.0  0.82580  0.07140  0.73480  1.0000 -0.0679706159
C   C5        1.0  0.92110  0.08690  0.77090  1.0000 -0.1271181881
C   C6        1.0  0.17450  0.25770  0.69270  1.0000 0.0833800518
C   C7        1.0  0.93250  0.01850  0.71530  1.0000 0.0833800518
C   C8        1.0  0.14090  0.34750  0.51240  1.0000 -0.0596370195
C   C9        1.0  0.74540  0.91740  0.59220  1.0000 -0.0804582863
C   C10       1.0  0.12380  0.25280  0.56450  1.0000 -0.1389330561
C   C11       1.0  0.24430  0.36050  0.76390  1.0000 -0.1459249716
C   C12       1.0  0.84170  0.93130  0.62880  1.0000 -0.1566772211
C   C13       1.0  0.45330  0.25570  0.78710  1.0000 -0.0596370195
C   C14       1.0  0.98640  0.73560  0.85810  1.0000 -0.1915616367
C   C15       1.0  0.44860  0.20600  0.91370  1.0000 -0.1915616367
C   C16       1.0  0.07140  0.82580  0.76520  1.0000 -0.0679706159
C   C17       1.0  0.08690  0.92110  0.72910  1.0000 -0.1271181881
C   C18       1.0  0.25770  0.17450  0.80730  1.0000 0.0833800518
C   C19       1.0  0.01850  0.93250  0.78470  1.0000 0.0833800518
C   C20       1.0  0.34750  0.14090  0.98760  1.0000 -0.0596370195
C   C21       1.0  0.91740  0.74540  0.90780  1.0000 -0.0804582863
C   C22       1.0  0.25280  0.12380  0.93550  1.0000 -0.1389330561
C   C23       1.0  0.36050  0.24430  0.73610  1.0000 -0.1459249716
C   C24       1.0  0.93130  0.84170  0.87120  1.0000 -0.1566772211
C   C25       1.0  0.74430  0.54670  0.28710  1.0000 -0.0596370195
C   C26       1.0  0.26440  0.01360  0.35810  1.0000 -0.1915616367
C   C27       1.0  0.79400  0.55140  0.41370  1.0000 -0.1915616367
C   C28       1.0  0.17420  0.92860  0.26520  1.0000 -0.0679706159
C   C29       1.0  0.07890  0.91310  0.22910  1.0000 -0.1271181881
C   C30       1.0  0.82550  0.74230  0.30730  1.0000 0.0833800518
C   C31       1.0  0.06750  0.98150  0.28470  1.0000 0.0833800518
C   C32       1.0  0.85910  0.65250  0.48760  1.0000 -0.0596370195
C   C33       1.0  0.25460  0.08260  0.40780  1.0000 -0.0804582863
C   C34       1.0  0.87620  0.74720  0.43550  1.0000 -0.1389330561
C   C35       1.0  0.75570  0.63950  0.23610  1.0000 -0.1459249716
C   C36       1.0  0.15830  0.06870  0.37120  1.0000 -0.1566772211
C   C37       1.0  0.54670  0.74430  0.21290  1.0000 -0.0596370195
C   C38       1.0  0.01360  0.26440  0.14190  1.0000 -0.1915616367
C   C39       1.0  0.55140  0.79400  0.08630  1.0000 -0.1915616367
C   C40       1.0  0.92860  0.17420  0.23480  1.0000 -0.0679706159
C   C41       1.0  0.91310  0.07890  0.27090  1.0000 -0.1271181881
C   C42       1.0  0.74230  0.82550  0.19270  1.0000 0.0833800518
C   C43       1.0  0.98150  0.06750  0.21530  1.0000 0.0833800518
C   C44       1.0  0.65250  0.85910  0.01240  1.0000 -0.0596370195
C   C45       1.0  0.08260  0.25460  0.09220  1.0000 -0.0804582863
C   C46       1.0  0.74720  0.87620  0.06450  1.0000 -0.1389330561
C   C47       1.0  0.63950  0.75570  0.26390  1.0000 -0.1459249716
C   C48       1.0  0.06870  0.15830  0.12880  1.0000 -0.1566772211
C   C49       1.0  0.15250  0.15250  0.75000  1.0000 -0.035788973
C   C50       1.0  0.03990  0.03990  0.75000  1.0000 -0.0314155027
C   C51       1.0  0.84750  0.84750  0.25000  1.0000 -0.035788973
C   C52       1.0  0.96010  0.96010  0.25000  1.0000 -0.0314155027
O   O1        1.0  0.10764  0.53276  0.50610  1.0000 -0.7542933969
O   O2        1.0  0.55601  0.94539  0.72680  1.0000 -0.6498724568
O   O3        1.0  0.71444  0.10616  0.98340  1.0000 -0.8233995486
O   O4        1.0  0.26169  0.58811  0.36270  1.0000 -0.5919294331
O   O5        1.0  0.52795  0.86805  0.50200  1.0000 -0.5919294331
O   O6        1.0  0.66177  0.08663  0.52080  1.0000 -0.6287688214
O   O7        1.0  0.32569  0.68131  0.58530  1.0000 -0.566881885
O   O8        1.0  0.40609  0.98371  0.75310  1.0000 -0.8089901406
O   O9        1.0  0.53276  0.10764  0.99390  1.0000 -0.7542933969
O   O10       1.0  0.94539  0.55601  0.77320  1.0000 -0.6498724568
O   O11       1.0  0.10616  0.71444  0.51660  1.0000 -0.8233995486
O   O12       1.0  0.58811  0.26169  0.13730  1.0000 -0.5919294331
O   O13       1.0  0.86805  0.52795  0.99800  1.0000 -0.5919294331
O   O14       1.0  0.08663  0.66177  0.97920  1.0000 -0.6287688214
O   O15       1.0  0.68131  0.32569  0.91470  1.0000 -0.566881885
O   O16       1.0  0.98371  0.40609  0.74690  1.0000 -0.8089901406
O   O17       1.0  0.89236  0.46724  0.49390  1.0000 -0.7542933969
O   O18       1.0  0.44399  0.05461  0.27320  1.0000 -0.6498724568
O   O19       1.0  0.28556  0.89384  0.01660  1.0000 -0.8233995486
O   O20       1.0  0.73831  0.41189  0.63730  1.0000 -0.5919294331
O   O21       1.0  0.47205  0.13195  0.49800  1.0000 -0.5919294331
O   O22       1.0  0.33823  0.91337  0.47920  1.0000 -0.6287688214
O   O23       1.0  0.67431  0.31869  0.41470  1.0000 -0.566881885
O   O24       1.0  0.59391  0.01629  0.24690  1.0000 -0.8089901406
O   O25       1.0  0.46724  0.89236  0.00610  1.0000 -0.7555461872
O   O26       1.0  0.05461  0.44399  0.22680  1.0000 -0.6498724568
O   O27       1.0  0.89384  0.28556  0.48340  1.0000 -0.8233995486
O   O28       1.0  0.41189  0.73831  0.86270  1.0000 -0.5919294331
O   O29       1.0  0.13195  0.47205  0.00200  1.0000 -0.5919294331
O   O30       1.0  0.91337  0.33823  0.02080  1.0000 -0.6287688214
O   O31       1.0  0.31869  0.67431  0.08530  1.0000 -0.566881885
O   O32       1.0  0.01629  0.59391  0.25310  1.0000 -0.8089901406
