# DDEC6 charges by PACMAN v1.1 (https://github.com/mtap-research/PACMAN-charge/)
data_2021[Zn][pcu]3[ASR]3
_chemical_formula_sum              "Zn5 H42 C66 N4 O22"
_cell_length_a       9.7768
_cell_length_b       11.3448
_cell_length_c       16.8602
_cell_angle_alpha    103.023
_cell_angle_beta     105.275
_cell_angle_gamma    95.604

_symmetry_space_group_name_H-M    "P 1"
_symmetry_Int_Tables_number       1

loop_
  _symmetry_equiv_pos_as_xyz
  'x, y, z'

loop_
  _atom_site_type_symbol
  _atom_site_label
  _atom_site_symmetry_multiplicity
  _atom_site_fract_x
  _atom_site_fract_y
  _atom_site_fract_z
  _atom_site_occupancy
  _atom_site_charge
Zn  Zn1       1.0  0.94831  0.60899  0.03913  1.0000 0.8421843569
Zn  Zn2       1.0  0.10012  0.75153  0.42923  1.0000 0.9498466771
Zn  Zn3       1.0  0.05169  0.39101  0.96087  1.0000 0.8421843569
Zn  Zn4       1.0  0.89988  0.24847  0.57077  1.0000 0.9498466771
Zn  Zn5       1.0  0.00000  0.00000  0.50000  1.0000 1.0493416111
H   H1        1.0  0.61410  0.90630  0.06270  1.0000 0.1296150861
H   H2        1.0  0.70500  0.74230  0.00220  1.0000 0.1202490147
H   H3        1.0  0.01630  0.78710  0.21160  1.0000 0.1296150861
H   H4        1.0  0.93250  0.95000  0.28050  1.0000 0.1478482019
H   H5        1.0  0.68170  0.13510  0.11940  1.0000 0.1435998003
H   H6        1.0  0.60710  0.30890  0.18370  1.0000 0.1296150861
H   H7        1.0  0.63530  0.19290  0.39020  1.0000 0.1435998003
H   H8        1.0  0.72240  0.02090  0.33340  1.0000 0.1553222458
H   H9        1.0  0.37270  0.32940  0.22740  1.0000 0.1296150861
H   H10       1.0  0.27020  0.49260  0.28210  1.0000 0.1202490147
H   H11       1.0  0.62120  0.60960  0.48500  1.0000 0.1296150861
H   H12       1.0  0.72360  0.44310  0.43290  1.0000 0.1435998003
H   H13       1.0  0.05610  0.55880  0.61800  1.0000 0.1296150861
H   H14       1.0  0.06100  0.49770  0.73960  1.0000 0.1296150861
H   H15       1.0  0.92340  0.80590  0.83500  1.0000 0.1202490147
H   H16       1.0  0.91490  0.86690  0.71270  1.0000 0.1202490147
H   H17       1.0  0.51130  0.52520  0.09630  1.0000 0.1202490147
H   H18       1.0  0.73190  0.58810  0.19940  1.0000 0.1202490147
H   H19       1.0  0.56350  0.83800  0.33810  1.0000 0.1202490147
H   H20       1.0  0.34300  0.77480  0.23680  1.0000 0.1202490147
H   H21       1.0  0.24460  0.96860  0.46740  1.0000 0.4067743938
H   H22       1.0  0.38590  0.09370  0.93730  1.0000 0.1296150861
H   H23       1.0  0.29500  0.25770  0.99780  1.0000 0.1202490147
H   H24       1.0  0.98370  0.21290  0.78840  1.0000 0.1296150861
H   H25       1.0  0.06750  0.05000  0.71950  1.0000 0.1478482019
H   H26       1.0  0.31830  0.86490  0.88060  1.0000 0.1435998003
H   H27       1.0  0.39290  0.69110  0.81630  1.0000 0.1296150861
H   H28       1.0  0.36470  0.80710  0.60980  1.0000 0.1478482019
H   H29       1.0  0.27760  0.97910  0.66667  1.0000 0.1553222458
H   H30       1.0  0.62730  0.67060  0.77260  1.0000 0.1296150861
H   H31       1.0  0.72980  0.50740  0.71790  1.0000 0.1202490147
H   H32       1.0  0.37880  0.39040  0.51500  1.0000 0.1296150861
H   H33       1.0  0.27640  0.55690  0.56710  1.0000 0.1435998003
H   H34       1.0  0.94390  0.44120  0.38200  1.0000 0.1296150861
H   H35       1.0  0.93900  0.50230  0.26040  1.0000 0.1296150861
H   H36       1.0  0.07660  0.19410  0.16500  1.0000 0.1202490147
H   H37       1.0  0.08510  0.13310  0.28730  1.0000 0.1202490147
H   H38       1.0  0.48870  0.47480  0.90370  1.0000 0.1202490147
H   H39       1.0  0.26810  0.41190  0.80060  1.0000 0.1202490147
H   H40       1.0  0.43650  0.16200  0.66190  1.0000 0.1202490147
H   H41       1.0  0.65700  0.22520  0.76320  1.0000 0.1202490147
H   H42       1.0  0.75540  0.03140  0.53260  1.0000 0.4067743938
C   C1        1.0  0.69570  0.88360  0.09420  1.0000 -0.1999125857
C   C2        1.0  0.75120  0.78550  0.05840  1.0000 0.0935332249
C   C3        1.0  0.93420  0.81160  0.18210  1.0000 0.097607411
C   C4        1.0  0.88540  0.91010  0.22370  1.0000 -0.1693994668
C   C5        1.0  0.76430  0.94920  0.17940  1.0000 0.1202490147
C   C6        1.0  0.71040  0.05850  0.21960  1.0000 0.1114625852
C   C7        1.0  0.67450  0.14620  0.17450  1.0000 -0.1859338996
C   C8        1.0  0.62860  0.24910  0.21260  1.0000 0.0158392774
C   C9        1.0  0.64690  0.18080  0.33610  1.0000 0.0501155365
C   C10       1.0  0.69740  0.07730  0.30190  1.0000 -0.1693994668
C   C11       1.0  0.55620  0.37010  0.32660  1.0000 0.1478482019
C   C12       1.0  0.42110  0.38460  0.27960  1.0000 -0.1859338996
C   C13       1.0  0.36080  0.48220  0.31210  1.0000 -0.0685436134
C   C14       1.0  0.43490  0.56510  0.38940  1.0000 -0.0217882157
C   C15       1.0  0.57110  0.55210  0.43410  1.0000 -0.0774324168
C   C16       1.0  0.63280  0.45320  0.40300  1.0000 -0.1598882456
C   C17       1.0  0.35970  0.66500  0.42690  1.0000 0.5586433332
C   C18       1.0  0.03140  0.60940  0.66190  1.0000 -0.1093978737
C   C19       1.0  0.03490  0.57300  0.73480  1.0000 -0.1031796415
C   C20       1.0  0.99950  0.64820  0.80150  1.0000 -0.035605215
C   C21       1.0  0.95200  0.75750  0.79190  1.0000 -0.1197904008
C   C22       1.0  0.94720  0.79410  0.71880  1.0000 -0.1197904008
C   C23       1.0  0.99120  0.72150  0.65310  1.0000 -0.0293105107
C   C24       1.0  0.00840  0.77070  0.57990  1.0000 0.579637162
C   C25       1.0  0.00540  0.60690  0.88080  1.0000 0.585485823
C   C26       1.0  0.52160  0.58750  0.14500  1.0000 -0.1197904008
C   C27       1.0  0.65410  0.62570  0.20660  1.0000 -0.1197904008
C   C28       1.0  0.67110  0.72030  0.27920  1.0000 -0.0293105107
C   C29       1.0  0.55270  0.77520  0.28960  1.0000 -0.1093978737
C   C30       1.0  0.42090  0.73740  0.22920  1.0000 -0.1031796415
C   C31       1.0  0.40370  0.64220  0.15590  1.0000 -0.0217882157
C   C32       1.0  0.25770  0.59630  0.09290  1.0000 0.585485823
C   C33       1.0  0.81640  0.76700  0.34490  1.0000 0.5674185674
C   C34       1.0  0.30430  0.11640  0.90580  1.0000 -0.1999125857
C   C35       1.0  0.24880  0.21450  0.94160  1.0000 0.0935332249
C   C36       1.0  0.06580  0.18840  0.81790  1.0000 0.097607411
C   C37       1.0  0.11460  0.08990  0.77630  1.0000 -0.1693994668
C   C38       1.0  0.23570  0.05080  0.82060  1.0000 0.1202490147
C   C39       1.0  0.28960  0.94150  0.78040  1.0000 0.1114625852
C   C40       1.0  0.32550  0.85380  0.82550  1.0000 -0.1859338996
C   C41       1.0  0.37140  0.75090  0.78740  1.0000 0.0158392774
C   C42       1.0  0.35310  0.81920  0.66390  1.0000 0.0501155365
C   C43       1.0  0.30260  0.92270  0.69810  1.0000 -0.1693994668
C   C44       1.0  0.44380  0.62990  0.67340  1.0000 0.1478482019
C   C45       1.0  0.57890  0.61540  0.72040  1.0000 -0.1859338996
C   C46       1.0  0.63920  0.51780  0.68790  1.0000 -0.0685436134
C   C47       1.0  0.56510  0.43490  0.61060  1.0000 -0.0217882157
C   C48       1.0  0.42890  0.44790  0.56590  1.0000 -0.0774324168
C   C49       1.0  0.36720  0.54680  0.59700  1.0000 -0.1598882456
C   C50       1.0  0.64030  0.33500  0.57310  1.0000 0.5586433332
C   C51       1.0  0.96860  0.39060  0.33810  1.0000 -0.1093978737
C   C52       1.0  0.96510  0.42700  0.26520  1.0000 -0.1031796415
C   C53       1.0  0.00050  0.35180  0.19850  1.0000 -0.035605215
C   C54       1.0  0.04800  0.24250  0.20810  1.0000 -0.1197904008
C   C55       1.0  0.05280  0.20590  0.28120  1.0000 -0.1197904008
C   C56       1.0  0.00880  0.27850  0.34690  1.0000 -0.0293105107
C   C57       1.0  0.99160  0.22930  0.42010  1.0000 0.579637162
C   C58       1.0  0.99460  0.39310  0.11920  1.0000 0.585485823
C   C59       1.0  0.47840  0.41250  0.85500  1.0000 -0.1197904008
C   C60       1.0  0.34590  0.37430  0.79340  1.0000 -0.1197904008
C   C61       1.0  0.32890  0.27970  0.72080  1.0000 -0.0293105107
C   C62       1.0  0.44730  0.22480  0.71040  1.0000 -0.1093978737
C   C63       1.0  0.57910  0.26260  0.77080  1.0000 -0.1031796415
C   C64       1.0  0.59630  0.35780  0.84410  1.0000 -0.0293105107
C   C65       1.0  0.74230  0.40370  0.90710  1.0000 0.585485823
C   C66       1.0  0.18360  0.23300  0.65510  1.0000 0.5674185674
N   N1        1.0  0.86860  0.74940  0.10080  1.0000 -0.2089225431
N   N2        1.0  0.61450  0.26410  0.29160  1.0000 0.0501155365
N   N3        1.0  0.13140  0.25060  0.89920  1.0000 -0.2089225431
N   N4        1.0  0.38550  0.73590  0.70840  1.0000 0.0501155365
O   O1        1.0  0.22660  0.65280  0.38600  1.0000 -0.5672715087
O   O2        1.0  0.42600  0.74530  0.49220  1.0000 -0.5590435942
O   O3        1.0  0.05570  0.70130  0.52573  1.0000 -0.5672715087
O   O4        1.0  0.98330  0.87660  0.57930  1.0000 -0.5590435942
O   O5        1.0  0.04670  0.50580  0.88370  1.0000 -0.5498112718
O   O6        1.0  0.96780  0.67540  0.93910  1.0000 -0.5408363421
O   O7        1.0  0.24060  0.49320  0.04080  1.0000 -0.5498112718
O   O8        1.0  0.16240  0.66270  0.09700  1.0000 -0.5408363421
O   O9        1.0  0.91230  0.70100  0.34020  1.0000 -0.5498112718
O   O10       1.0  0.83180  0.86860  0.39670  1.0000 -0.5590435942
O   O11       1.0  0.15730  0.92580  0.46590  1.0000 -0.8782826145
O   O12       1.0  0.77340  0.34720  0.61400  1.0000 -0.5672715087
O   O13       1.0  0.57400  0.25470  0.50780  1.0000 -0.5590435942
O   O14       1.0  0.94430  0.29870  0.47427  1.0000 -0.5672715087
O   O15       1.0  0.01670  0.12340  0.42070  1.0000 -0.5590435942
O   O16       1.0  0.95330  0.49420  0.11630  1.0000 -0.5498112718
O   O17       1.0  0.03220  0.32460  0.06090  1.0000 -0.5408363421
O   O18       1.0  0.75940  0.50680  0.95920  1.0000 -0.5498112718
O   O19       1.0  0.83760  0.33730  0.90300  1.0000 -0.5408363421
O   O20       1.0  0.08770  0.29900  0.65980  1.0000 -0.5498112718
O   O21       1.0  0.16820  0.13140  0.60330  1.0000 -0.5590435942
O   O22       1.0  0.84270  0.07420  0.53410  1.0000 -0.8782826145
