# DDEC6 charges by PACMAN v1.1 (https://github.com/mtap-research/PACMAN-charge/)
data_2021[Al][nan]3[ASR]22
_chemical_formula_sum              "O44 Al8 H32 C52"
_cell_length_a       12.2391
_cell_length_b       15.074
_cell_length_c       13.651
_cell_angle_alpha    90
_cell_angle_beta     101.878
_cell_angle_gamma    90

_symmetry_space_group_name_H-M    "P 1"
_symmetry_Int_Tables_number       1

loop_
  _symmetry_equiv_pos_as_xyz
  'x, y, z'

loop_
  _atom_site_type_symbol
  _atom_site_label
  _atom_site_symmetry_multiplicity
  _atom_site_fract_x
  _atom_site_fract_y
  _atom_site_fract_z
  _atom_site_occupancy
  _atom_site_charge
O   O1        1.0  0.14980  0.47590  0.52390  1.0000 -1.0085445516
O   O2        1.0  0.00900  0.56430  0.38110  1.0000 -0.5613329611
O   O3        1.0  0.96680  0.39210  0.42610  1.0000 -0.578949926
Al  Al1       1.0  0.23578  0.43828  0.43557  1.0000 1.6226347335
H   H1        1.0  0.18778  0.48364  0.58969  1.0000 0.4286565942
C   C1        1.0  0.08400  0.57180  0.33160  1.0000 0.6381803316
O   O4        1.0  0.34910  0.51690  0.48150  1.0000 -0.9999602787
O   O5        1.0  0.16810  0.52120  0.33760  1.0000 -0.578949926
O   O6        1.0  0.31260  0.39220  0.33830  1.0000 -0.578949926
O   O7        1.0  0.12730  0.35150  0.38130  1.0000 -0.551541125
O   O8        1.0  0.30500  0.35020  0.52850  1.0000 -0.578949926
C   C2        1.0  0.07600  0.64380  0.26120  1.0000 -0.1391755171
H   H2        1.0  0.32685  0.57312  0.49756  1.0000 0.4286565942
C   C3        1.0  0.40890  0.40100  0.32280  1.0000 0.6381803316
C   C4        1.0  0.99030  0.70540  0.22970  1.0000 -0.1778358795
C   C5        1.0  0.16120  0.66520  0.21600  1.0000 -0.0125687407
O   O9        1.0  0.51300  0.61440  0.44710  1.0000 -0.5711102002
O   O10       1.0  0.48570  0.44840  0.36940  1.0000 -0.5977074019
C   C6        1.0  0.43620  0.34120  0.24680  1.0000 -0.0884361003
H   H3        1.0  0.92146  0.70700  0.24849  1.0000 0.1706037954
C   C7        1.0  0.02720  0.76280  0.16610  1.0000 0.0622843638
C   C8        1.0  0.13150  0.74040  0.15750  1.0000 -0.1700629234
H   H4        1.0  0.22836  0.63469  0.22299  1.0000 0.1279176322
C   C9        1.0  0.59170  0.66150  0.43320  1.0000 0.6381803316
C   C10       1.0  0.36760  0.28490  0.18280  1.0000 -0.1291588447
O   O11       1.0  0.54260  0.32970  0.23590  1.0000 -0.1598042302
C   C11       1.0  0.97370  0.84080  0.11380  1.0000 0.5855427631
C   C12       1.0  0.56420  0.73420  0.36420  1.0000 -0.1391755171
H   H5        1.0  0.29020  0.28160  0.17295  1.0000 0.1365410385
C   C13       1.0  0.54230  0.26280  0.16780  1.0000 -0.1391755171
H   H6        1.0  0.60468  0.24071  0.14693  1.0000 0.1108127371
O   O12       1.0  0.86850  0.25960  0.84250  1.0000 -0.1598042302
C   C14       1.0  0.45740  0.82970  0.26410  1.0000 -0.1598042302
H   H7        1.0  0.39538  0.86141  0.23134  1.0000 0.3609497048
H   H8        1.0  0.17530  0.76965  0.11964  1.0000 0.3609497048
O   O13       1.0  0.85020  0.97590  0.97610  1.0000 -1.0085445516
O   O14       1.0  0.99100  0.06430  0.11890  1.0000 -0.5613329611
O   O15       1.0  0.03320  0.89210  0.07390  1.0000 -0.578949926
Al  Al2       1.0  0.76422  0.93828  0.06443  1.0000 1.6226347335
H   H9        1.0  0.81222  0.98364  0.91030  1.0000 0.4286565942
C   C15       1.0  0.91600  0.07180  0.16840  1.0000 0.6381803316
O   O16       1.0  0.65090  0.01690  0.01850  1.0000 -1.0085445516
O   O17       1.0  0.83190  0.02120  0.16240  1.0000 -0.5906211686
O   O18       1.0  0.68740  0.89220  0.16170  1.0000 -0.551541125
O   O19       1.0  0.87270  0.85150  0.11870  1.0000 -0.551541125
O   O20       1.0  0.69500  0.85020  0.97150  1.0000 -0.5977074019
C   C16       1.0  0.92400  0.14380  0.23880  1.0000 -0.1391755171
H   H10       1.0  0.67315  0.07312  0.00244  1.0000 0.4239409514
C   C17       1.0  0.59110  0.90100  0.17720  1.0000 0.5825304933
C   C18       1.0  0.00970  0.20540  0.27030  1.0000 -0.1778358795
C   C19       1.0  0.83880  0.16520  0.28400  1.0000 0.0068979258
O   O21       1.0  0.48700  0.11440  0.05290  1.0000 -0.5906211686
O   O22       1.0  0.51430  0.94840  0.13060  1.0000 -0.5711102002
C   C20       1.0  0.56380  0.84120  0.25320  1.0000 0.0622843638
H   H11       1.0  0.07854  0.20700  0.25151  1.0000 0.1706037954
C   C21       1.0  0.97280  0.26280  0.33390  1.0000 0.0685587213
C   C22       1.0  0.86850  0.24040  0.34250  1.0000 -0.1700629234
H   H12       1.0  0.77164  0.13469  0.27702  1.0000 0.1365410385
C   C23       1.0  0.40830  0.16150  0.06680  1.0000 0.6318892367
C   C24       1.0  0.63240  0.78490  0.31720  1.0000 -0.1700629234
C   C25       1.0  0.02630  0.34080  0.38620  1.0000 0.5855427631
C   C26       1.0  0.43580  0.23420  0.13580  1.0000 -0.1145150043
H   H13       1.0  0.70980  0.78160  0.32705  1.0000 0.1706037954
C   C27       1.0  0.45770  0.76280  0.33220  1.0000 -0.0005037643
H   H14       1.0  0.39532  0.74071  0.35307  1.0000 0.1279176322
O   O23       1.0  0.13150  0.75960  0.65750  1.0000 -0.1391755171
H   H15       1.0  0.60462  0.36141  0.26866  1.0000 0.1108127371
H   H16       1.0  0.82470  0.26965  0.38036  1.0000 0.376699204
O   O24       1.0  0.85020  0.52410  0.47610  1.0000 -1.0085445516
O   O25       1.0  0.99100  0.43570  0.61890  1.0000 -0.578949926
O   O26       1.0  0.03320  0.60790  0.57390  1.0000 -0.5977074019
Al  Al3       1.0  0.76422  0.56172  0.56443  1.0000 1.6301372655
H   H17       1.0  0.81222  0.51636  0.41030  1.0000 0.4286565942
C   C28       1.0  0.91600  0.42820  0.66840  1.0000 0.6318892367
O   O27       1.0  0.65090  0.48310  0.51850  1.0000 -0.9932697765
O   O28       1.0  0.83190  0.47880  0.66240  1.0000 -0.5906211686
O   O29       1.0  0.68740  0.60780  0.66170  1.0000 -0.5613329611
O   O30       1.0  0.87270  0.64850  0.61870  1.0000 -0.5711102002
O   O31       1.0  0.69500  0.64980  0.47150  1.0000 -0.5711102002
C   C29       1.0  0.92400  0.35620  0.73880  1.0000 -0.1212422155
H   H18       1.0  0.67315  0.42688  0.50244  1.0000 0.4286565942
C   C30       1.0  0.59110  0.59900  0.67720  1.0000 0.6318892367
C   C31       1.0  0.00970  0.29460  0.77030  1.0000 -0.1291588447
C   C32       1.0  0.83880  0.33480  0.78400  1.0000 -0.1391755171
O   O32       1.0  0.48700  0.38560  0.55290  1.0000 -0.5711102002
O   O33       1.0  0.51430  0.55160  0.63060  1.0000 -0.5906211686
C   C33       1.0  0.56380  0.65880  0.75320  1.0000 -0.0884361003
H   H19       1.0  0.07854  0.29300  0.75151  1.0000 0.1365410385
C   C34       1.0  0.97280  0.23720  0.83390  1.0000 -0.0884361003
H   H20       1.0  0.77164  0.36531  0.77702  1.0000 0.1197195895
C   C35       1.0  0.40830  0.33850  0.56680  1.0000 0.6381803316
C   C36       1.0  0.63240  0.71510  0.81720  1.0000 -0.1291588447
O   O34       1.0  0.45740  0.67030  0.76410  1.0000 -0.1391755171
C   C37       1.0  0.02630  0.15920  0.88620  1.0000 0.6381803316
C   C38       1.0  0.43580  0.26580  0.63580  1.0000 -0.1391755171
H   H21       1.0  0.70980  0.71840  0.82705  1.0000 0.1365410385
C   C39       1.0  0.45770  0.73720  0.83220  1.0000 -0.1212422155
H   H22       1.0  0.39532  0.75929  0.85307  1.0000 0.1197195895
C   C40       1.0  0.54260  0.17030  0.73590  1.0000 -0.1598042302
H   H23       1.0  0.60462  0.13859  0.76866  1.0000 0.3723139711
H   H24       1.0  0.82470  0.23035  0.88036  1.0000 0.1108127371
O   O35       1.0  0.14980  0.02410  0.02390  1.0000 -1.0085445516
O   O36       1.0  0.00900  0.93570  0.88110  1.0000 -0.578949926
O   O37       1.0  0.96680  0.10790  0.92610  1.0000 -0.5977074019
Al  Al4       1.0  0.23578  0.06172  0.93557  1.0000 1.6301372655
H   H25       1.0  0.18778  0.01636  0.08970  1.0000 0.4286565942
C   C41       1.0  0.08400  0.92820  0.83160  1.0000 0.6318892367
O   O38       1.0  0.34910  0.98310  0.98150  1.0000 -0.9999602787
O   O39       1.0  0.16810  0.97880  0.83760  1.0000 -0.5977074019
O   O40       1.0  0.31260  0.10780  0.83830  1.0000 -0.533757662
O   O41       1.0  0.12730  0.14850  0.88130  1.0000 -0.578949926
O   O42       1.0  0.30500  0.14980  0.02850  1.0000 -0.5906211686
C   C42       1.0  0.07600  0.85620  0.76120  1.0000 -0.1145150043
H   H26       1.0  0.32685  0.92688  0.99756  1.0000 0.4286565942
C   C43       1.0  0.40890  0.09900  0.82280  1.0000 0.5825304933
C   C44       1.0  0.99030  0.79460  0.72970  1.0000 -0.1291588447
C   C45       1.0  0.16120  0.83480  0.71600  1.0000 -0.1212422155
O   O43       1.0  0.51300  0.88560  0.94710  1.0000 -0.5906211686
O   O44       1.0  0.48570  0.05160  0.86940  1.0000 -0.5613329611
C   C46       1.0  0.43620  0.15880  0.74680  1.0000 0.0685587213
H   H27       1.0  0.92146  0.79300  0.74849  1.0000 0.1365410385
C   C47       1.0  0.02720  0.73720  0.66610  1.0000 -0.0884361003
H   H28       1.0  0.22836  0.86531  0.72298  1.0000 0.1279176322
C   C48       1.0  0.59170  0.83850  0.93320  1.0000 0.6318892367
C   C49       1.0  0.36760  0.21510  0.68280  1.0000 -0.1700629234
C   C50       1.0  0.97370  0.65920  0.61380  1.0000 0.6381803316
C   C51       1.0  0.56420  0.76580  0.86420  1.0000 -0.1145150043
H   H29       1.0  0.29020  0.21840  0.67295  1.0000 0.1706037954
C   C52       1.0  0.54230  0.23720  0.66780  1.0000 0.0224910233
H   H30       1.0  0.60468  0.25929  0.64693  1.0000 0.1365410385
H   H31       1.0  0.39538  0.63859  0.73134  1.0000 0.1108127371
H   H32       1.0  0.17530  0.73035  0.61964  1.0000 0.1197195895
Al  Al5       1.0  0.00000  0.50000  0.50000  1.0000 1.6301372655
Al  Al6       1.0  0.00000  0.00000  0.00000  1.0000 1.6301372655
Al  Al7       1.0  0.50000  0.50000  0.50000  1.0000 1.6351492055
Al  Al8       1.0  0.50000  0.00000  0.00000  1.0000 1.6301372655
