# DDEC6 charges by PACMAN v1.1 (https://github.com/mtap-research/PACMAN-charge/)
data_2021[Er][fcu]3[ASR]1
_chemical_formula_sum              "Er6 C48 O56"
_cell_length_a       15.0968
_cell_length_b       15.0968
_cell_length_c       15.0968
_cell_angle_alpha    120
_cell_angle_beta     120
_cell_angle_gamma    89.9996

_symmetry_space_group_name_H-M    "P 1"
_symmetry_Int_Tables_number       1

loop_
  _symmetry_equiv_pos_as_xyz
  'x, y, z'

loop_
  _atom_site_type_symbol
  _atom_site_label
  _atom_site_symmetry_multiplicity
  _atom_site_fract_x
  _atom_site_fract_y
  _atom_site_fract_z
  _atom_site_occupancy
  _atom_site_charge
Er  Er1       1.0  0.87288  0.87289  0.74577  1.0000 2.2131381712
Er  Er2       1.0  0.12712  0.12711  0.25423  1.0000 2.2131381712
Er  Er3       1.0  0.87289  0.12712  0.00001  1.0000 2.2131381712
Er  Er4       1.0  0.12711  0.87288  0.99999  1.0000 2.2131381712
Er  Er5       1.0  0.87288  0.87288  0.00000  1.0000 2.2131381712
Er  Er6       1.0  0.12712  0.12712  0.00000  1.0000 2.2131381712
C   C1        1.0  0.99980  0.00010  0.69210  1.0000 0.7286482932
C   C2        1.0  0.00000  0.00020  0.59320  1.0000 -0.145138345
C   C3        1.0  0.07950  0.07910  0.62540  1.0000 0.2031919237
C   C4        1.0  0.07950  0.07940  0.53390  1.0000 0.2102202482
C   C5        1.0  0.30800  0.30770  0.30790  1.0000 0.7286482932
C   C6        1.0  0.40700  0.40680  0.40680  1.0000 -0.1440488747
C   C7        1.0  0.45370  0.45410  0.37460  1.0000 0.2031919237
C   C8        1.0  0.54550  0.54560  0.46610  1.0000 0.2102202482
C   C9        1.0  0.00010  0.30800  0.00030  1.0000 0.7286482932
C   C10       1.0  0.00020  0.40700  0.00020  1.0000 -0.1440488747
C   C11       1.0  0.07910  0.45370  0.99960  1.0000 0.2031919237
C   C12       1.0  0.07940  0.54550  0.99990  1.0000 0.2102202482
C   C13       1.0  0.30770  0.99980  0.99970  1.0000 0.7286482932
C   C14       1.0  0.40680  0.00000  0.99980  1.0000 -0.1440488747
C   C15       1.0  0.45410  0.07950  0.00040  1.0000 0.2031919237
C   C16       1.0  0.54560  0.07950  0.00010  1.0000 0.2102202482
C   C17       1.0  0.00020  0.99990  0.30790  1.0000 0.7286482932
C   C18       1.0  0.00000  0.99980  0.40680  1.0000 -0.145138345
C   C19       1.0  0.92050  0.92090  0.37460  1.0000 0.2031919237
C   C20       1.0  0.92050  0.92060  0.46610  1.0000 0.2102202482
C   C21       1.0  0.69200  0.69230  0.69210  1.0000 0.7286482932
C   C22       1.0  0.59300  0.59320  0.59320  1.0000 -0.1440488747
C   C23       1.0  0.54630  0.54590  0.62540  1.0000 0.2031919237
C   C24       1.0  0.45450  0.45440  0.53390  1.0000 0.2102202482
C   C25       1.0  0.99990  0.69200  0.99970  1.0000 0.7286482932
C   C26       1.0  0.99980  0.59300  0.99980  1.0000 -0.1440488747
C   C27       1.0  0.92090  0.54630  0.00040  1.0000 0.2031919237
C   C28       1.0  0.92060  0.45450  0.00010  1.0000 0.2102202482
C   C29       1.0  0.69230  0.00020  0.00030  1.0000 0.7286482932
C   C30       1.0  0.59320  0.00000  0.00020  1.0000 -0.1440488747
C   C31       1.0  0.54590  0.92050  0.99960  1.0000 0.2031919237
C   C32       1.0  0.45440  0.92050  0.99990  1.0000 0.2102202482
C   C33       1.0  0.69230  0.00020  0.69250  1.0000 0.7286482932
C   C34       1.0  0.59290  0.00010  0.59300  1.0000 -0.1440488747
C   C35       1.0  0.54600  0.08000  0.62600  1.0000 0.2102202482
C   C36       1.0  0.45410  0.07990  0.53400  1.0000 0.2102202482
C   C37       1.0  0.30770  0.99980  0.30750  1.0000 0.7286482932
C   C38       1.0  0.40710  0.99990  0.40700  1.0000 -0.1440488747
C   C39       1.0  0.45400  0.92000  0.37400  1.0000 0.2102202482
C   C40       1.0  0.54590  0.92010  0.46600  1.0000 0.2102202482
C   C41       1.0  0.00020  0.30770  0.30790  1.0000 0.7286482932
C   C42       1.0  0.00010  0.40710  0.40720  1.0000 -0.1440488747
C   C43       1.0  0.08000  0.45400  0.53400  1.0000 0.2102202482
C   C44       1.0  0.07990  0.54590  0.62580  1.0000 0.2102202482
C   C45       1.0  0.99980  0.69230  0.69210  1.0000 0.7286482932
C   C46       1.0  0.99990  0.59290  0.59280  1.0000 -0.145138345
C   C47       1.0  0.92000  0.54600  0.46600  1.0000 0.2102202482
C   C48       1.0  0.92010  0.45410  0.37420  1.0000 0.2102202482
O   O1        1.0  0.94125  0.82408  0.88265  1.0000 -0.9195636132
O   O2        1.0  0.92515  0.92515  0.65440  1.0000 -0.5432267337
O   O3        1.0  0.07492  0.07492  0.80420  1.0000 -0.5469764877
O   O4        1.0  0.15980  0.16140  0.57740  1.0000 -0.2065593668
O   O5        1.0  0.16130  0.16130  0.74460  1.0000 -0.1999198656
O   O6        1.0  0.94143  0.05860  0.11735  1.0000 -0.9195636132
O   O7        1.0  0.27075  0.27075  0.34560  1.0000 -0.5432267337
O   O8        1.0  0.27072  0.27072  0.19580  1.0000 -0.5469764877
O   O9        1.0  0.58400  0.58240  0.42260  1.0000 -0.2065593668
O   O10       1.0  0.41670  0.41670  0.25540  1.0000 -0.1933113181
O   O11       1.0  0.82408  0.94143  0.88283  1.0000 -0.9195636132
O   O12       1.0  0.92515  0.27075  0.00000  1.0000 -0.5432267337
O   O13       1.0  0.07492  0.27072  0.00000  1.0000 -0.5432267337
O   O14       1.0  0.16140  0.58400  0.00160  1.0000 -0.2065593668
O   O15       1.0  0.16130  0.41670  0.00000  1.0000 -0.1999198656
O   O16       1.0  0.05860  0.94125  0.11717  1.0000 -0.9195636132
O   O17       1.0  0.27075  0.92515  0.00000  1.0000 -0.5432267337
O   O18       1.0  0.27072  0.07492  0.00000  1.0000 -0.5469764877
O   O19       1.0  0.58240  0.15980  0.99840  1.0000 -0.2065593668
O   O20       1.0  0.41670  0.16130  0.00000  1.0000 -0.1999198656
O   O21       1.0  0.05875  0.17592  0.11735  1.0000 -0.9195636132
O   O22       1.0  0.07485  0.07485  0.34560  1.0000 -0.5432267337
O   O23       1.0  0.92508  0.92508  0.19580  1.0000 -0.5469764877
O   O24       1.0  0.84020  0.83860  0.42260  1.0000 -0.2065593668
O   O25       1.0  0.83870  0.83870  0.25540  1.0000 -0.1933113181
O   O26       1.0  0.05857  0.94140  0.88265  1.0000 -0.9195636132
O   O27       1.0  0.72925  0.72925  0.65440  1.0000 -0.5432267337
O   O28       1.0  0.72928  0.72928  0.80420  1.0000 -0.5469764877
O   O29       1.0  0.41600  0.41760  0.57740  1.0000 -0.2065593668
O   O30       1.0  0.58330  0.58330  0.74460  1.0000 -0.1999198656
O   O31       1.0  0.17592  0.05857  0.11717  1.0000 -0.9195636132
O   O32       1.0  0.07485  0.72925  0.00000  1.0000 -0.5432267337
O   O33       1.0  0.92508  0.72928  0.00000  1.0000 -0.5469764877
O   O34       1.0  0.83860  0.41600  0.99840  1.0000 -0.2065593668
O   O35       1.0  0.83870  0.58330  0.00000  1.0000 -0.1999198656
O   O36       1.0  0.94140  0.05875  0.88283  1.0000 -0.9195636132
O   O37       1.0  0.72925  0.07485  0.00000  1.0000 -0.5432267337
O   O38       1.0  0.72928  0.92508  0.00000  1.0000 -0.5469764877
O   O39       1.0  0.41760  0.84020  0.00160  1.0000 -0.2065593668
O   O40       1.0  0.58330  0.83870  0.00000  1.0000 -0.1999198656
O   O41       1.0  0.72950  0.92500  0.65450  1.0000 -0.5469764877
O   O42       1.0  0.72930  0.07500  0.80430  1.0000 -0.5432267337
O   O43       1.0  0.41670  0.16040  0.57710  1.0000 -0.2065593668
O   O44       1.0  0.58290  0.16030  0.74320  1.0000 -0.1999198656
O   O45       1.0  0.27050  0.07500  0.34550  1.0000 -0.5469764877
O   O46       1.0  0.27070  0.92500  0.19570  1.0000 -0.5432267337
O   O47       1.0  0.58330  0.83960  0.42290  1.0000 -0.1999198656
O   O48       1.0  0.41710  0.83970  0.25680  1.0000 -0.1999198656
O   O49       1.0  0.92500  0.27050  0.19550  1.0000 -0.5469764877
O   O50       1.0  0.07500  0.27070  0.34570  1.0000 -0.5432267337
O   O51       1.0  0.16040  0.58330  0.74370  1.0000 -0.1999198656
O   O52       1.0  0.16030  0.41710  0.57740  1.0000 -0.1999198656
O   O53       1.0  0.07500  0.72950  0.80450  1.0000 -0.5469764877
O   O54       1.0  0.92500  0.72930  0.65430  1.0000 -0.5432267337
O   O55       1.0  0.83960  0.41670  0.25630  1.0000 -0.1999198656
O   O56       1.0  0.83970  0.58290  0.42260  1.0000 -0.1999198656
