# DDEC6 charges by PACMAN v1.1 (https://github.com/mtap-research/PACMAN-charge/)
data_2021[Zn][dia]3[ASR]4
_chemical_formula_sum              "Zn4 H40 C56 N16 O28"
_cell_length_a       14.5219
_cell_length_b       14.5219
_cell_length_c       14.498
_cell_angle_alpha    62.5602
_cell_angle_beta     117.44
_cell_angle_gamma    113.767

_symmetry_space_group_name_H-M    "P 1"
_symmetry_Int_Tables_number       1

loop_
  _symmetry_equiv_pos_as_xyz
  'x, y, z'

loop_
  _atom_site_type_symbol
  _atom_site_label
  _atom_site_symmetry_multiplicity
  _atom_site_fract_x
  _atom_site_fract_y
  _atom_site_fract_z
  _atom_site_occupancy
  _atom_site_charge
Zn  Zn1       1.0  0.59496  0.74938  0.96207  1.0000 0.7878899996
Zn  Zn2       1.0  0.25062  0.40504  0.46207  1.0000 0.7878899996
Zn  Zn3       1.0  0.74938  0.59496  0.53793  1.0000 0.7878899996
Zn  Zn4       1.0  0.40504  0.25062  0.03793  1.0000 0.7878899996
H   H1        1.0  0.63750  0.78618  0.70731  1.0000 0.2586881344
H   H2        1.0  0.73915  0.81851  0.86997  1.0000 0.2718395119
H   H3        1.0  0.67128  0.89264  0.80541  1.0000 0.2916191196
H   H4        1.0  0.45721  0.12403  0.68009  1.0000 0.1309288864
H   H5        1.0  0.46007  0.59789  0.48566  1.0000 0.1242836093
H   H6        1.0  0.23609  0.12313  0.77456  1.0000 0.1463186697
H   H7        1.0  0.40611  0.89983  0.95838  1.0000 0.1357976769
H   H8        1.0  0.34928  0.54621  0.75708  1.0000 0.1463186697
H   H9        1.0  0.55596  0.70542  0.59107  1.0000 0.1309288864
H   H10       1.0  0.25777  0.44683  0.64471  1.0000 0.1091465702
H   H11       1.0  0.21382  0.36250  0.20731  1.0000 0.2586881344
H   H12       1.0  0.18149  0.26085  0.36997  1.0000 0.2718395119
H   H13       1.0  0.10736  0.32872  0.30541  1.0000 0.2916191196
H   H14       1.0  0.87597  0.54279  0.18009  1.0000 0.1309288864
H   H15       1.0  0.40211  0.53993  0.98566  1.0000 0.1242836093
H   H16       1.0  0.87687  0.76391  0.27456  1.0000 0.1463186697
H   H17       1.0  0.10017  0.59389  0.45838  1.0000 0.1357976769
H   H18       1.0  0.45378  0.65071  0.25708  1.0000 0.1463186697
H   H19       1.0  0.29458  0.44404  0.09107  1.0000 0.1309288864
H   H20       1.0  0.55317  0.74223  0.14471  1.0000 0.1091465702
H   H21       1.0  0.78618  0.63750  0.79269  1.0000 0.2586881344
H   H22       1.0  0.81851  0.73915  0.63003  1.0000 0.2718395119
H   H23       1.0  0.89264  0.67128  0.69459  1.0000 0.2916191196
H   H24       1.0  0.12403  0.45721  0.81991  1.0000 0.1309288864
H   H25       1.0  0.59789  0.46007  0.01434  1.0000 0.1242836093
H   H26       1.0  0.12313  0.23609  0.72544  1.0000 0.1463186697
H   H27       1.0  0.89983  0.40611  0.54162  1.0000 0.1357976769
H   H28       1.0  0.54622  0.34929  0.74292  1.0000 0.1463186697
H   H29       1.0  0.70542  0.55596  0.90893  1.0000 0.1309288864
H   H30       1.0  0.44683  0.25777  0.85529  1.0000 0.1091465702
H   H31       1.0  0.36250  0.21382  0.29269  1.0000 0.2586881344
H   H32       1.0  0.26085  0.18149  0.13003  1.0000 0.2718395119
H   H33       1.0  0.32872  0.10736  0.19459  1.0000 0.2916191196
H   H34       1.0  0.54279  0.87597  0.31991  1.0000 0.1309288864
H   H35       1.0  0.53993  0.40211  0.51434  1.0000 0.1242836093
H   H36       1.0  0.76391  0.87687  0.22544  1.0000 0.1463186697
H   H37       1.0  0.59389  0.10017  0.04162  1.0000 0.1357976769
H   H38       1.0  0.65072  0.45378  0.24292  1.0000 0.1463186697
H   H39       1.0  0.44404  0.29458  0.40893  1.0000 0.1309288864
H   H40       1.0  0.74223  0.55317  0.35529  1.0000 0.1091465702
C   C1        1.0  0.46430  0.63790  0.68830  1.0000 0.021372685
C   C2        1.0  0.34420  0.14060  0.71250  1.0000 -0.0105316319
C   C3        1.0  0.42090  0.09410  0.72990  1.0000 -0.1009038302
C   C4        1.0  0.43790  0.58770  0.54120  1.0000 0.1091465702
C   C5        1.0  0.28950  0.09510  0.78620  1.0000 -0.1453620965
C   C6        1.0  0.52570  0.69750  0.76850  1.0000 0.4083030646
C   C7        1.0  0.39100  0.95980  0.89640  1.0000 -0.141130733
C   C8        1.0  0.31620  0.00740  0.87720  1.0000 0.0567910591
C   C9        1.0  0.37330  0.55850  0.70210  1.0000 -0.141130733
C   C10       1.0  0.44350  0.00370  0.82080  1.0000 -0.0016177162
C   C11       1.0  0.32190  0.23970  0.61520  1.0000 0.5309961264
C   C12       1.0  0.52090  0.94850  0.83560  1.0000 0.564620239
C   C13       1.0  0.49600  0.65240  0.60420  1.0000 -0.1990594591
C   C14       1.0  0.31950  0.49870  0.63500  1.0000 0.0900380139
C   C15       1.0  0.36210  0.53570  0.18830  1.0000 0.021372685
C   C16       1.0  0.85940  0.65580  0.21250  1.0000 -0.0105316319
C   C17       1.0  0.90590  0.57910  0.22990  1.0000 -0.1009038302
C   C18       1.0  0.41230  0.56210  0.04120  1.0000 0.1091465702
C   C19       1.0  0.90490  0.71050  0.28620  1.0000 -0.1453620965
C   C20       1.0  0.30250  0.47430  0.26850  1.0000 0.4083030646
C   C21       1.0  0.04020  0.60900  0.39640  1.0000 -0.141130733
C   C22       1.0  0.99260  0.68380  0.37720  1.0000 0.0567910591
C   C23       1.0  0.44150  0.62670  0.20210  1.0000 -0.141130733
C   C24       1.0  0.99630  0.55650  0.32080  1.0000 -0.0016177162
C   C25       1.0  0.76030  0.67810  0.11520  1.0000 0.5309961264
C   C26       1.0  0.05150  0.47910  0.33560  1.0000 0.564620239
C   C27       1.0  0.34760  0.50400  0.10420  1.0000 -0.1990594591
C   C28       1.0  0.50130  0.68050  0.13500  1.0000 0.0900380139
C   C29       1.0  0.63790  0.46430  0.81170  1.0000 0.021372685
C   C30       1.0  0.14060  0.34420  0.78750  1.0000 -0.0105316319
C   C31       1.0  0.09410  0.42090  0.77010  1.0000 -0.1009038302
C   C32       1.0  0.58770  0.43790  0.95880  1.0000 0.1091465702
C   C33       1.0  0.09510  0.28950  0.71380  1.0000 -0.141130733
C   C34       1.0  0.69750  0.52570  0.73150  1.0000 0.4083030646
C   C35       1.0  0.95980  0.39100  0.60360  1.0000 -0.141130733
C   C36       1.0  0.00740  0.31620  0.62280  1.0000 0.0567910591
C   C37       1.0  0.55850  0.37330  0.79790  1.0000 -0.141130733
C   C38       1.0  0.00370  0.44350  0.67920  1.0000 -0.0016177162
C   C39       1.0  0.23970  0.32190  0.88480  1.0000 0.5309961264
C   C40       1.0  0.94850  0.52090  0.66440  1.0000 0.564620239
C   C41       1.0  0.65240  0.49600  0.89580  1.0000 -0.1990594591
C   C42       1.0  0.49870  0.31950  0.86500  1.0000 0.0900380139
C   C43       1.0  0.53570  0.36210  0.31170  1.0000 0.021372685
C   C44       1.0  0.65580  0.85940  0.28750  1.0000 -0.0105316319
C   C45       1.0  0.57910  0.90590  0.27010  1.0000 -0.1009038302
C   C46       1.0  0.56210  0.41230  0.45880  1.0000 0.1091465702
C   C47       1.0  0.71050  0.90490  0.21380  1.0000 -0.1453620965
C   C48       1.0  0.47430  0.30250  0.23150  1.0000 0.4083030646
C   C49       1.0  0.60900  0.04020  0.10360  1.0000 -0.141130733
C   C50       1.0  0.68380  0.99260  0.12280  1.0000 0.0567910591
C   C51       1.0  0.62670  0.44150  0.29790  1.0000 -0.141130733
C   C52       1.0  0.55650  0.99630  0.17920  1.0000 -0.0016177162
C   C53       1.0  0.67810  0.76030  0.38480  1.0000 0.5309961264
C   C54       1.0  0.47910  0.05150  0.16440  1.0000 0.564620239
C   C55       1.0  0.50400  0.34760  0.39580  1.0000 -0.1990594591
C   C56       1.0  0.68050  0.50130  0.36500  1.0000 0.0900380139
N   N1        1.0  0.35050  0.51010  0.55580  1.0000 -0.2108139886
N   N2        1.0  0.61480  0.77100  0.75920  1.0000 -0.2108139886
N   N3        1.0  0.67150  0.82370  0.83820  1.0000 -0.4034824694
N   N4        1.0  0.25930  0.95910  0.95710  1.0000 0.5031607275
N   N5        1.0  0.48990  0.64950  0.05580  1.0000 -0.2108139886
N   N6        1.0  0.22900  0.38520  0.25920  1.0000 -0.2108139886
N   N7        1.0  0.17630  0.32850  0.33820  1.0000 -0.4034824694
N   N8        1.0  0.04090  0.74070  0.45710  1.0000 0.5031607275
N   N9        1.0  0.51010  0.35050  0.94420  1.0000 -0.2108139886
N   N10       1.0  0.77100  0.61480  0.74080  1.0000 -0.2108139886
N   N11       1.0  0.82370  0.67150  0.66180  1.0000 -0.4034824694
N   N12       1.0  0.95910  0.25930  0.54290  1.0000 0.5031607275
N   N13       1.0  0.64950  0.48990  0.44420  1.0000 -0.2108139886
N   N14       1.0  0.38520  0.22900  0.24080  1.0000 -0.2108139886
N   N15       1.0  0.32850  0.17630  0.16180  1.0000 -0.4034824694
N   N16       1.0  0.74070  0.04090  0.04290  1.0000 0.5031607275
O   O1        1.0  0.49280  0.67360  0.84410  1.0000 -0.4478310819
O   O2        1.0  0.54420  0.87500  0.92670  1.0000 -0.5600497897
O   O3        1.0  0.24450  0.27190  0.59760  1.0000 -0.5267508651
O   O4        1.0  0.37970  0.28750  0.55800  1.0000 -0.5482281918
O   O5        1.0  0.55520  0.97940  0.75980  1.0000 -0.5482281918
O   O6        1.0  0.18460  0.99160  0.93520  1.0000 -0.2983821283
O   O7        1.0  0.29140  0.88760  0.04200  1.0000 -0.324190485
O   O8        1.0  0.32640  0.50720  0.34410  1.0000 -0.4478310819
O   O9        1.0  0.12500  0.45580  0.42670  1.0000 -0.5600497897
O   O10       1.0  0.72810  0.75550  0.09760  1.0000 -0.5267508651
O   O11       1.0  0.71250  0.62030  0.05800  1.0000 -0.5482281918
O   O12       1.0  0.02060  0.44480  0.25980  1.0000 -0.5482281918
O   O13       1.0  0.00840  0.81540  0.43520  1.0000 -0.2983821283
O   O14       1.0  0.11240  0.70860  0.54200  1.0000 -0.324190485
O   O15       1.0  0.67360  0.49280  0.65590  1.0000 -0.4478310819
O   O16       1.0  0.87500  0.54420  0.57330  1.0000 -0.5600497897
O   O17       1.0  0.27190  0.24450  0.90240  1.0000 -0.5267508651
O   O18       1.0  0.28750  0.37970  0.94200  1.0000 -0.5482281918
O   O19       1.0  0.97940  0.55520  0.74020  1.0000 -0.5482281918
O   O20       1.0  0.99160  0.18460  0.56480  1.0000 -0.2983821283
O   O21       1.0  0.88760  0.29140  0.45800  1.0000 -0.3271452064
O   O22       1.0  0.50720  0.32640  0.15590  1.0000 -0.4478310819
O   O23       1.0  0.45580  0.12500  0.07330  1.0000 -0.5600497897
O   O24       1.0  0.75550  0.72810  0.40240  1.0000 -0.5267508651
O   O25       1.0  0.62030  0.71250  0.44200  1.0000 -0.5482281918
O   O26       1.0  0.44480  0.02060  0.24020  1.0000 -0.5482281918
O   O27       1.0  0.81540  0.00840  0.06480  1.0000 -0.2983821283
O   O28       1.0  0.70860  0.11240  0.95800  1.0000 -0.324190485
