# DDEC6 charges by PACMAN v1.1 (https://github.com/mtap-research/PACMAN-charge/)
data_2021[Zn][dia]3[ASR]1
_chemical_formula_sum              "Zn6 H20 C46 O26"
_cell_length_a       11.8075
_cell_length_b       15.2832
_cell_length_c       16.4071
_cell_angle_alpha    90
_cell_angle_beta     90
_cell_angle_gamma    90

_symmetry_space_group_name_H-M    "P 1"
_symmetry_Int_Tables_number       1

loop_
  _symmetry_equiv_pos_as_xyz
  'x, y, z'

loop_
  _atom_site_type_symbol
  _atom_site_label
  _atom_site_symmetry_multiplicity
  _atom_site_fract_x
  _atom_site_fract_y
  _atom_site_fract_z
  _atom_site_occupancy
  _atom_site_charge
Zn  Zn1       1.0  0.59755  0.17098  0.09964  1.0000 0.9404734747
Zn  Zn2       1.0  0.40245  0.67098  0.40036  1.0000 0.9404734747
Zn  Zn3       1.0  0.40245  0.67098  0.59964  1.0000 0.9404734747
Zn  Zn4       1.0  0.59755  0.17098  0.90036  1.0000 0.9404734747
Zn  Zn5       1.0  0.35077  0.11828  0.00000  1.0000 1.0347806888
Zn  Zn6       1.0  0.64923  0.61828  0.50000  1.0000 1.0359175878
H   H1        1.0  0.56020  0.05250  0.00000  1.0000 0.4065031188
H   H2        1.0  0.43980  0.55250  0.50000  1.0000 0.4043634014
H   H3        1.0  0.45670  0.39400  0.22770  1.0000 0.129224254
H   H4        1.0  0.54330  0.89400  0.27230  1.0000 0.129224254
H   H5        1.0  0.54330  0.89400  0.72770  1.0000 0.129224254
H   H6        1.0  0.45670  0.39400  0.77230  1.0000 0.129224254
H   H7        1.0  0.16780  0.52980  0.23420  1.0000 0.1420666056
H   H8        1.0  0.83220  0.02980  0.26580  1.0000 0.1420666056
H   H9        1.0  0.83220  0.02980  0.73420  1.0000 0.1420666056
H   H10       1.0  0.16780  0.52980  0.76580  1.0000 0.1420666056
H   H11       1.0  0.18020  0.30830  0.10660  1.0000 0.129224254
H   H12       1.0  0.81980  0.80830  0.39340  1.0000 0.129224254
H   H13       1.0  0.81980  0.80830  0.60660  1.0000 0.129224254
H   H14       1.0  0.18020  0.30830  0.89340  1.0000 0.129224254
H   H15       1.0  0.11630  0.47250  0.00000  1.0000 0.161093198
H   H16       1.0  0.88370  0.97250  0.50000  1.0000 0.161093198
H   H17       1.0  0.88130  0.33740  0.12250  1.0000 0.1506635399
H   H18       1.0  0.11870  0.83740  0.37750  1.0000 0.1506635399
H   H19       1.0  0.11870  0.83740  0.62250  1.0000 0.1506635399
H   H20       1.0  0.88130  0.33740  0.87750  1.0000 0.1506635399
C   C1        1.0  0.33070  0.33680  0.16030  1.0000 -0.0448734162
C   C2        1.0  0.66930  0.83680  0.33970  1.0000 -0.0457760864
C   C3        1.0  0.66930  0.83680  0.66030  1.0000 -0.0457760864
C   C4        1.0  0.33070  0.33680  0.83970  1.0000 -0.0457760864
C   C5        1.0  0.38110  0.40030  0.21310  1.0000 -0.0931123437
C   C6        1.0  0.61890  0.90030  0.28690  1.0000 -0.0931123437
C   C7        1.0  0.61890  0.90030  0.71310  1.0000 -0.0931123437
C   C8        1.0  0.38110  0.40030  0.78690  1.0000 -0.0931123437
C   C9        1.0  0.32120  0.47000  0.24260  1.0000 -0.0218042678
C   C10       1.0  0.67880  0.97000  0.25740  1.0000 -0.0218042678
C   C11       1.0  0.67880  0.97000  0.74260  1.0000 -0.0218042678
C   C12       1.0  0.32120  0.47000  0.75740  1.0000 -0.0218042678
C   C13       1.0  0.20850  0.48140  0.21630  1.0000 -0.1939554138
C   C14       1.0  0.79150  0.98140  0.28370  1.0000 -0.1939554138
C   C15       1.0  0.79150  0.98140  0.71630  1.0000 -0.1939554138
C   C16       1.0  0.20850  0.48140  0.78370  1.0000 -0.1939554138
C   C17       1.0  0.15870  0.42340  0.16570  1.0000 0.2331133114
C   C18       1.0  0.84130  0.92340  0.33430  1.0000 0.2331133114
C   C19       1.0  0.84130  0.92340  0.66570  1.0000 0.2331133114
C   C20       1.0  0.15870  0.42340  0.83430  1.0000 0.2331133114
C   C21       1.0  0.21700  0.34950  0.13890  1.0000 -0.2214083695
C   C22       1.0  0.78300  0.84950  0.36110  1.0000 -0.2094345911
C   C23       1.0  0.78300  0.84950  0.63890  1.0000 -0.2094345911
C   C24       1.0  0.21700  0.34950  0.86110  1.0000 -0.2094345911
C   C25       1.0  0.39630  0.26370  0.12940  1.0000 0.5956818538
C   C26       1.0  0.60370  0.76370  0.37060  1.0000 0.5949049072
C   C27       1.0  0.60370  0.76370  0.62940  1.0000 0.5956818538
C   C28       1.0  0.39630  0.26370  0.87060  1.0000 0.5949049072
C   C29       1.0  0.37700  0.53330  0.29810  1.0000 0.5447289424
C   C30       1.0  0.62300  0.03330  0.20190  1.0000 0.5447289424
C   C31       1.0  0.62300  0.03330  0.79810  1.0000 0.5447289424
C   C32       1.0  0.37700  0.53330  0.70190  1.0000 0.5453134852
C   C33       1.0  0.00690  0.41060  0.07100  1.0000 0.2471055465
C   C34       1.0  0.99310  0.91060  0.42900  1.0000 0.2471055465
C   C35       1.0  0.99310  0.91060  0.57100  1.0000 0.2471055465
C   C36       1.0  0.00690  0.41060  0.92900  1.0000 0.2471055465
C   C37       1.0  0.05270  0.43650  0.00000  1.0000 -0.2779865486
C   C38       1.0  0.94730  0.93650  0.50000  1.0000 -0.2779865486
C   C39       1.0  0.91170  0.35590  0.07310  1.0000 -0.2214083695
C   C40       1.0  0.08830  0.85590  0.42690  1.0000 -0.2255030198
C   C41       1.0  0.08830  0.85590  0.57310  1.0000 -0.2255030198
C   C42       1.0  0.91170  0.35590  0.92690  1.0000 -0.2214083695
C   C43       1.0  0.86430  0.33030  0.00000  1.0000 0.0167648822
C   C44       1.0  0.13570  0.83030  0.50000  1.0000 0.0167648822
C   C45       1.0  0.75840  0.27230  0.00000  1.0000 0.5828293042
C   C46       1.0  0.24160  0.77230  0.50000  1.0000 0.5828293042
O   O1        1.0  0.34350  0.20800  0.08580  1.0000 -0.6006207986
O   O2        1.0  0.65650  0.70800  0.41420  1.0000 -0.6006207986
O   O3        1.0  0.65650  0.70800  0.58580  1.0000 -0.6006207986
O   O4        1.0  0.34350  0.20800  0.91420  1.0000 -0.6006207986
O   O5        1.0  0.49640  0.25650  0.14840  1.0000 -0.4987898214
O   O6        1.0  0.50360  0.75650  0.35160  1.0000 -0.4987898214
O   O7        1.0  0.50360  0.75650  0.64840  1.0000 -0.4987898214
O   O8        1.0  0.49640  0.25650  0.85160  1.0000 -0.4987898214
O   O9        1.0  0.48020  0.52670  0.30960  1.0000 -0.521677099
O   O10       1.0  0.51980  0.02670  0.19040  1.0000 -0.521677099
O   O11       1.0  0.51980  0.02670  0.80960  1.0000 -0.521677099
O   O12       1.0  0.48020  0.52670  0.69040  1.0000 -0.521677099
O   O13       1.0  0.32150  0.59370  0.32510  1.0000 -0.5091845913
O   O14       1.0  0.67850  0.09370  0.17490  1.0000 -0.5091845913
O   O15       1.0  0.67850  0.09370  0.82510  1.0000 -0.5091845913
O   O16       1.0  0.32150  0.59370  0.67490  1.0000 -0.5091845913
O   O17       1.0  0.04740  0.43870  0.14540  1.0000 -0.2094345911
O   O18       1.0  0.95260  0.93870  0.35460  1.0000 -0.2094345911
O   O19       1.0  0.95260  0.93870  0.64540  1.0000 -0.2094345911
O   O20       1.0  0.04740  0.43870  0.85460  1.0000 -0.2094345911
O   O21       1.0  0.72250  0.25030  0.06590  1.0000 -0.4945076926
O   O22       1.0  0.27750  0.75030  0.43410  1.0000 -0.4945076926
O   O23       1.0  0.27750  0.75030  0.56590  1.0000 -0.4945076926
O   O24       1.0  0.72250  0.25030  0.93410  1.0000 -0.4987898214
O   O25       1.0  0.53630  0.11400  0.00000  1.0000 -0.8963795228
O   O26       1.0  0.46370  0.61400  0.50000  1.0000 -0.8963795228
