# DDEC6 charges by PACMAN v1.1 (https://github.com/mtap-research/PACMAN-charge/)
data_2021[Cd][nan]2[ASR]3
_chemical_formula_sum              "Cd4 H54 C72 N6 O16"
_cell_length_a       15.5674
_cell_length_b       15.5674
_cell_length_c       9.471
_cell_angle_alpha    79.6597
_cell_angle_beta     100.34
_cell_angle_gamma    100.111

_symmetry_space_group_name_H-M    "P 1"
_symmetry_Int_Tables_number       1

loop_
  _symmetry_equiv_pos_as_xyz
  'x, y, z'

loop_
  _atom_site_type_symbol
  _atom_site_label
  _atom_site_symmetry_multiplicity
  _atom_site_fract_x
  _atom_site_fract_y
  _atom_site_fract_z
  _atom_site_occupancy
  _atom_site_charge
Cd  Cd1       1.0  0.24328  0.56748  0.44079  1.0000 0.8584382042
Cd  Cd2       1.0  0.56748  0.24328  0.05921  1.0000 0.8584382042
Cd  Cd3       1.0  0.75672  0.43252  0.55921  1.0000 0.8584382042
Cd  Cd4       1.0  0.43252  0.75672  0.94079  1.0000 0.8584382042
H   H1        1.0  0.11971  0.26905  0.31409  1.0000 0.1179672791
H   H2        1.0  0.99021  0.06539  0.29793  1.0000 0.1179672791
H   H3        1.0  0.03276  0.15296  0.35861  1.0000 0.1179672791
H   H4        1.0  0.04343  0.16303  0.00020  1.0000 0.1128791383
H   H5        1.0  0.96407  0.24491  0.80041  1.0000 0.1128791383
H   H6        1.0  0.80576  0.28108  0.06706  1.0000 0.1179672791
H   H7        1.0  0.89122  0.21062  0.25620  1.0000 0.1179672791
H   H8        1.0  0.27729  0.53289  0.79495  1.0000 0.1297213787
H   H9        1.0  0.20553  0.50069  0.98702  1.0000 0.153015162
H   H10       1.0  0.07822  0.49488  0.09191  1.0000 0.1179672791
H   H11       1.0  0.01861  0.41527  0.02650  1.0000 0.1179672791
H   H12       1.0  0.98653  0.51259  0.72781  1.0000 0.1443927914
H   H13       1.0  0.06576  0.54174  0.53559  1.0000 0.1128791383
H   H14       1.0  0.26905  0.11971  0.18591  1.0000 0.1179672791
H   H15       1.0  0.06539  0.99021  0.20207  1.0000 0.1179672791
H   H16       1.0  0.15296  0.03276  0.14139  1.0000 0.1179672791
H   H17       1.0  0.16303  0.04343  0.49980  1.0000 0.1128791383
H   H18       1.0  0.24491  0.96407  0.69959  1.0000 0.1128791383
H   H19       1.0  0.28108  0.80576  0.43294  1.0000 0.1179672791
H   H20       1.0  0.21062  0.89122  0.24380  1.0000 0.1179672791
H   H21       1.0  0.53289  0.27729  0.70505  1.0000 0.1297213787
H   H22       1.0  0.50069  0.20553  0.51298  1.0000 0.153015162
H   H23       1.0  0.49488  0.07822  0.40809  1.0000 0.1179672791
H   H24       1.0  0.41527  0.01861  0.47350  1.0000 0.1179672791
H   H25       1.0  0.51259  0.98653  0.77219  1.0000 0.1443927914
H   H26       1.0  0.54174  0.06576  0.96441  1.0000 0.1128791383
H   H27       1.0  0.88029  0.73095  0.68591  1.0000 0.1179672791
H   H28       1.0  0.00979  0.93461  0.70207  1.0000 0.1179672791
H   H29       1.0  0.96724  0.84704  0.64139  1.0000 0.1179672791
H   H30       1.0  0.95657  0.83697  0.99980  1.0000 0.1128791383
H   H31       1.0  0.03593  0.75509  0.19959  1.0000 0.1128791383
H   H32       1.0  0.19424  0.71892  0.93294  1.0000 0.1179672791
H   H33       1.0  0.10878  0.78938  0.74380  1.0000 0.1179672791
H   H34       1.0  0.72271  0.46711  0.20505  1.0000 0.1297213787
H   H35       1.0  0.79447  0.49931  0.01298  1.0000 0.153015162
H   H36       1.0  0.92178  0.50512  0.90809  1.0000 0.1179672791
H   H37       1.0  0.98139  0.58473  0.97350  1.0000 0.1179672791
H   H38       1.0  0.01347  0.48741  0.27219  1.0000 0.1443927914
H   H39       1.0  0.93424  0.45826  0.46441  1.0000 0.1128791383
H   H40       1.0  0.73095  0.88029  0.81409  1.0000 0.1179672791
H   H41       1.0  0.93461  0.00979  0.79793  1.0000 0.1179672791
H   H42       1.0  0.84704  0.96724  0.85861  1.0000 0.1179672791
H   H43       1.0  0.83697  0.95657  0.50020  1.0000 0.1128791383
H   H44       1.0  0.75509  0.03593  0.30041  1.0000 0.1128791383
H   H45       1.0  0.71892  0.19424  0.56706  1.0000 0.1179672791
H   H46       1.0  0.78938  0.10878  0.75620  1.0000 0.1179672791
H   H47       1.0  0.46711  0.72271  0.29495  1.0000 0.1297213787
H   H48       1.0  0.49931  0.79447  0.48702  1.0000 0.153015162
H   H49       1.0  0.50512  0.92178  0.59191  1.0000 0.1179672791
H   H50       1.0  0.58473  0.98139  0.52650  1.0000 0.1179672791
H   H51       1.0  0.48741  0.01347  0.22781  1.0000 0.1443927914
H   H52       1.0  0.45826  0.93424  0.03559  1.0000 0.1128791383
H   H53       1.0  0.36784  0.36784  0.25000  1.0000 0.1297213787
H   H54       1.0  0.63216  0.63216  0.75000  1.0000 0.1297213787
C   C1        1.0  0.23730  0.41270  0.34910  1.0000 0.5364125028
C   C2        1.0  0.24370  0.32930  0.29350  1.0000 -0.0010350212
C   C3        1.0  0.17300  0.26160  0.29000  1.0000 -0.1954735153
C   C4        1.0  0.02500  0.12280  0.27510  1.0000 -0.1752124176
C   C5        1.0  0.97440  0.17580  0.14490  1.0000 0.1021417669
C   C6        1.0  0.99570  0.18730  0.01410  1.0000 -0.1621257223
C   C7        1.0  0.94740  0.23640  0.89210  1.0000 -0.1043493793
C   C8        1.0  0.87560  0.27080  0.91420  1.0000 -0.038247966
C   C9        1.0  0.82720  0.32380  0.78850  1.0000 0.5349582091
C   C10       1.0  0.85430  0.25890  0.05100  1.0000 -0.0885340728
C   C11       1.0  0.90430  0.21490  0.16300  1.0000 -0.1677816369
C   C12       1.0  0.21600  0.52740  0.77760  1.0000 0.0442645257
C   C13       1.0  0.17300  0.50780  0.89430  1.0000 -0.2190495804
C   C14       1.0  0.08580  0.49840  0.87950  1.0000 0.1443927914
C   C15       1.0  0.03730  0.47850  0.00760  1.0000 -0.213671957
C   C16       1.0  0.04750  0.51390  0.74690  1.0000 -0.2252214
C   C17       1.0  0.09670  0.53310  0.62930  1.0000 0.1021417669
C   C18       1.0  0.41270  0.23730  0.15090  1.0000 0.5364125028
C   C19       1.0  0.32930  0.24370  0.20650  1.0000 -0.0010350212
C   C20       1.0  0.26160  0.17300  0.21000  1.0000 -0.1954735153
C   C21       1.0  0.12280  0.02500  0.22490  1.0000 -0.1752124176
C   C22       1.0  0.17580  0.97440  0.35510  1.0000 0.1021417669
C   C23       1.0  0.18730  0.99570  0.48590  1.0000 -0.1621257223
C   C24       1.0  0.23640  0.94740  0.60790  1.0000 -0.108382083
C   C25       1.0  0.27080  0.87560  0.58580  1.0000 -0.038247966
C   C26       1.0  0.32380  0.82720  0.71150  1.0000 0.5349582091
C   C27       1.0  0.25890  0.85430  0.44900  1.0000 -0.0885340728
C   C28       1.0  0.21490  0.90430  0.33700  1.0000 -0.1677816369
C   C29       1.0  0.52740  0.21600  0.72240  1.0000 0.0442645257
C   C30       1.0  0.50780  0.17300  0.60570  1.0000 -0.2190495804
C   C31       1.0  0.49840  0.08580  0.62050  1.0000 0.1443927914
C   C32       1.0  0.47850  0.03730  0.49240  1.0000 -0.213671957
C   C33       1.0  0.51390  0.04750  0.75310  1.0000 -0.2190495804
C   C34       1.0  0.53310  0.09670  0.87070  1.0000 0.1021417669
C   C35       1.0  0.76270  0.58730  0.65090  1.0000 0.5364125028
C   C36       1.0  0.75630  0.67070  0.70650  1.0000 -0.0010350212
C   C37       1.0  0.82700  0.73840  0.71000  1.0000 -0.1954735153
C   C38       1.0  0.97500  0.87720  0.72490  1.0000 -0.1752124176
C   C39       1.0  0.02560  0.82420  0.85510  1.0000 0.1021417669
C   C40       1.0  0.00430  0.81270  0.98590  1.0000 -0.1621257223
C   C41       1.0  0.05260  0.76360  0.10790  1.0000 -0.108382083
C   C42       1.0  0.12440  0.72920  0.08580  1.0000 -0.038247966
C   C43       1.0  0.17280  0.67620  0.21150  1.0000 0.5364125028
C   C44       1.0  0.14570  0.74110  0.94900  1.0000 -0.0885340728
C   C45       1.0  0.09570  0.78510  0.83700  1.0000 -0.1677816369
C   C46       1.0  0.78400  0.47260  0.22240  1.0000 0.0442645257
C   C47       1.0  0.82700  0.49220  0.10570  1.0000 -0.2190495804
C   C48       1.0  0.91420  0.50160  0.12050  1.0000 0.1443927914
C   C49       1.0  0.96270  0.52150  0.99240  1.0000 -0.213671957
C   C50       1.0  0.95250  0.48610  0.25310  1.0000 -0.2252214
C   C51       1.0  0.90330  0.46690  0.37070  1.0000 0.1021417669
C   C52       1.0  0.58730  0.76270  0.84910  1.0000 0.5364125028
C   C53       1.0  0.67070  0.75630  0.79350  1.0000 -0.0010350212
C   C54       1.0  0.73840  0.82700  0.79000  1.0000 -0.1954735153
C   C55       1.0  0.87720  0.97500  0.77510  1.0000 -0.1752124176
C   C56       1.0  0.82420  0.02560  0.64490  1.0000 0.1021417669
C   C57       1.0  0.81270  0.00430  0.51410  1.0000 -0.1621257223
C   C58       1.0  0.76360  0.05260  0.39210  1.0000 -0.1043493793
C   C59       1.0  0.72920  0.12440  0.41420  1.0000 -0.038247966
C   C60       1.0  0.67620  0.17280  0.28850  1.0000 0.5349582091
C   C61       1.0  0.74110  0.14570  0.55100  1.0000 -0.0885340728
C   C62       1.0  0.78510  0.09570  0.66300  1.0000 -0.1677816369
C   C63       1.0  0.47260  0.78400  0.27760  1.0000 0.0455562055
C   C64       1.0  0.49220  0.82700  0.39430  1.0000 -0.2190495804
C   C65       1.0  0.50160  0.91420  0.37950  1.0000 0.1443927914
C   C66       1.0  0.52150  0.96270  0.50760  1.0000 -0.213671957
C   C67       1.0  0.48610  0.95250  0.24690  1.0000 -0.2252214
C   C68       1.0  0.46690  0.90330  0.12930  1.0000 0.1021417669
C   C69       1.0  0.32130  0.32130  0.25000  1.0000 -0.1195970595
C   C70       1.0  0.18220  0.18220  0.25000  1.0000 0.1614038601
C   C71       1.0  0.67870  0.67870  0.75000  1.0000 -0.1195970595
C   C72       1.0  0.81780  0.81780  0.75000  1.0000 0.1614038601
N   N1        1.0  0.17800  0.53900  0.64350  1.0000 -0.1621257223
N   N2        1.0  0.53900  0.17800  0.85650  1.0000 -0.1621257223
N   N3        1.0  0.82200  0.46100  0.35650  1.0000 -0.1621257223
N   N4        1.0  0.46100  0.82200  0.14350  1.0000 -0.1621257223
N   N5        1.0  0.11040  0.11040  0.25000  1.0000 -0.1195970595
N   N6        1.0  0.88960  0.88960  0.75000  1.0000 -0.108382083
O   O1        1.0  0.16530  0.42810  0.36870  1.0000 -0.5560193272
O   O2        1.0  0.30660  0.46500  0.37360  1.0000 -0.523850818
O   O3        1.0  0.85650  0.34210  0.66900  1.0000 -0.5560193272
O   O4        1.0  0.75820  0.35140  0.80260  1.0000 -0.5560193272
O   O5        1.0  0.42810  0.16530  0.13130  1.0000 -0.5540628975
O   O6        1.0  0.46500  0.30660  0.12640  1.0000 -0.523850818
O   O7        1.0  0.34210  0.85650  0.83100  1.0000 -0.5560193272
O   O8        1.0  0.35140  0.75820  0.69740  1.0000 -0.5560193272
O   O9        1.0  0.83470  0.57190  0.63130  1.0000 -0.5540628975
O   O10       1.0  0.69340  0.53500  0.62640  1.0000 -0.523850818
O   O11       1.0  0.14350  0.65790  0.33100  1.0000 -0.5560193272
O   O12       1.0  0.24180  0.64860  0.19740  1.0000 -0.5560193272
O   O13       1.0  0.57190  0.83470  0.86870  1.0000 -0.5540628975
O   O14       1.0  0.53500  0.69340  0.87360  1.0000 -0.523850818
O   O15       1.0  0.65790  0.14350  0.16900  1.0000 -0.5560193272
O   O16       1.0  0.64860  0.24180  0.30260  1.0000 -0.5560193272
