# DDEC6 charges by PACMAN v1.1 (https://github.com/mtap-research/PACMAN-charge/)
data_2021[Eu][rtl]3[ASR]1
_chemical_formula_sum              "Eu4 H24 C56 N4 O24"
_cell_length_a       10.732
_cell_length_b       16.724
_cell_length_c       16.9961
_cell_angle_alpha    90
_cell_angle_beta     117.783
_cell_angle_gamma    90

_symmetry_space_group_name_H-M    "P 1"
_symmetry_Int_Tables_number       1

loop_
  _symmetry_equiv_pos_as_xyz
  'x, y, z'

loop_
  _atom_site_type_symbol
  _atom_site_label
  _atom_site_symmetry_multiplicity
  _atom_site_fract_x
  _atom_site_fract_y
  _atom_site_fract_z
  _atom_site_occupancy
  _atom_site_charge
Eu  Eu1       1.0  0.07490  0.09563  0.95921  1.0000 2.0663811894
Eu  Eu2       1.0  0.92510  0.59563  0.54079  1.0000 2.0663811894
Eu  Eu3       1.0  0.92510  0.90437  0.04079  1.0000 2.0663811894
Eu  Eu4       1.0  0.07490  0.40437  0.45921  1.0000 2.0663811894
H   H1        1.0  0.10070  0.48140  0.81280  1.0000 0.1200884836
H   H2        1.0  0.33020  0.33180  0.74880  1.0000 0.1200884836
H   H3        1.0  0.34050  0.32530  0.98630  1.0000 0.1125799291
H   H4        1.0  0.53280  0.07630  0.99900  1.0000 0.1353781777
H   H5        1.0  0.76120  0.20500  0.91640  1.0000 0.1200884836
H   H6        1.0  0.59370  0.30370  0.86810  1.0000 0.1125799291
H   H7        1.0  0.89930  0.98140  0.68720  1.0000 0.1200884836
H   H8        1.0  0.66980  0.83180  0.75120  1.0000 0.1200884836
H   H9        1.0  0.65950  0.82530  0.51370  1.0000 0.1125799291
H   H10       1.0  0.46720  0.57630  0.50100  1.0000 0.1353781777
H   H11       1.0  0.23880  0.70500  0.58360  1.0000 0.1200884836
H   H12       1.0  0.40630  0.80370  0.63190  1.0000 0.1125799291
H   H13       1.0  0.89930  0.51860  0.18720  1.0000 0.1200884836
H   H14       1.0  0.66980  0.66820  0.25120  1.0000 0.1200884836
H   H15       1.0  0.65950  0.67470  0.01370  1.0000 0.1125799291
H   H16       1.0  0.46720  0.92370  0.00100  1.0000 0.1353781777
H   H17       1.0  0.23880  0.79500  0.08360  1.0000 0.1200884836
H   H18       1.0  0.40630  0.69630  0.13190  1.0000 0.1125799291
H   H19       1.0  0.10070  0.01860  0.31280  1.0000 0.1200884836
H   H20       1.0  0.33020  0.16820  0.24880  1.0000 0.1200884836
H   H21       1.0  0.34050  0.17470  0.48630  1.0000 0.1125799291
H   H22       1.0  0.53280  0.42370  0.49900  1.0000 0.1353781777
H   H23       1.0  0.76120  0.29500  0.41640  1.0000 0.1200884836
H   H24       1.0  0.59370  0.19630  0.36810  1.0000 0.1125799291
C   C1        1.0  0.16500  0.43960  0.82840  1.0000 0.0735140009
C   C2        1.0  0.20260  0.41120  0.76470  1.0000 -0.0817054739
C   C3        1.0  0.29980  0.35030  0.78860  1.0000 -0.1056259149
C   C4        1.0  0.35340  0.31580  0.87500  1.0000 0.0140564702
C   C5        1.0  0.30700  0.34790  0.93010  1.0000 0.0443110163
C   C6        1.0  0.45940  0.25110  0.90300  1.0000 0.0471862103
C   C7        1.0  0.44150  0.18200  0.94350  1.0000 -0.0457192665
C   C8        1.0  0.54470  0.12210  0.97220  1.0000 -0.1000596495
C   C9        1.0  0.66340  0.13000  0.96100  1.0000 -0.0328442711
C   C10       1.0  0.68050  0.19850  0.92300  1.0000 -0.1056259149
C   C11       1.0  0.57980  0.25800  0.89410  1.0000 -0.1447698591
C   C12       1.0  0.13430  0.44520  0.67260  1.0000 0.6478986325
C   C13       1.0  0.30980  0.16500  0.95150  1.0000 0.5663583609
C   C14       1.0  0.76520  0.06190  0.98880  1.0000 0.6175246569
C   C15       1.0  0.83500  0.93960  0.67160  1.0000 0.0735140009
C   C16       1.0  0.79740  0.91120  0.73530  1.0000 -0.0817054739
C   C17       1.0  0.70020  0.85030  0.71140  1.0000 -0.1056259149
C   C18       1.0  0.64660  0.81580  0.62500  1.0000 0.0140564702
C   C19       1.0  0.69300  0.84790  0.56990  1.0000 0.0443110163
C   C20       1.0  0.54060  0.75110  0.59700  1.0000 0.0471862103
C   C21       1.0  0.55850  0.68200  0.55650  1.0000 -0.0457192665
C   C22       1.0  0.45530  0.62210  0.52780  1.0000 -0.1000596495
C   C23       1.0  0.33660  0.63000  0.53900  1.0000 -0.0328442711
C   C24       1.0  0.31950  0.69850  0.57700  1.0000 -0.1056259149
C   C25       1.0  0.42020  0.75800  0.60590  1.0000 -0.1459140895
C   C26       1.0  0.86570  0.94520  0.82740  1.0000 0.6478986325
C   C27       1.0  0.69020  0.66500  0.54850  1.0000 0.5663583609
C   C28       1.0  0.23480  0.56190  0.51120  1.0000 0.6175246569
C   C29       1.0  0.83500  0.56040  0.17160  1.0000 0.0735140009
C   C30       1.0  0.79740  0.58880  0.23530  1.0000 -0.0817054739
C   C31       1.0  0.70020  0.64970  0.21140  1.0000 -0.1056259149
C   C32       1.0  0.64660  0.68420  0.12500  1.0000 0.0140564702
C   C33       1.0  0.69300  0.65210  0.06990  1.0000 0.0471862103
C   C34       1.0  0.54060  0.74890  0.09700  1.0000 0.0471862103
C   C35       1.0  0.55850  0.81800  0.05650  1.0000 -0.0457192665
C   C36       1.0  0.45530  0.87790  0.02780  1.0000 -0.1000596495
C   C37       1.0  0.33660  0.87000  0.03900  1.0000 -0.0328442711
C   C38       1.0  0.31950  0.80150  0.07700  1.0000 -0.1056259149
C   C39       1.0  0.42020  0.74200  0.10590  1.0000 -0.1459140895
C   C40       1.0  0.86570  0.55480  0.32740  1.0000 0.6478986325
C   C41       1.0  0.69020  0.83500  0.04850  1.0000 0.5663583609
C   C42       1.0  0.23480  0.93810  0.01120  1.0000 0.6175246569
C   C43       1.0  0.16500  0.06040  0.32840  1.0000 0.0735140009
C   C44       1.0  0.20260  0.08880  0.26470  1.0000 -0.0817054739
C   C45       1.0  0.29980  0.14970  0.28860  1.0000 -0.1056259149
C   C46       1.0  0.35340  0.18420  0.37500  1.0000 0.0140564702
C   C47       1.0  0.30700  0.15210  0.43010  1.0000 0.0443110163
C   C48       1.0  0.45940  0.24890  0.40300  1.0000 0.0471862103
C   C49       1.0  0.44150  0.31800  0.44350  1.0000 -0.0457192665
C   C50       1.0  0.54470  0.37790  0.47220  1.0000 -0.1000596495
C   C51       1.0  0.66340  0.37000  0.46100  1.0000 -0.0328442711
C   C52       1.0  0.68050  0.30150  0.42300  1.0000 -0.1056259149
C   C53       1.0  0.57980  0.24200  0.39410  1.0000 -0.1459140895
C   C54       1.0  0.13430  0.05480  0.17260  1.0000 0.6478986325
C   C55       1.0  0.30980  0.33500  0.45150  1.0000 0.5663583609
C   C56       1.0  0.76520  0.43810  0.48880  1.0000 0.6175246569
N   N1        1.0  0.21700  0.40930  0.91040  1.0000 -0.2584927982
N   N2        1.0  0.78300  0.90930  0.58960  1.0000 -0.2584927982
N   N3        1.0  0.78300  0.59070  0.08960  1.0000 -0.2584927982
N   N4        1.0  0.21700  0.09070  0.41040  1.0000 -0.2584927982
O   O1        1.0  0.16780  0.41360  0.61750  1.0000 -0.6705287067
O   O2        1.0  0.04930  0.50120  0.65620  1.0000 -0.6705287067
O   O3        1.0  0.19790  0.15410  0.88250  1.0000 -0.6328009782
O   O4        1.0  0.31610  0.15840  0.02710  1.0000 -0.6328009782
O   O5        1.0  0.87460  0.06940  0.97750  1.0000 -0.7732250956
O   O6        1.0  0.74650  0.00270  0.02230  1.0000 -0.5431670365
O   O7        1.0  0.83220  0.91360  0.88250  1.0000 -0.6705287067
O   O8        1.0  0.95070  0.00120  0.84380  1.0000 -0.6705287067
O   O9        1.0  0.80210  0.65410  0.61750  1.0000 -0.6328009782
O   O10       1.0  0.68390  0.65840  0.47290  1.0000 -0.6328009782
O   O11       1.0  0.12540  0.56940  0.52250  1.0000 -0.7732250956
O   O12       1.0  0.25350  0.50270  0.47770  1.0000 -0.5431670365
O   O13       1.0  0.83220  0.58640  0.38250  1.0000 -0.6705287067
O   O14       1.0  0.95070  0.49880  0.34380  1.0000 -0.6705287067
O   O15       1.0  0.80210  0.84590  0.11750  1.0000 -0.6328009782
O   O16       1.0  0.68390  0.84160  0.97290  1.0000 -0.6328009782
O   O17       1.0  0.12540  0.93060  0.02250  1.0000 -0.7732250956
O   O18       1.0  0.25350  0.99730  0.97770  1.0000 -0.5431670365
O   O19       1.0  0.16780  0.08640  0.11750  1.0000 -0.6705287067
O   O20       1.0  0.04930  0.99880  0.15620  1.0000 -0.6705287067
O   O21       1.0  0.19790  0.34590  0.38250  1.0000 -0.6328009782
O   O22       1.0  0.31610  0.34160  0.52710  1.0000 -0.6328009782
O   O23       1.0  0.87460  0.43060  0.47750  1.0000 -0.7732250956
O   O24       1.0  0.74650  0.49730  0.52230  1.0000 -0.5431670365
