# DDEC6 charges by PACMAN v1.1 (https://github.com/mtap-research/PACMAN-charge/)
data_2021[Ni][bnn]3[ASR]1
_chemical_formula_sum              "Ni4 H108 C152 N28 O16"
_cell_length_a       8.1537
_cell_length_b       38.284
_cell_length_c       12.6581
_cell_angle_alpha    90
_cell_angle_beta     101.302
_cell_angle_gamma    90

_symmetry_space_group_name_H-M    "P 1"
_symmetry_Int_Tables_number       1

loop_
  _symmetry_equiv_pos_as_xyz
  'x, y, z'

loop_
  _atom_site_type_symbol
  _atom_site_label
  _atom_site_symmetry_multiplicity
  _atom_site_fract_x
  _atom_site_fract_y
  _atom_site_fract_z
  _atom_site_occupancy
  _atom_site_charge
Ni  Ni1       1.0  0.76501  0.36145  0.31171  1.0000 0.7239895178
Ni  Ni2       1.0  0.73499  0.86145  0.68829  1.0000 0.7239895178
Ni  Ni3       1.0  0.23499  0.63855  0.68829  1.0000 0.7239895178
Ni  Ni4       1.0  0.26501  0.13855  0.31171  1.0000 0.7239895178
H   H1        1.0  0.70840  0.37690  0.62640  1.0000 0.1103858976
H   H2        1.0  0.17650  0.37160  0.70090  1.0000 0.1103858976
H   H3        1.0  0.67090  0.38450  0.79950  1.0000 0.126463355
H   H4        1.0  0.21580  0.36440  0.52700  1.0000 0.1103858976
H   H5        1.0  0.88960  0.40660  0.90890  1.0000 0.1103858976
H   H6        1.0  0.10600  0.40760  0.81620  1.0000 0.1203510616
H   H7        1.0  0.17930  0.35600  0.15370  1.0000 0.1203510616
H   H8        1.0  0.39410  0.35610  0.06090  1.0000 0.1203510616
H   H9        1.0  0.84890  0.32180  0.52680  1.0000 0.1203510616
H   H10       1.0  0.09780  0.30790  0.29700  1.0000 0.126463355
H   H11       1.0  0.20430  0.26550  0.43820  1.0000 0.126463355
H   H12       1.0  0.03430  0.31280  0.70660  1.0000 0.1390760008
H   H13       1.0  0.03910  0.19360  0.91460  1.0000 0.1390760008
H   H14       1.0  0.01820  0.31480  0.90070  1.0000 0.1203510616
H   H15       1.0  0.06180  0.22050  0.56180  1.0000 0.126463355
H   H16       1.0  0.02280  0.28630  0.06090  1.0000 0.126463355
H   H17       1.0  0.05470  0.19180  0.71920  1.0000 0.1203510616
H   H18       1.0  0.87430  0.24280  0.18190  1.0000 0.1203510616
H   H19       1.0  0.96270  0.19810  0.32000  1.0000 0.1203510616
H   H20       1.0  0.21710  0.18240  0.09490  1.0000 0.1103858976
H   H21       1.0  0.75210  0.42360  0.48890  1.0000 0.1203510616
H   H22       1.0  0.97690  0.46530  0.55150  1.0000 0.1203510616
H   H23       1.0  0.11490  0.40160  0.33810  1.0000 0.126463355
H   H24       1.0  0.24460  0.48390  0.59180  1.0000 0.1203510616
H   H25       1.0  0.31750  0.43810  0.31930  1.0000 0.1390760008
H   H26       1.0  0.55750  0.46960  0.32450  1.0000 0.126463355
H   H27       1.0  0.50700  0.38300  0.92500  1.0000 0.2856724425
H   H28       1.0  0.79160  0.87690  0.37360  1.0000 0.1103858976
H   H29       1.0  0.32350  0.87160  0.29910  1.0000 0.1103858976
H   H30       1.0  0.82910  0.88450  0.20050  1.0000 0.126463355
H   H31       1.0  0.28420  0.86440  0.47300  1.0000 0.1103858976
H   H32       1.0  0.61040  0.90660  0.09110  1.0000 0.1103858976
H   H33       1.0  0.39400  0.90760  0.18380  1.0000 0.1203510616
H   H34       1.0  0.32070  0.85600  0.84630  1.0000 0.1203510616
H   H35       1.0  0.10590  0.85610  0.93910  1.0000 0.1203510616
H   H36       1.0  0.65110  0.82180  0.47320  1.0000 0.1203510616
H   H37       1.0  0.40220  0.80790  0.70300  1.0000 0.126463355
H   H38       1.0  0.29570  0.76550  0.56180  1.0000 0.126463355
H   H39       1.0  0.46570  0.81280  0.29340  1.0000 0.1390760008
H   H40       1.0  0.46090  0.69360  0.08540  1.0000 0.1390760008
H   H41       1.0  0.48180  0.81480  0.09930  1.0000 0.1203510616
H   H42       1.0  0.43820  0.72050  0.43820  1.0000 0.126463355
H   H43       1.0  0.47720  0.78630  0.93910  1.0000 0.126463355
H   H44       1.0  0.44530  0.69180  0.28080  1.0000 0.1203510616
H   H45       1.0  0.62570  0.74280  0.81810  1.0000 0.1203510616
H   H46       1.0  0.53730  0.69810  0.68000  1.0000 0.1203510616
H   H47       1.0  0.28290  0.68240  0.90510  1.0000 0.1103858976
H   H48       1.0  0.74790  0.92360  0.51110  1.0000 0.1203510616
H   H49       1.0  0.52310  0.96530  0.44850  1.0000 0.1203510616
H   H50       1.0  0.38510  0.90160  0.66190  1.0000 0.126463355
H   H51       1.0  0.25540  0.98390  0.40820  1.0000 0.1203510616
H   H52       1.0  0.18250  0.93810  0.68070  1.0000 0.1390760008
H   H53       1.0  0.94250  0.96960  0.67550  1.0000 0.126463355
H   H54       1.0  0.99300  0.88300  0.07500  1.0000 0.2856724425
H   H55       1.0  0.29160  0.62310  0.37360  1.0000 0.1103858976
H   H56       1.0  0.82350  0.62840  0.29910  1.0000 0.1103858976
H   H57       1.0  0.32910  0.61550  0.20050  1.0000 0.126463355
H   H58       1.0  0.78420  0.63560  0.47300  1.0000 0.1103858976
H   H59       1.0  0.11040  0.59340  0.09110  1.0000 0.1103858976
H   H60       1.0  0.89400  0.59240  0.18380  1.0000 0.1203510616
H   H61       1.0  0.82070  0.64400  0.84630  1.0000 0.1203510616
H   H62       1.0  0.60590  0.64390  0.93910  1.0000 0.1203510616
H   H63       1.0  0.15110  0.67820  0.47320  1.0000 0.1203510616
H   H64       1.0  0.90220  0.69210  0.70300  1.0000 0.126463355
H   H65       1.0  0.79570  0.73450  0.56180  1.0000 0.126463355
H   H66       1.0  0.96570  0.68720  0.29340  1.0000 0.1390760008
H   H67       1.0  0.96090  0.80640  0.08540  1.0000 0.1390760008
H   H68       1.0  0.98180  0.68520  0.09930  1.0000 0.1203510616
H   H69       1.0  0.93820  0.77950  0.43820  1.0000 0.126463355
H   H70       1.0  0.97720  0.71370  0.93910  1.0000 0.126463355
H   H71       1.0  0.94530  0.80820  0.28080  1.0000 0.1203510616
H   H72       1.0  0.12570  0.75720  0.81810  1.0000 0.1203510616
H   H73       1.0  0.03730  0.80190  0.68000  1.0000 0.1203510616
H   H74       1.0  0.78290  0.81760  0.90510  1.0000 0.1103858976
H   H75       1.0  0.24790  0.57640  0.51110  1.0000 0.1203510616
H   H76       1.0  0.02310  0.53470  0.44850  1.0000 0.1203510616
H   H77       1.0  0.88510  0.59840  0.66190  1.0000 0.126463355
H   H78       1.0  0.75540  0.51610  0.40820  1.0000 0.1203510616
H   H79       1.0  0.68250  0.56190  0.68070  1.0000 0.1390760008
H   H80       1.0  0.44250  0.53040  0.67550  1.0000 0.126463355
H   H81       1.0  0.49300  0.61700  0.07500  1.0000 0.2856724425
H   H82       1.0  0.20840  0.12310  0.62640  1.0000 0.1103858976
H   H83       1.0  0.67650  0.12840  0.70090  1.0000 0.1103858976
H   H84       1.0  0.17090  0.11550  0.79950  1.0000 0.126463355
H   H85       1.0  0.71580  0.13560  0.52700  1.0000 0.1103858976
H   H86       1.0  0.38960  0.09340  0.90890  1.0000 0.1103858976
H   H87       1.0  0.60600  0.09240  0.81620  1.0000 0.1203510616
H   H88       1.0  0.67930  0.14400  0.15370  1.0000 0.1203510616
H   H89       1.0  0.89410  0.14390  0.06090  1.0000 0.1203510616
H   H90       1.0  0.34890  0.17820  0.52680  1.0000 0.1203510616
H   H91       1.0  0.59780  0.19210  0.29700  1.0000 0.126463355
H   H92       1.0  0.70430  0.23450  0.43820  1.0000 0.126463355
H   H93       1.0  0.53430  0.18720  0.70660  1.0000 0.1390760008
H   H94       1.0  0.53910  0.30640  0.91460  1.0000 0.1390760008
H   H95       1.0  0.51820  0.18520  0.90070  1.0000 0.1203510616
H   H96       1.0  0.56180  0.27950  0.56180  1.0000 0.126463355
H   H97       1.0  0.52280  0.21370  0.06090  1.0000 0.126463355
H   H98       1.0  0.55470  0.30820  0.71920  1.0000 0.1203510616
H   H99       1.0  0.37430  0.25720  0.18190  1.0000 0.1203510616
H   H100      1.0  0.46270  0.30190  0.32000  1.0000 0.1203510616
H   H101      1.0  0.71710  0.31760  0.09490  1.0000 0.1103858976
H   H102      1.0  0.25210  0.07640  0.48890  1.0000 0.1203510616
H   H103      1.0  0.47690  0.03470  0.55150  1.0000 0.1203510616
H   H104      1.0  0.61490  0.09840  0.33810  1.0000 0.126463355
H   H105      1.0  0.74460  0.01610  0.59180  1.0000 0.1203510616
H   H106      1.0  0.81750  0.06190  0.31930  1.0000 0.1390760008
H   H107      1.0  0.05750  0.03040  0.32450  1.0000 0.126463355
H   H108      1.0  0.00700  0.11700  0.92500  1.0000 0.2856724425
C   C1        1.0  0.49350  0.36518  0.44310  1.0000 0.5491707487
C   C2        1.0  0.46550  0.36981  0.55606  1.0000 -0.0575680775
C   C3        1.0  0.60100  0.37588  0.64080  1.0000 -0.1031290726
C   C4        1.0  0.42010  0.37864  0.77000  1.0000 0.2362518026
C   C5        1.0  0.28390  0.37266  0.68640  1.0000 -0.217620364
C   C6        1.0  0.57860  0.38031  0.74500  1.0000 -0.217620364
C   C7        1.0  0.30810  0.36835  0.58170  1.0000 -0.1070258716
C   C8        1.0  0.27310  0.38098  0.92730  1.0000 0.2362518026
C   C9        1.0  0.99050  0.39602  0.93900  1.0000 -0.1031290726
C   C10       1.0  0.00670  0.37988  0.03950  1.0000 -0.0575680775
C   C11       1.0  0.86440  0.37766  0.09770  1.0000 0.5491707487
C   C12       1.0  0.12030  0.39673  0.88300  1.0000 -0.2118599997
C   C13       1.0  0.16270  0.36575  0.08510  1.0000 -0.0872619362
C   C14       1.0  0.29200  0.36606  0.02960  1.0000 -0.2040232258
C   C15       1.0  0.92380  0.31308  0.48660  1.0000 0.0940112982
C   C16       1.0  0.05990  0.30531  0.36120  1.0000 -0.0230425846
C   C17       1.0  0.12040  0.28193  0.43910  1.0000 -0.1070258716
C   C18       1.0  0.03290  0.23691  0.00130  1.0000 0.1585592789
C   C19       1.0  0.04480  0.26970  0.62070  1.0000 0.1548322006
C   C20       1.0  0.03450  0.27167  0.80890  1.0000 0.0940112982
C   C21       1.0  0.04170  0.23485  0.81250  1.0000 0.0970810889
C   C22       1.0  0.03750  0.28852  0.71020  1.0000 -0.2331104414
C   C23       1.0  0.03800  0.21790  0.91130  1.0000 -0.2361915992
C   C24       1.0  0.02520  0.29052  0.90340  1.0000 -0.1274949535
C   C25       1.0  0.05380  0.23300  0.62360  1.0000 -0.1892451072
C   C26       1.0  0.02630  0.27369  0.99860  1.0000 -0.1892451072
C   C27       1.0  0.05070  0.21612  0.71730  1.0000 -0.1274949535
C   C28       1.0  0.95320  0.22539  0.18060  1.0000 -0.1031290726
C   C29       1.0  0.00400  0.20061  0.25700  1.0000 -0.0230425846
C   C30       1.0  0.14290  0.19181  0.13440  1.0000 0.0940112982
C   C31       1.0  0.85400  0.42439  0.46650  1.0000 -0.0343549648
C   C32       1.0  0.97760  0.44757  0.50130  1.0000 -0.1162454323
C   C33       1.0  0.05210  0.41208  0.38330  1.0000 0.1203510616
C   C34       1.0  0.25670  0.45867  0.45480  1.0000 0.1704130782
C   C35       1.0  0.54800  0.49783  0.45950  1.0000 0.083062136
C   C36       1.0  0.30630  0.48168  0.53760  1.0000 -0.247697691
C   C37       1.0  0.35170  0.45406  0.37450  1.0000 -0.169220029
C   C38       1.0  0.49460  0.47308  0.37750  1.0000 -0.1274949535
C   C39       1.0  0.00650  0.86518  0.55690  1.0000 0.5491707487
C   C40       1.0  0.03450  0.86981  0.44394  1.0000 -0.0575680775
C   C41       1.0  0.89900  0.87588  0.35920  1.0000 -0.1031290726
C   C42       1.0  0.07990  0.87864  0.23000  1.0000 0.2362518026
C   C43       1.0  0.21610  0.87266  0.31360  1.0000 -0.217620364
C   C44       1.0  0.92140  0.88031  0.25500  1.0000 -0.217620364
C   C45       1.0  0.19190  0.86835  0.41830  1.0000 -0.1070258716
C   C46       1.0  0.22690  0.88098  0.07270  1.0000 0.2362518026
C   C47       1.0  0.50950  0.89602  0.06100  1.0000 -0.1031290726
C   C48       1.0  0.49330  0.87988  0.96050  1.0000 -0.0575680775
C   C49       1.0  0.63560  0.87766  0.90230  1.0000 0.5491707487
C   C50       1.0  0.37970  0.89673  0.11700  1.0000 -0.2118599997
C   C51       1.0  0.33730  0.86575  0.91490  1.0000 -0.0872619362
C   C52       1.0  0.20800  0.86606  0.97040  1.0000 -0.2040232258
C   C53       1.0  0.57620  0.81308  0.51340  1.0000 0.0940112982
C   C54       1.0  0.44010  0.80531  0.63880  1.0000 -0.0230425846
C   C55       1.0  0.37960  0.78193  0.56090  1.0000 -0.1070258716
C   C56       1.0  0.46710  0.73691  0.99870  1.0000 0.1585592789
C   C57       1.0  0.45520  0.76970  0.37930  1.0000 0.1548322006
C   C58       1.0  0.46550  0.77167  0.19110  1.0000 0.0940112982
C   C59       1.0  0.45830  0.73485  0.18750  1.0000 0.0970810889
C   C60       1.0  0.46250  0.78852  0.28980  1.0000 -0.2331104414
C   C61       1.0  0.46200  0.71790  0.08870  1.0000 -0.2361915992
C   C62       1.0  0.47480  0.79052  0.09660  1.0000 -0.1274949535
C   C63       1.0  0.44620  0.73300  0.37640  1.0000 -0.1892451072
C   C64       1.0  0.47370  0.77369  0.00140  1.0000 -0.1892451072
C   C65       1.0  0.44930  0.71612  0.28270  1.0000 -0.1274949535
C   C66       1.0  0.54680  0.72539  0.81940  1.0000 -0.1031290726
C   C67       1.0  0.49600  0.70061  0.74300  1.0000 -0.0230425846
C   C68       1.0  0.35710  0.69181  0.86560  1.0000 0.0940112982
C   C69       1.0  0.64600  0.92439  0.53350  1.0000 -0.0343549648
C   C70       1.0  0.52240  0.94757  0.49870  1.0000 -0.1162454323
C   C71       1.0  0.44790  0.91208  0.61670  1.0000 0.1203510616
C   C72       1.0  0.24330  0.95867  0.54520  1.0000 0.1704130782
C   C73       1.0  0.95200  0.99783  0.54050  1.0000 0.083062136
C   C74       1.0  0.19370  0.98168  0.46240  1.0000 -0.247697691
C   C75       1.0  0.14830  0.95406  0.62550  1.0000 -0.169220029
C   C76       1.0  0.00540  0.97308  0.62250  1.0000 -0.1274949535
C   C77       1.0  0.50650  0.63482  0.55690  1.0000 0.5491707487
C   C78       1.0  0.53450  0.63019  0.44394  1.0000 -0.0575680775
C   C79       1.0  0.39900  0.62412  0.35920  1.0000 -0.1031290726
C   C80       1.0  0.57990  0.62136  0.23000  1.0000 0.2362518026
C   C81       1.0  0.71610  0.62734  0.31360  1.0000 -0.217620364
C   C82       1.0  0.42140  0.61969  0.25500  1.0000 -0.217620364
C   C83       1.0  0.69190  0.63165  0.41830  1.0000 -0.1070258716
C   C84       1.0  0.72690  0.61902  0.07270  1.0000 0.2362518026
C   C85       1.0  0.00950  0.60398  0.06100  1.0000 -0.1031290726
C   C86       1.0  0.99330  0.62012  0.96050  1.0000 -0.0575680775
C   C87       1.0  0.13560  0.62234  0.90230  1.0000 0.5491707487
C   C88       1.0  0.87970  0.60327  0.11700  1.0000 -0.2118599997
C   C89       1.0  0.83730  0.63425  0.91490  1.0000 -0.0872619362
C   C90       1.0  0.70800  0.63394  0.97040  1.0000 -0.2040232258
C   C91       1.0  0.07620  0.68692  0.51340  1.0000 0.0940112982
C   C92       1.0  0.94010  0.69469  0.63880  1.0000 -0.0230425846
C   C93       1.0  0.87960  0.71807  0.56090  1.0000 -0.1070258716
C   C94       1.0  0.96710  0.76309  0.99870  1.0000 0.1585592789
C   C95       1.0  0.95520  0.73030  0.37930  1.0000 0.1548322006
C   C96       1.0  0.96550  0.72833  0.19110  1.0000 0.0940112982
C   C97       1.0  0.95830  0.76515  0.18750  1.0000 0.0970810889
C   C98       1.0  0.96250  0.71148  0.28980  1.0000 -0.2331104414
C   C99       1.0  0.96200  0.78210  0.08870  1.0000 -0.2361915992
C   C100      1.0  0.97480  0.70948  0.09660  1.0000 -0.1274949535
C   C101      1.0  0.94620  0.76700  0.37640  1.0000 -0.1892451072
C   C102      1.0  0.97370  0.72631  0.00140  1.0000 -0.1892451072
C   C103      1.0  0.94930  0.78388  0.28270  1.0000 -0.1274949535
C   C104      1.0  0.04680  0.77461  0.81940  1.0000 -0.1031290726
C   C105      1.0  0.99600  0.79939  0.74300  1.0000 -0.0230425846
C   C106      1.0  0.85710  0.80819  0.86560  1.0000 0.0940112982
C   C107      1.0  0.14600  0.57561  0.53350  1.0000 -0.0343549648
C   C108      1.0  0.02240  0.55243  0.49870  1.0000 -0.1162454323
C   C109      1.0  0.94790  0.58792  0.61670  1.0000 0.1203510616
C   C110      1.0  0.74330  0.54133  0.54520  1.0000 0.1704130782
C   C111      1.0  0.45200  0.50217  0.54050  1.0000 0.083062136
C   C112      1.0  0.69370  0.51832  0.46240  1.0000 -0.247697691
C   C113      1.0  0.64830  0.54594  0.62550  1.0000 -0.169220029
C   C114      1.0  0.50540  0.52692  0.62250  1.0000 -0.1274949535
C   C115      1.0  0.99350  0.13482  0.44310  1.0000 0.5491707487
C   C116      1.0  0.96550  0.13019  0.55606  1.0000 -0.0575680775
C   C117      1.0  0.10100  0.12412  0.64080  1.0000 -0.1031290726
C   C118      1.0  0.92010  0.12136  0.77000  1.0000 0.2362518026
C   C119      1.0  0.78390  0.12734  0.68640  1.0000 -0.217620364
C   C120      1.0  0.07860  0.11969  0.74500  1.0000 -0.217620364
C   C121      1.0  0.80810  0.13165  0.58170  1.0000 -0.1070258716
C   C122      1.0  0.77310  0.11902  0.92730  1.0000 0.2362518026
C   C123      1.0  0.49050  0.10398  0.93900  1.0000 -0.1031290726
C   C124      1.0  0.50670  0.12012  0.03950  1.0000 -0.0575680775
C   C125      1.0  0.36440  0.12234  0.09770  1.0000 0.5491707487
C   C126      1.0  0.62030  0.10327  0.88300  1.0000 -0.2118599997
C   C127      1.0  0.66270  0.13425  0.08510  1.0000 -0.0872619362
C   C128      1.0  0.79200  0.13394  0.02960  1.0000 -0.2040232258
C   C129      1.0  0.42380  0.18692  0.48660  1.0000 0.0940112982
C   C130      1.0  0.55990  0.19469  0.36120  1.0000 -0.0230425846
C   C131      1.0  0.62040  0.21807  0.43910  1.0000 -0.1070258716
C   C132      1.0  0.53290  0.26309  0.00130  1.0000 0.1585592789
C   C133      1.0  0.54480  0.23030  0.62070  1.0000 0.1548322006
C   C134      1.0  0.53450  0.22833  0.80890  1.0000 0.0940112982
C   C135      1.0  0.54170  0.26515  0.81250  1.0000 0.0970810889
C   C136      1.0  0.53750  0.21148  0.71020  1.0000 -0.2331104414
C   C137      1.0  0.53800  0.28210  0.91130  1.0000 -0.2361915992
C   C138      1.0  0.52520  0.20948  0.90340  1.0000 -0.1274949535
C   C139      1.0  0.55380  0.26700  0.62360  1.0000 -0.1892451072
C   C140      1.0  0.52630  0.22631  0.99860  1.0000 -0.1892451072
C   C141      1.0  0.55070  0.28388  0.71730  1.0000 -0.1274949535
C   C142      1.0  0.45320  0.27461  0.18060  1.0000 -0.1031290726
C   C143      1.0  0.50400  0.29939  0.25700  1.0000 -0.0230425846
C   C144      1.0  0.64290  0.30819  0.13440  1.0000 0.0940112982
C   C145      1.0  0.35400  0.07561  0.46650  1.0000 -0.0343549648
C   C146      1.0  0.47760  0.05243  0.50130  1.0000 -0.1162454323
C   C147      1.0  0.55210  0.08792  0.38330  1.0000 0.1203510616
C   C148      1.0  0.75670  0.04133  0.45480  1.0000 0.1704130782
C   C149      1.0  0.04800  0.00217  0.45950  1.0000 0.083062136
C   C150      1.0  0.80630  0.01832  0.53760  1.0000 -0.247697691
C   C151      1.0  0.85170  0.04594  0.37450  1.0000 -0.169220029
C   C152      1.0  0.99460  0.02692  0.37750  1.0000 -0.1274949535
N   N1        1.0  0.93550  0.32461  0.39044  1.0000 -0.2576467531
N   N2        1.0  0.03280  0.28732  0.51953  1.0000 -0.0021687692
N   N3        1.0  0.04170  0.21937  0.10207  1.0000 -0.0021687692
N   N4        1.0  0.12330  0.18002  0.22817  1.0000 -0.2576467531
N   N5        1.0  0.90210  0.40201  0.39259  1.0000 -0.2703964548
N   N6        1.0  0.10420  0.43984  0.44795  1.0000 0.0045226351
N   N7        1.0  0.41210  0.38111  0.87855  1.0000 -0.3470908539
N   N8        1.0  0.56450  0.82461  0.60956  1.0000 -0.2576467531
N   N9        1.0  0.46720  0.78732  0.48047  1.0000 -0.0021687692
N   N10       1.0  0.45830  0.71937  0.89793  1.0000 -0.0021687692
N   N11       1.0  0.37670  0.68002  0.77183  1.0000 -0.2576467531
N   N12       1.0  0.59790  0.90201  0.60741  1.0000 -0.2703964548
N   N13       1.0  0.39580  0.93984  0.55205  1.0000 0.0045226351
N   N14       1.0  0.08790  0.88111  0.12145  1.0000 -0.3470908539
N   N15       1.0  0.06450  0.67539  0.60956  1.0000 -0.2576467531
N   N16       1.0  0.96720  0.71268  0.48047  1.0000 -0.0021687692
N   N17       1.0  0.95830  0.78063  0.89793  1.0000 -0.0021687692
N   N18       1.0  0.87670  0.81998  0.77183  1.0000 -0.2576467531
N   N19       1.0  0.09790  0.59799  0.60741  1.0000 -0.2703964548
N   N20       1.0  0.89580  0.56016  0.55205  1.0000 0.0045226351
N   N21       1.0  0.58790  0.61889  0.12145  1.0000 -0.3470908539
N   N22       1.0  0.43550  0.17539  0.39044  1.0000 -0.2576467531
N   N23       1.0  0.53280  0.21268  0.51953  1.0000 -0.0021687692
N   N24       1.0  0.54170  0.28063  0.10207  1.0000 -0.0021687692
N   N25       1.0  0.62330  0.31998  0.22817  1.0000 -0.2576467531
N   N26       1.0  0.40210  0.09799  0.39259  1.0000 -0.2703964548
N   N27       1.0  0.60420  0.06016  0.44795  1.0000 0.0045226351
N   N28       1.0  0.91210  0.11889  0.87855  1.0000 -0.3470908539
O   O1        1.0  0.64260  0.35735  0.43674  1.0000 -0.5663692193
O   O2        1.0  0.37550  0.36888  0.36528  1.0000 -0.5589255826
O   O3        1.0  0.72120  0.38737  0.05107  1.0000 -0.5874449448
O   O4        1.0  0.89980  0.36504  0.19221  1.0000 -0.5589255826
O   O5        1.0  0.85740  0.85735  0.56326  1.0000 -0.5663692193
O   O6        1.0  0.12450  0.86888  0.63472  1.0000 -0.5589255826
O   O7        1.0  0.77880  0.88737  0.94893  1.0000 -0.5874449448
O   O8        1.0  0.60020  0.86504  0.80779  1.0000 -0.5589255826
O   O9        1.0  0.35740  0.64265  0.56326  1.0000 -0.5663692193
O   O10       1.0  0.62450  0.63112  0.63472  1.0000 -0.5589255826
O   O11       1.0  0.27880  0.61263  0.94893  1.0000 -0.5874449448
O   O12       1.0  0.10020  0.63496  0.80779  1.0000 -0.5589255826
O   O13       1.0  0.14260  0.14265  0.43674  1.0000 -0.5663692193
O   O14       1.0  0.87550  0.13112  0.36528  1.0000 -0.5589255826
O   O15       1.0  0.22120  0.11263  0.05107  1.0000 -0.5874449448
O   O16       1.0  0.39980  0.13496  0.19221  1.0000 -0.5589255826
