# DDEC6 charges by PACMAN v1.1 (https://github.com/mtap-research/PACMAN-charge/)
data_2021[Sm][rtl]3[ASR]1
_chemical_formula_sum              "Sm4 H24 C56 N4 O24"
_cell_length_a       10.694
_cell_length_b       16.741
_cell_length_c       17.0208
_cell_angle_alpha    90
_cell_angle_beta     118.003
_cell_angle_gamma    90

_symmetry_space_group_name_H-M    "P 1"
_symmetry_Int_Tables_number       1

loop_
  _symmetry_equiv_pos_as_xyz
  'x, y, z'

loop_
  _atom_site_type_symbol
  _atom_site_label
  _atom_site_symmetry_multiplicity
  _atom_site_fract_x
  _atom_site_fract_y
  _atom_site_fract_z
  _atom_site_occupancy
  _atom_site_charge
Sm  Sm1       1.0  0.92675  0.40516  0.04147  1.0000 2.0753812644
Sm  Sm2       1.0  0.07325  0.90516  0.45853  1.0000 2.0740723464
Sm  Sm3       1.0  0.07325  0.59484  0.95853  1.0000 2.0753812644
Sm  Sm4       1.0  0.92675  0.09484  0.54147  1.0000 2.0740723464
H   H1        1.0  0.89790  0.48020  0.68960  1.0000 0.1179144019
H   H2        1.0  0.67000  0.32860  0.74970  1.0000 0.1250126514
H   H3        1.0  0.65890  0.32420  0.51380  1.0000 0.1126269418
H   H4        1.0  0.47070  0.07600  0.50200  1.0000 0.1353549065
H   H5        1.0  0.23830  0.20260  0.58320  1.0000 0.1179144019
H   H6        1.0  0.40210  0.30410  0.62610  1.0000 0.1179144019
H   H7        1.0  0.10210  0.98020  0.81040  1.0000 0.1179144019
H   H8        1.0  0.33000  0.82860  0.75030  1.0000 0.1250126514
H   H9        1.0  0.34110  0.82420  0.98620  1.0000 0.1126269418
H   H10       1.0  0.52930  0.57600  0.99800  1.0000 0.1353549065
H   H11       1.0  0.76170  0.70260  0.91680  1.0000 0.1179144019
H   H12       1.0  0.59790  0.80410  0.87390  1.0000 0.1179144019
H   H13       1.0  0.10210  0.51980  0.31040  1.0000 0.1179144019
H   H14       1.0  0.33000  0.67140  0.25030  1.0000 0.1250126514
H   H15       1.0  0.34110  0.67580  0.48620  1.0000 0.1126269418
H   H16       1.0  0.52930  0.92400  0.49800  1.0000 0.1353549065
H   H17       1.0  0.76170  0.79740  0.41680  1.0000 0.1179144019
H   H18       1.0  0.59790  0.69590  0.37390  1.0000 0.1126269418
H   H19       1.0  0.89790  0.01980  0.18960  1.0000 0.1179144019
H   H20       1.0  0.67000  0.17140  0.24970  1.0000 0.1250126514
H   H21       1.0  0.65890  0.17580  0.01380  1.0000 0.1126269418
H   H22       1.0  0.47070  0.42400  0.00200  1.0000 0.1353549065
H   H23       1.0  0.23830  0.29740  0.08320  1.0000 0.1179144019
H   H24       1.0  0.40210  0.19590  0.12610  1.0000 0.1179144019
C   C1        1.0  0.83490  0.43760  0.67360  1.0000 0.07112035
C   C2        1.0  0.79610  0.40960  0.73580  1.0000 -0.0859778092
C   C3        1.0  0.69960  0.34830  0.71000  1.0000 -0.1004973713
C   C4        1.0  0.64640  0.31560  0.62650  1.0000 0.0183429791
C   C5        1.0  0.69360  0.34650  0.57020  1.0000 0.0441369473
C   C6        1.0  0.54070  0.24990  0.59600  1.0000 0.0535987991
C   C7        1.0  0.56120  0.18060  0.55770  1.0000 -0.0586998349
C   C8        1.0  0.45810  0.12170  0.52860  1.0000 -0.1004973713
C   C9        1.0  0.33740  0.12900  0.53790  1.0000 -0.0393524107
C   C10       1.0  0.31860  0.19690  0.57570  1.0000 -0.1078526748
C   C11       1.0  0.41840  0.25740  0.60280  1.0000 -0.1486983744
C   C12       1.0  0.86390  0.44360  0.82700  1.0000 0.6478171053
C   C13       1.0  0.69210  0.16380  0.55070  1.0000 0.5630273822
C   C14       1.0  0.23440  0.06190  0.51100  1.0000 0.6287985298
C   C15       1.0  0.16510  0.93760  0.82640  1.0000 0.07112035
C   C16       1.0  0.20390  0.90960  0.76420  1.0000 -0.0859778092
C   C17       1.0  0.30040  0.84830  0.79000  1.0000 -0.1004973713
C   C18       1.0  0.35360  0.81560  0.87350  1.0000 0.0183429791
C   C19       1.0  0.30640  0.84650  0.92980  1.0000 0.0441369473
C   C20       1.0  0.45930  0.74990  0.90400  1.0000 0.0535987991
C   C21       1.0  0.43880  0.68060  0.94230  1.0000 -0.0586998349
C   C22       1.0  0.54190  0.62170  0.97140  1.0000 -0.1004973713
C   C23       1.0  0.66260  0.62900  0.96210  1.0000 -0.0393524107
C   C24       1.0  0.68140  0.69690  0.92430  1.0000 -0.1078526748
C   C25       1.0  0.58160  0.75740  0.89720  1.0000 -0.1486983744
C   C26       1.0  0.13610  0.94360  0.67300  1.0000 0.6478171053
C   C27       1.0  0.30790  0.66380  0.94930  1.0000 0.5630273822
C   C28       1.0  0.76560  0.56190  0.98900  1.0000 0.6287985298
C   C29       1.0  0.16510  0.56240  0.32640  1.0000 0.07112035
C   C30       1.0  0.20390  0.59040  0.26420  1.0000 -0.0859778092
C   C31       1.0  0.30040  0.65170  0.29000  1.0000 -0.1004973713
C   C32       1.0  0.35360  0.68440  0.37350  1.0000 0.0183429791
C   C33       1.0  0.30640  0.65350  0.42980  1.0000 0.0441369473
C   C34       1.0  0.45930  0.75010  0.40400  1.0000 0.0535987991
C   C35       1.0  0.43880  0.81940  0.44230  1.0000 -0.0586998349
C   C36       1.0  0.54190  0.87830  0.47140  1.0000 -0.1004973713
C   C37       1.0  0.66260  0.87100  0.46210  1.0000 -0.0393524107
C   C38       1.0  0.68140  0.80310  0.42430  1.0000 -0.1078526748
C   C39       1.0  0.58160  0.74260  0.39720  1.0000 -0.1486983744
C   C40       1.0  0.13610  0.55640  0.17300  1.0000 0.6478171053
C   C41       1.0  0.30790  0.83620  0.44930  1.0000 0.5630273822
C   C42       1.0  0.76560  0.93810  0.48900  1.0000 0.6287985298
C   C43       1.0  0.83490  0.06240  0.17360  1.0000 0.07112035
C   C44       1.0  0.79610  0.09040  0.23580  1.0000 -0.0859778092
C   C45       1.0  0.69960  0.15170  0.21000  1.0000 -0.1004973713
C   C46       1.0  0.64640  0.18440  0.12650  1.0000 0.0183429791
C   C47       1.0  0.69360  0.15350  0.07020  1.0000 0.0441369473
C   C48       1.0  0.54070  0.25010  0.09600  1.0000 0.0535987991
C   C49       1.0  0.56120  0.31940  0.05770  1.0000 -0.0586998349
C   C50       1.0  0.45810  0.37830  0.02860  1.0000 -0.1004973713
C   C51       1.0  0.33740  0.37100  0.03790  1.0000 -0.0393524107
C   C52       1.0  0.31860  0.30310  0.07570  1.0000 -0.1078526748
C   C53       1.0  0.41840  0.24260  0.10280  1.0000 -0.1486983744
C   C54       1.0  0.86390  0.05640  0.32700  1.0000 0.6478171053
C   C55       1.0  0.69210  0.33620  0.05070  1.0000 0.5630273822
C   C56       1.0  0.23440  0.43810  0.01100  1.0000 0.6287985298
N   N1        1.0  0.78700  0.40680  0.59200  1.0000 -0.2574909625
N   N2        1.0  0.21300  0.90680  0.90800  1.0000 -0.2547790256
N   N3        1.0  0.21300  0.59320  0.40800  1.0000 -0.2574909625
N   N4        1.0  0.78700  0.09320  0.09200  1.0000 -0.2574909625
O   O1        1.0  0.94900  0.50000  0.84310  1.0000 -0.6716253308
O   O2        1.0  0.83130  0.41210  0.88200  1.0000 -0.6568586377
O   O3        1.0  0.68650  0.15870  0.47480  1.0000 -0.6320788858
O   O4        1.0  0.80450  0.15380  0.61950  1.0000 -0.6164740769
O   O5        1.0  0.12590  0.06680  0.52250  1.0000 -0.7728401122
O   O6        1.0  0.25520  0.00190  0.47550  1.0000 -0.5787188706
O   O7        1.0  0.05100  0.00000  0.65690  1.0000 -0.6716253308
O   O8        1.0  0.16870  0.91210  0.61800  1.0000 -0.6568586377
O   O9        1.0  0.31350  0.65870  0.02520  1.0000 -0.6320788858
O   O10       1.0  0.19550  0.65380  0.88050  1.0000 -0.6164740769
O   O11       1.0  0.87410  0.56680  0.97750  1.0000 -0.7728401122
O   O12       1.0  0.74480  0.50190  0.02450  1.0000 -0.5787188706
O   O13       1.0  0.05100  0.50000  0.15690  1.0000 -0.6716253308
O   O14       1.0  0.16870  0.58790  0.11800  1.0000 -0.6568586377
O   O15       1.0  0.31350  0.84130  0.52520  1.0000 -0.6320788858
O   O16       1.0  0.19550  0.84620  0.38050  1.0000 -0.6164740769
O   O17       1.0  0.87410  0.93320  0.47750  1.0000 -0.7728401122
O   O18       1.0  0.74480  0.99810  0.52450  1.0000 -0.5787188706
O   O19       1.0  0.94900  0.00000  0.34310  1.0000 -0.6716253308
O   O20       1.0  0.83130  0.08790  0.38200  1.0000 -0.6568586377
O   O21       1.0  0.68650  0.34130  0.97480  1.0000 -0.6320788858
O   O22       1.0  0.80450  0.34620  0.11950  1.0000 -0.6164740769
O   O23       1.0  0.12590  0.43320  0.02250  1.0000 -0.7728401122
O   O24       1.0  0.25520  0.49810  0.97550  1.0000 -0.5787188706
