# DDEC6 charges by PACMAN v1.1 (https://github.com/mtap-research/PACMAN-charge/)
data_2021[V][nan]3[ASR]2
_chemical_formula_sum              "V4 H16 C32 O20"
_cell_length_a       12.3168
_cell_length_b       12.3168
_cell_length_c       12.3168
_cell_angle_alpha    103.958
_cell_angle_beta     103.958
_cell_angle_gamma    121.17

_symmetry_space_group_name_H-M    "P 1"
_symmetry_Int_Tables_number       1

loop_
  _symmetry_equiv_pos_as_xyz
  'x, y, z'

loop_
  _atom_site_type_symbol
  _atom_site_label
  _atom_site_symmetry_multiplicity
  _atom_site_fract_x
  _atom_site_fract_y
  _atom_site_fract_z
  _atom_site_occupancy
  _atom_site_charge
V   V1        1.0  0.69063  0.69063  0.38126  1.0000 1.6679362738
V   V2        1.0  0.30937  0.30937  0.61874  1.0000 1.6679362738
V   V3        1.0  0.94063  0.05937  0.50000  1.0000 1.6679362738
V   V4        1.0  0.55937  0.44063  0.50000  1.0000 1.6679362738
H   H1        1.0  0.97919  0.03414  0.17811  1.0000 0.1270744735
H   H2        1.0  0.85603  0.80108  0.82189  1.0000 0.1270744735
H   H3        1.0  0.28414  0.60603  0.55495  1.0000 0.1270744735
H   H4        1.0  0.05108  0.72919  0.44505  1.0000 0.1270744735
H   H5        1.0  0.27081  0.94892  0.55495  1.0000 0.1270744735
H   H6        1.0  0.39397  0.71586  0.44505  1.0000 0.1270744735
H   H7        1.0  0.96586  0.02081  0.82189  1.0000 0.1270744735
H   H8        1.0  0.19892  0.14397  0.17811  1.0000 0.1270744735
H   H9        1.0  0.93864  0.87500  0.56364  1.0000 0.423746013
H   H10       1.0  0.31136  0.37500  0.43636  1.0000 0.423746013
H   H11       1.0  0.12500  0.06136  0.43636  1.0000 0.423746013
H   H12       1.0  0.62500  0.68864  0.56364  1.0000 0.423746013
H   H13       1.0  0.62907  0.62907  0.00000  1.0000 0.1461737836
H   H14       1.0  0.87907  0.37907  0.50000  1.0000 0.1461737836
H   H15       1.0  0.62093  0.12093  0.50000  1.0000 0.1461737836
H   H16       1.0  0.37093  0.37093  0.00000  1.0000 0.1461737836
C   C1        1.0  0.80390  0.83170  0.10840  1.0000 -0.0178243329
C   C2        1.0  0.79370  0.84420  0.22890  1.0000 0.6177263641
C   C3        1.0  0.91720  0.94850  0.10670  1.0000 -0.147928753
C   C4        1.0  0.72330  0.69550  0.89160  1.0000 -0.0178243329
C   C5        1.0  0.61530  0.56480  0.77110  1.0000 0.6177263641
C   C6        1.0  0.84180  0.81050  0.89330  1.0000 -0.147928753
C   C7        1.0  0.08170  0.47330  0.52780  1.0000 -0.0178243329
C   C8        1.0  0.09420  0.36530  0.55050  1.0000 0.6177263641
C   C9        1.0  0.19850  0.59180  0.53130  1.0000 -0.147928753
C   C10       1.0  0.94550  0.55390  0.47220  1.0000 -0.0178243329
C   C11       1.0  0.81480  0.54370  0.44950  1.0000 0.6177263641
C   C12       1.0  0.06050  0.66720  0.46870  1.0000 -0.147928753
C   C13       1.0  0.44610  0.05450  0.52780  1.0000 -0.0178243329
C   C14       1.0  0.45630  0.18520  0.55050  1.0000 0.6177263641
C   C15       1.0  0.33280  0.93950  0.53130  1.0000 -0.147928753
C   C16       1.0  0.52670  0.91830  0.47220  1.0000 -0.0178243329
C   C17       1.0  0.63470  0.90580  0.44950  1.0000 0.6177263641
C   C18       1.0  0.40820  0.80150  0.46870  1.0000 -0.147928753
C   C19       1.0  0.16830  0.19610  0.89160  1.0000 -0.0178243329
C   C20       1.0  0.15580  0.20630  0.77110  1.0000 0.6177263641
C   C21       1.0  0.05150  0.08280  0.89330  1.0000 -0.147928753
C   C22       1.0  0.30450  0.27670  0.10840  1.0000 -0.0178243329
C   C23       1.0  0.43520  0.38470  0.22890  1.0000 0.6177263641
C   C24       1.0  0.18950  0.15820  0.10670  1.0000 -0.147928753
C   C25       1.0  0.93810  0.93810  0.00000  1.0000 0.0682283947
C   C26       1.0  0.70590  0.70590  0.00000  1.0000 -0.0980435937
C   C27       1.0  0.18810  0.68810  0.50000  1.0000 0.0682283947
C   C28       1.0  0.95590  0.45590  0.50000  1.0000 -0.0980435937
C   C29       1.0  0.31190  0.81190  0.50000  1.0000 0.0682283947
C   C30       1.0  0.54410  0.04410  0.50000  1.0000 -0.0980435937
C   C31       1.0  0.06190  0.06190  0.00000  1.0000 0.0682283947
C   C32       1.0  0.29410  0.29410  0.00000  1.0000 -0.0980435937
O   O1        1.0  0.85722  0.96736  0.31218  1.0000 -0.6075302428
O   O2        1.0  0.72505  0.73069  0.23864  1.0000 -0.5814894876
O   O3        1.0  0.65518  0.54504  0.68782  1.0000 -0.6075302428
O   O4        1.0  0.49205  0.48641  0.76136  1.0000 -0.5814894876
O   O5        1.0  0.21736  0.40518  0.61014  1.0000 -0.6075302428
O   O6        1.0  0.98069  0.24205  0.50564  1.0000 -0.5814894876
O   O7        1.0  0.79504  0.60722  0.38986  1.0000 -0.6075302428
O   O8        1.0  0.73641  0.47505  0.49436  1.0000 -0.5814894876
O   O9        1.0  0.39278  0.20496  0.61014  1.0000 -0.6075302428
O   O10       1.0  0.52495  0.26359  0.50564  1.0000 -0.5814894876
O   O11       1.0  0.59482  0.78264  0.38986  1.0000 -0.6075302428
O   O12       1.0  0.75795  0.01931  0.49436  1.0000 -0.5814894876
O   O13       1.0  0.03264  0.14278  0.68782  1.0000 -0.6075302428
O   O14       1.0  0.26931  0.27495  0.76136  1.0000 -0.5814894876
O   O15       1.0  0.45496  0.34482  0.31218  1.0000 -0.6075302428
O   O16       1.0  0.51359  0.50795  0.23864  1.0000 -0.5814894876
O   O17       1.0  0.87530  0.87500  0.50030  1.0000 -0.9880969143
O   O18       1.0  0.37470  0.37500  0.49970  1.0000 -0.9880969143
O   O19       1.0  0.12500  0.12470  0.49970  1.0000 -0.9880969143
O   O20       1.0  0.62500  0.62530  0.50030  1.0000 -0.9880969143
