# DDEC6 charges by PACMAN v1.1 (https://github.com/mtap-research/PACMAN-charge/)
data_2021[U][pcu]3[ASR]2
_chemical_formula_sum              "U16 H80 C104 N16 O48"
_cell_length_a       7.1583
_cell_length_b       32.8219
_cell_length_c       17.4519
_cell_angle_alpha    90
_cell_angle_beta     104.668
_cell_angle_gamma    90

_symmetry_space_group_name_H-M    "P 1"
_symmetry_Int_Tables_number       1

loop_
  _symmetry_equiv_pos_as_xyz
  'x, y, z'

loop_
  _atom_site_type_symbol
  _atom_site_label
  _atom_site_symmetry_multiplicity
  _atom_site_fract_x
  _atom_site_fract_y
  _atom_site_fract_z
  _atom_site_occupancy
  _atom_site_charge
U   U1        1.0  0.92144  0.35065  0.37764  1.0000 2.1778643305
U   U2        1.0  0.76628  0.37762  0.13655  1.0000 2.3664233859
U   U3        1.0  0.01291  0.44525  0.52275  1.0000 2.4460411246
U   U4        1.0  0.86441  0.45686  0.30234  1.0000 2.5304472024
U   U5        1.0  0.07856  0.85065  0.12236  1.0000 2.1624446089
U   U6        1.0  0.23372  0.87762  0.36345  1.0000 2.3664233859
U   U7        1.0  0.98709  0.94525  0.97725  1.0000 2.4313287114
U   U8        1.0  0.13559  0.95686  0.19766  1.0000 2.5304472024
U   U9        1.0  0.07856  0.64935  0.62236  1.0000 2.1656103308
U   U10       1.0  0.23372  0.62238  0.86345  1.0000 2.3664233859
U   U11       1.0  0.98709  0.55475  0.47725  1.0000 2.4313287114
U   U12       1.0  0.13559  0.54314  0.69766  1.0000 2.5304472024
U   U13       1.0  0.92144  0.14935  0.87764  1.0000 2.1778643305
U   U14       1.0  0.76628  0.12238  0.63655  1.0000 2.3664233859
U   U15       1.0  0.01291  0.05475  0.02275  1.0000 2.4313287114
U   U16       1.0  0.86441  0.04314  0.80234  1.0000 2.5304472024
H   H1        1.0  0.93359  0.13008  0.16512  1.0000 0.109322522
H   H2        1.0  0.28300  0.36900  0.66797  1.0000 0.109322522
H   H3        1.0  0.57239  0.31257  0.87038  1.0000 0.109322522
H   H4        1.0  0.39943  0.43052  0.87504  1.0000 0.109322522
H   H5        1.0  0.92677  0.24789  0.09366  1.0000 0.1187815322
H   H6        1.0  0.32806  0.26362  0.83505  1.0000 0.1187815322
H   H7        1.0  0.34026  0.21754  0.80672  1.0000 0.1391216103
H   H8        1.0  0.53347  0.24168  0.84849  1.0000 0.1391216103
H   H9        1.0  0.89044  0.22133  0.31835  1.0000 0.109322522
H   H10       1.0  0.40324  0.20978  0.65571  1.0000 0.1304263966
H   H11       1.0  0.52652  0.27815  0.51104  1.0000 0.1304263966
H   H12       1.0  0.46568  0.23166  0.51813  1.0000 0.1304263966
H   H13       1.0  0.30303  0.26588  0.49125  1.0000 0.1304263966
H   H14       1.0  0.02189  0.09289  0.46973  1.0000 0.1304263966
H   H15       1.0  0.14989  0.16837  0.49048  1.0000 0.1391216103
H   H16       1.0  0.17929  0.18940  0.41162  1.0000 0.1187815322
H   H17       1.0  0.98498  0.19720  0.43886  1.0000 0.1391216103
H   H18       1.0  0.69624  0.03370  0.35229  1.0000 0.1187815322
H   H19       1.0  0.81961  0.02730  0.28850  1.0000 0.109322522
H   H20       1.0  0.91830  0.02050  0.38067  1.0000 0.1187815322
H   H21       1.0  0.06641  0.63008  0.33488  1.0000 0.109322522
H   H22       1.0  0.71700  0.86900  0.83203  1.0000 0.109322522
H   H23       1.0  0.42761  0.81257  0.62962  1.0000 0.109322522
H   H24       1.0  0.60057  0.93052  0.62496  1.0000 0.1187815322
H   H25       1.0  0.07323  0.74789  0.40634  1.0000 0.1187815322
H   H26       1.0  0.67194  0.76362  0.66495  1.0000 0.1187815322
H   H27       1.0  0.65974  0.71754  0.69328  1.0000 0.1391216103
H   H28       1.0  0.46653  0.74168  0.65151  1.0000 0.1391216103
H   H29       1.0  0.10956  0.72133  0.18165  1.0000 0.109322522
H   H30       1.0  0.59676  0.70978  0.84429  1.0000 0.1304263966
H   H31       1.0  0.47348  0.77815  0.98896  1.0000 0.1304263966
H   H32       1.0  0.53432  0.73166  0.98187  1.0000 0.1304263966
H   H33       1.0  0.69697  0.76588  0.00875  1.0000 0.1304263966
H   H34       1.0  0.97811  0.59289  0.03027  1.0000 0.1304263966
H   H35       1.0  0.85011  0.66837  0.00952  1.0000 0.1391216103
H   H36       1.0  0.82071  0.68940  0.08838  1.0000 0.1187815322
H   H37       1.0  0.01502  0.69720  0.06114  1.0000 0.1391216103
H   H38       1.0  0.30376  0.53370  0.14771  1.0000 0.1187815322
H   H39       1.0  0.18039  0.52730  0.21150  1.0000 0.109322522
H   H40       1.0  0.08170  0.52050  0.11933  1.0000 0.1187815322
H   H41       1.0  0.06641  0.86992  0.83488  1.0000 0.109322522
H   H42       1.0  0.71700  0.63100  0.33203  1.0000 0.109322522
H   H43       1.0  0.42761  0.68743  0.12962  1.0000 0.109322522
H   H44       1.0  0.60057  0.56948  0.12496  1.0000 0.1187815322
H   H45       1.0  0.07323  0.75211  0.90634  1.0000 0.1187815322
H   H46       1.0  0.67194  0.73638  0.16495  1.0000 0.1187815322
H   H47       1.0  0.65974  0.78246  0.19328  1.0000 0.1391216103
H   H48       1.0  0.46653  0.75832  0.15151  1.0000 0.1391216103
H   H49       1.0  0.10956  0.77867  0.68165  1.0000 0.109322522
H   H50       1.0  0.59676  0.79022  0.34429  1.0000 0.1304263966
H   H51       1.0  0.47348  0.72185  0.48896  1.0000 0.1304263966
H   H52       1.0  0.53432  0.76834  0.48187  1.0000 0.1304263966
H   H53       1.0  0.69697  0.73412  0.50875  1.0000 0.1304263966
H   H54       1.0  0.97811  0.90711  0.53027  1.0000 0.1304263966
H   H55       1.0  0.85011  0.83163  0.50952  1.0000 0.1391216103
H   H56       1.0  0.82071  0.81060  0.58838  1.0000 0.1187815322
H   H57       1.0  0.01502  0.80280  0.56114  1.0000 0.1391216103
H   H58       1.0  0.30376  0.96630  0.64771  1.0000 0.1187815322
H   H59       1.0  0.18039  0.97270  0.71150  1.0000 0.109322522
H   H60       1.0  0.08170  0.97950  0.61933  1.0000 0.1187815322
H   H61       1.0  0.93359  0.36992  0.66512  1.0000 0.109322522
H   H62       1.0  0.28300  0.13100  0.16797  1.0000 0.109322522
H   H63       1.0  0.57239  0.18743  0.37038  1.0000 0.109322522
H   H64       1.0  0.39943  0.06948  0.37504  1.0000 0.1187815322
H   H65       1.0  0.92677  0.25211  0.59366  1.0000 0.1187815322
H   H66       1.0  0.32806  0.23638  0.33505  1.0000 0.1187815322
H   H67       1.0  0.34026  0.28246  0.30672  1.0000 0.1391216103
H   H68       1.0  0.53347  0.25832  0.34849  1.0000 0.1391216103
H   H69       1.0  0.89044  0.27867  0.81835  1.0000 0.109322522
H   H70       1.0  0.40324  0.29022  0.15571  1.0000 0.1304263966
H   H71       1.0  0.52652  0.22185  0.01104  1.0000 0.1304263966
H   H72       1.0  0.46568  0.26834  0.01813  1.0000 0.1304263966
H   H73       1.0  0.30303  0.23412  0.99125  1.0000 0.1304263966
H   H74       1.0  0.02189  0.40711  0.96973  1.0000 0.1304263966
H   H75       1.0  0.14989  0.33163  0.99048  1.0000 0.1391216103
H   H76       1.0  0.17929  0.31060  0.91162  1.0000 0.1187815322
H   H77       1.0  0.98498  0.30280  0.93886  1.0000 0.1391216103
H   H78       1.0  0.69624  0.46630  0.85229  1.0000 0.1187815322
H   H79       1.0  0.81961  0.47270  0.78850  1.0000 0.109322522
H   H80       1.0  0.91830  0.47950  0.88067  1.0000 0.1187815322
C   C1        1.0  0.93060  0.15830  0.17670  1.0000 -0.2089479429
C   C2        1.0  0.33410  0.36960  0.72380  1.0000 -0.2089479429
C   C3        1.0  0.50950  0.33600  0.84370  1.0000 -0.2374758286
C   C4        1.0  0.40440  0.40610  0.84630  1.0000 -0.1293770479
C   C5        1.0  0.31510  0.40450  0.76330  1.0000 -0.0511594427
C   C6        1.0  0.92290  0.22840  0.13350  1.0000 -0.1402288054
C   C7        1.0  0.42340  0.33540  0.76060  1.0000 0.1304263966
C   C8        1.0  0.96270  0.17370  0.04040  1.0000 0.5599788155
C   C9        1.0  0.59250  0.37420  0.97100  1.0000 0.5086474593
C   C10       1.0  0.91750  0.17130  0.25170  1.0000 0.1304263966
C   C11       1.0  0.49790  0.37230  0.88450  1.0000 -0.0256849982
C   C12       1.0  0.40410  0.24420  0.81280  1.0000 -0.5346717065
C   C13       1.0  0.20310  0.43940  0.72200  1.0000 0.6083706791
C   C14       1.0  0.41980  0.25880  0.73480  1.0000 0.156539696
C   C15       1.0  0.90050  0.24090  0.20730  1.0000 -0.0444373836
C   C16       1.0  0.90110  0.21260  0.26780  1.0000 -0.2281819557
C   C17       1.0  0.41530  0.23840  0.66410  1.0000 -0.4011782084
C   C18       1.0  0.43130  0.26690  0.60920  1.0000 0.2230884607
C   C19       1.0  0.43170  0.26010  0.52530  1.0000 -0.5218982523
C   C20       1.0  0.87420  0.28470  0.22330  1.0000 0.5936575706
C   C21       1.0  0.93910  0.18710  0.11950  1.0000 -0.0162071021
C   C22       1.0  0.99590  0.14200  0.39050  1.0000 0.1467401336
C   C23       1.0  0.97830  0.10280  0.41710  1.0000 -0.4011782084
C   C24       1.0  0.88310  0.08090  0.35010  1.0000 0.2397963131
C   C25       1.0  0.08480  0.17710  0.43660  1.0000 -0.5421560114
C   C26       1.0  0.82420  0.03670  0.34220  1.0000 -0.4815435086
C   C27       1.0  0.06940  0.65830  0.32330  1.0000 -0.2089479429
C   C28       1.0  0.66590  0.86960  0.77620  1.0000 -0.2089479429
C   C29       1.0  0.49050  0.83600  0.65630  1.0000 -0.2374758286
C   C30       1.0  0.59560  0.90610  0.65370  1.0000 -0.1293770479
C   C31       1.0  0.68490  0.90450  0.73670  1.0000 -0.0511594427
C   C32       1.0  0.07710  0.72840  0.36650  1.0000 -0.1402288054
C   C33       1.0  0.57660  0.83540  0.73940  1.0000 0.1304263966
C   C34       1.0  0.03730  0.67370  0.45960  1.0000 0.5599788155
C   C35       1.0  0.40750  0.87420  0.52900  1.0000 0.5086474593
C   C36       1.0  0.08250  0.67130  0.24830  1.0000 0.1304263966
C   C37       1.0  0.50210  0.87230  0.61550  1.0000 -0.0256849982
C   C38       1.0  0.59590  0.74420  0.68720  1.0000 -0.5346717065
C   C39       1.0  0.79690  0.93940  0.77800  1.0000 0.6083706791
C   C40       1.0  0.58020  0.75880  0.76520  1.0000 0.156539696
C   C41       1.0  0.09950  0.74090  0.29270  1.0000 -0.0444373836
C   C42       1.0  0.09890  0.71260  0.23220  1.0000 -0.2281819557
C   C43       1.0  0.58470  0.73840  0.83590  1.0000 -0.4011782084
C   C44       1.0  0.56870  0.76690  0.89080  1.0000 0.2230884607
C   C45       1.0  0.56830  0.76010  0.97470  1.0000 -0.5218982523
C   C46       1.0  0.12580  0.78470  0.27670  1.0000 0.5936575706
C   C47       1.0  0.06090  0.68710  0.38050  1.0000 -0.0162071021
C   C48       1.0  0.00410  0.64200  0.10950  1.0000 0.1467401336
C   C49       1.0  0.02170  0.60280  0.08290  1.0000 -0.4011782084
C   C50       1.0  0.11690  0.58090  0.14990  1.0000 0.2397963131
C   C51       1.0  0.91520  0.67710  0.06340  1.0000 -0.5421560114
C   C52       1.0  0.17580  0.53670  0.15780  1.0000 -0.4815435086
C   C53       1.0  0.06940  0.84170  0.82330  1.0000 -0.2089479429
C   C54       1.0  0.66590  0.63040  0.27620  1.0000 -0.2089479429
C   C55       1.0  0.49050  0.66400  0.15630  1.0000 -0.2374758286
C   C56       1.0  0.59560  0.59390  0.15370  1.0000 -0.1293770479
C   C57       1.0  0.68490  0.59550  0.23670  1.0000 -0.0511594427
C   C58       1.0  0.07710  0.77160  0.86650  1.0000 -0.1402288054
C   C59       1.0  0.57660  0.66460  0.23940  1.0000 0.1304263966
C   C60       1.0  0.03730  0.82630  0.95960  1.0000 0.5599788155
C   C61       1.0  0.40750  0.62580  0.02900  1.0000 0.5086474593
C   C62       1.0  0.08250  0.82870  0.74830  1.0000 0.1304263966
C   C63       1.0  0.50210  0.62770  0.11550  1.0000 -0.0256849982
C   C64       1.0  0.59590  0.75580  0.18720  1.0000 -0.5421560114
C   C65       1.0  0.79690  0.56060  0.27800  1.0000 0.6083706791
C   C66       1.0  0.58020  0.74120  0.26520  1.0000 0.156539696
C   C67       1.0  0.09950  0.75910  0.79270  1.0000 -0.0444373836
C   C68       1.0  0.09890  0.78740  0.73220  1.0000 -0.2281819557
C   C69       1.0  0.58470  0.76160  0.33590  1.0000 -0.4011782084
C   C70       1.0  0.56870  0.73310  0.39080  1.0000 0.2230884607
C   C71       1.0  0.56830  0.73990  0.47470  1.0000 -0.5218982523
C   C72       1.0  0.12580  0.71530  0.77670  1.0000 0.5936575706
C   C73       1.0  0.06090  0.81290  0.88050  1.0000 -0.0162071021
C   C74       1.0  0.00410  0.85800  0.60950  1.0000 0.1467401336
C   C75       1.0  0.02170  0.89720  0.58290  1.0000 -0.4011782084
C   C76       1.0  0.11690  0.91910  0.64990  1.0000 0.2397963131
C   C77       1.0  0.91520  0.82290  0.56340  1.0000 -0.5421560114
C   C78       1.0  0.17580  0.96330  0.65780  1.0000 -0.4815435086
C   C79       1.0  0.93060  0.34170  0.67670  1.0000 -0.2089479429
C   C80       1.0  0.33410  0.13040  0.22380  1.0000 -0.2089479429
C   C81       1.0  0.50950  0.16400  0.34370  1.0000 -0.2374758286
C   C82       1.0  0.40440  0.09390  0.34630  1.0000 -0.1293770479
C   C83       1.0  0.31510  0.09550  0.26330  1.0000 -0.0511594427
C   C84       1.0  0.92290  0.27160  0.63350  1.0000 -0.1402288054
C   C85       1.0  0.42340  0.16460  0.26060  1.0000 0.1304263966
C   C86       1.0  0.96270  0.32630  0.54040  1.0000 0.5599788155
C   C87       1.0  0.59250  0.12580  0.47100  1.0000 0.5086474593
C   C88       1.0  0.91750  0.32870  0.75170  1.0000 0.1304263966
C   C89       1.0  0.49790  0.12770  0.38450  1.0000 -0.0256849982
C   C90       1.0  0.40410  0.25580  0.31280  1.0000 -0.5346717065
C   C91       1.0  0.20310  0.06060  0.22200  1.0000 0.6083706791
C   C92       1.0  0.41980  0.24120  0.23480  1.0000 0.156539696
C   C93       1.0  0.90050  0.25910  0.70730  1.0000 -0.0444373836
C   C94       1.0  0.90110  0.28740  0.76780  1.0000 -0.2281819557
C   C95       1.0  0.41530  0.26160  0.16410  1.0000 -0.4011782084
C   C96       1.0  0.43130  0.23310  0.10920  1.0000 0.2230884607
C   C97       1.0  0.43170  0.23990  0.02530  1.0000 -0.5218982523
C   C98       1.0  0.87420  0.21530  0.72330  1.0000 0.5936575706
C   C99       1.0  0.93910  0.31290  0.61950  1.0000 -0.0162071021
C   C100      1.0  0.99590  0.35800  0.89050  1.0000 0.1467401336
C   C101      1.0  0.97830  0.39720  0.91710  1.0000 -0.4011782084
C   C102      1.0  0.88310  0.41910  0.85010  1.0000 0.2397963131
C   C103      1.0  0.08480  0.32290  0.93660  1.0000 -0.5421560114
C   C104      1.0  0.82420  0.46330  0.84220  1.0000 -0.4815435086
N   N1        1.0  0.91630  0.14040  0.30970  1.0000 0.0295404328
N   N2        1.0  0.43660  0.30480  0.63690  1.0000 -0.3413843041
N   N3        1.0  0.43540  0.30060  0.71500  1.0000 0.0295404328
N   N4        1.0  0.84960  0.10270  0.28370  1.0000 -0.3513292794
N   N5        1.0  0.08370  0.64040  0.19030  1.0000 0.0295404328
N   N6        1.0  0.56340  0.80480  0.86310  1.0000 -0.3413843041
N   N7        1.0  0.56460  0.80060  0.78500  1.0000 0.0295404328
N   N8        1.0  0.15040  0.60270  0.21630  1.0000 -0.3513292794
N   N9        1.0  0.08370  0.85960  0.69030  1.0000 0.0295404328
N   N10       1.0  0.56340  0.69520  0.36310  1.0000 -0.3413843041
N   N11       1.0  0.56460  0.69940  0.28500  1.0000 0.0295404328
N   N12       1.0  0.15040  0.89730  0.71630  1.0000 -0.3513292794
N   N13       1.0  0.91630  0.35960  0.80970  1.0000 0.0295404328
N   N14       1.0  0.43660  0.19520  0.13690  1.0000 -0.3413843041
N   N15       1.0  0.43540  0.19940  0.21500  1.0000 0.0295404328
N   N16       1.0  0.84960  0.39730  0.78370  1.0000 -0.3513292794
O   O1        1.0  0.98810  0.13660  0.02900  1.0000 -0.7091059362
O   O2        1.0  0.08550  0.43150  0.65770  1.0000 -0.6482491543
O   O3        1.0  0.94770  0.19910  0.98580  1.0000 -0.6124553762
O   O4        1.0  0.59780  0.40740  0.00850  1.0000 -0.6257666772
O   O5        1.0  0.66440  0.34140  0.00770  1.0000 -0.66965012
O   O6        1.0  0.23060  0.47490  0.75050  1.0000 -0.6124553762
O   O7        1.0  0.87310  0.31020  0.16960  1.0000 -0.6482491543
O   O8        1.0  0.86750  0.29470  0.29250  1.0000 -0.6633953278
O   O9        1.0  0.96110  0.41480  0.40700  1.0000 -1.3659148638
O   O10       1.0  0.73360  0.44690  0.16450  1.0000 -1.1759310389
O   O11       1.0  0.04380  0.50740  0.57820  1.0000 -1.377877516
O   O12       1.0  0.88560  0.38720  0.26520  1.0000 -1.3480416958
O   O13       1.0  0.01190  0.63660  0.47100  1.0000 -0.7091059362
O   O14       1.0  0.91450  0.93150  0.84230  1.0000 -0.6482491543
O   O15       1.0  0.05230  0.69910  0.51420  1.0000 -0.6124553762
O   O16       1.0  0.40220  0.90740  0.49150  1.0000 -0.6257666772
O   O17       1.0  0.33560  0.84140  0.49230  1.0000 -0.66965012
O   O18       1.0  0.76940  0.97490  0.74950  1.0000 -0.6124553762
O   O19       1.0  0.12690  0.81020  0.33040  1.0000 -0.6482491543
O   O20       1.0  0.13250  0.79470  0.20750  1.0000 -0.6633953278
O   O21       1.0  0.03890  0.91480  0.09300  1.0000 -1.3659148638
O   O22       1.0  0.26640  0.94690  0.33550  1.0000 -1.1739395683
O   O23       1.0  0.95620  0.00740  0.92180  1.0000 -1.377877516
O   O24       1.0  0.11440  0.88720  0.23480  1.0000 -1.3480416958
O   O25       1.0  0.01190  0.86340  0.97100  1.0000 -0.7091059362
O   O26       1.0  0.91450  0.56850  0.34230  1.0000 -0.6482491543
O   O27       1.0  0.05230  0.80090  0.01420  1.0000 -0.6124553762
O   O28       1.0  0.40220  0.59260  0.99150  1.0000 -0.6257666772
O   O29       1.0  0.33560  0.65860  0.99230  1.0000 -0.66965012
O   O30       1.0  0.76940  0.52510  0.24950  1.0000 -0.6124553762
O   O31       1.0  0.12690  0.68980  0.83040  1.0000 -0.6482491543
O   O32       1.0  0.13250  0.70530  0.70750  1.0000 -0.6633953278
O   O33       1.0  0.03890  0.58520  0.59300  1.0000 -1.3659148638
O   O34       1.0  0.26640  0.55310  0.83550  1.0000 -1.1759310389
O   O35       1.0  0.95620  0.49260  0.42180  1.0000 -1.377877516
O   O36       1.0  0.11440  0.61280  0.73480  1.0000 -1.3480416958
O   O37       1.0  0.98810  0.36340  0.52900  1.0000 -0.7091059362
O   O38       1.0  0.08550  0.06850  0.15770  1.0000 -0.6482491543
O   O39       1.0  0.94770  0.30090  0.48580  1.0000 -0.6151681368
O   O40       1.0  0.59780  0.09260  0.50850  1.0000 -0.6257666772
O   O41       1.0  0.66440  0.15860  0.50770  1.0000 -0.66965012
O   O42       1.0  0.23060  0.02510  0.25050  1.0000 -0.6124553762
O   O43       1.0  0.87310  0.18980  0.66960  1.0000 -0.6482491543
O   O44       1.0  0.86750  0.20530  0.79250  1.0000 -0.6633953278
O   O45       1.0  0.96110  0.08520  0.90700  1.0000 -1.3659148638
O   O46       1.0  0.73360  0.05310  0.66450  1.0000 -1.1759310389
O   O47       1.0  0.04380  0.99260  0.07820  1.0000 -1.377877516
O   O48       1.0  0.88560  0.11280  0.76520  1.0000 -1.3480416958
