# DDEC6 charges by PACMAN v1.1 (https://github.com/mtap-research/PACMAN-charge/)
data_2021[U][ths]3[ASR]2
_chemical_formula_sum              "U4 H48 C108 O24 F12"
_cell_length_a       11.016
_cell_length_b       13.27
_cell_length_c       30.05
_cell_angle_alpha    90
_cell_angle_beta     90
_cell_angle_gamma    90

_symmetry_space_group_name_H-M    "P 1"
_symmetry_Int_Tables_number       1

loop_
  _symmetry_equiv_pos_as_xyz
  'x, y, z'

loop_
  _atom_site_type_symbol
  _atom_site_label
  _atom_site_symmetry_multiplicity
  _atom_site_fract_x
  _atom_site_fract_y
  _atom_site_fract_z
  _atom_site_occupancy
  _atom_site_charge
U   U1        1.0  0.50000  0.75000  0.88241  1.0000 1.84084335
U   U2        1.0  0.00000  0.25000  0.38241  1.0000 1.84084335
U   U3        1.0  0.00000  0.75000  0.61759  1.0000 1.84084335
U   U4        1.0  0.50000  0.25000  0.11759  1.0000 1.84084335
H   H1        1.0  0.13520  0.53878  0.91178  1.0000 0.113143124
H   H2        1.0  0.28019  0.40293  0.04273  1.0000 0.1185126484
H   H3        1.0  0.01965  0.42461  0.95100  1.0000 0.1185126484
H   H4        1.0  0.39157  0.52301  0.00677  1.0000 0.1185126484
H   H5        1.0  0.17097  0.19135  0.15411  1.0000 0.1315469745
H   H6        1.0  0.15961  0.17978  0.23130  1.0000 0.1185126484
H   H7        1.0  0.86480  0.96122  0.91178  1.0000 0.113143124
H   H8        1.0  0.71981  0.09707  0.04273  1.0000 0.1185126484
H   H9        1.0  0.98035  0.07539  0.95100  1.0000 0.1185126484
H   H10       1.0  0.60843  0.97699  0.00677  1.0000 0.1185126484
H   H11       1.0  0.82903  0.30865  0.15411  1.0000 0.1315469745
H   H12       1.0  0.84039  0.32022  0.23130  1.0000 0.1185126484
H   H13       1.0  0.36480  0.03878  0.41178  1.0000 0.113143124
H   H14       1.0  0.21981  0.90293  0.54273  1.0000 0.1185126484
H   H15       1.0  0.48035  0.92461  0.45100  1.0000 0.1185126484
H   H16       1.0  0.10843  0.02301  0.50677  1.0000 0.1185126484
H   H17       1.0  0.32903  0.69135  0.65411  1.0000 0.1315469745
H   H18       1.0  0.34039  0.67978  0.73130  1.0000 0.1185126484
H   H19       1.0  0.63520  0.46122  0.41178  1.0000 0.113143124
H   H20       1.0  0.78019  0.59707  0.54273  1.0000 0.1185126484
H   H21       1.0  0.51965  0.57539  0.45100  1.0000 0.1185126484
H   H22       1.0  0.89157  0.47699  0.50677  1.0000 0.1185126484
H   H23       1.0  0.67097  0.80865  0.65411  1.0000 0.1315469745
H   H24       1.0  0.65961  0.82022  0.73130  1.0000 0.1185126484
H   H25       1.0  0.63520  0.96122  0.58822  1.0000 0.113143124
H   H26       1.0  0.78019  0.09707  0.45727  1.0000 0.1185126484
H   H27       1.0  0.51965  0.07539  0.54900  1.0000 0.1185126484
H   H28       1.0  0.89157  0.97699  0.49323  1.0000 0.1185126484
H   H29       1.0  0.67097  0.30865  0.34589  1.0000 0.1315469745
H   H30       1.0  0.65961  0.32022  0.26870  1.0000 0.1185126484
H   H31       1.0  0.36480  0.53878  0.58822  1.0000 0.113143124
H   H32       1.0  0.21981  0.40293  0.45727  1.0000 0.1185126484
H   H33       1.0  0.48035  0.42461  0.54900  1.0000 0.1185126484
H   H34       1.0  0.10843  0.52301  0.49323  1.0000 0.1185126484
H   H35       1.0  0.32903  0.19135  0.34589  1.0000 0.1315469745
H   H36       1.0  0.34039  0.17978  0.26870  1.0000 0.1185126484
H   H37       1.0  0.86480  0.46122  0.08822  1.0000 0.113143124
H   H38       1.0  0.71981  0.59707  0.95727  1.0000 0.1185126484
H   H39       1.0  0.98035  0.57539  0.04900  1.0000 0.1185126484
H   H40       1.0  0.60843  0.47699  0.99323  1.0000 0.1185126484
H   H41       1.0  0.82903  0.80865  0.84589  1.0000 0.1315469745
H   H42       1.0  0.84039  0.82022  0.76870  1.0000 0.1185126484
H   H43       1.0  0.13520  0.03878  0.08822  1.0000 0.113143124
H   H44       1.0  0.28019  0.90293  0.95727  1.0000 0.1185126484
H   H45       1.0  0.01965  0.92461  0.04900  1.0000 0.1185126484
H   H46       1.0  0.39157  0.02301  0.99323  1.0000 0.1185126484
H   H47       1.0  0.17097  0.69135  0.84589  1.0000 0.1315469745
H   H48       1.0  0.15961  0.67978  0.76870  1.0000 0.1185126484
C   C1        1.0  0.34800  0.61750  0.93080  1.0000 0.5136393908
C   C2        1.0  0.27560  0.54400  0.95460  1.0000 -0.0557950807
C   C3        1.0  0.16410  0.51280  0.93850  1.0000 -0.0911681053
C   C4        1.0  0.06890  0.32310  0.02560  1.0000 -0.1802771089
C   C5        1.0  0.24980  0.43130  0.01670  1.0000 -0.1617761959
C   C6        1.0  0.13940  0.40110  0.00160  1.0000 0.1185126484
C   C7        1.0  0.09550  0.44350  0.96170  1.0000 -0.1617761959
C   C8        1.0  0.31760  0.50230  0.99500  1.0000 -0.081091371
C   C9        1.0  0.06280  0.32190  0.07250  1.0000 0.2503440867
C   C10       1.0  0.10200  0.21300  0.16920  1.0000 -0.1683811934
C   C11       1.0  0.09640  0.20990  0.21570  1.0000 -0.081091371
C   C12       1.0  0.65200  0.88250  0.93080  1.0000 0.5136393908
C   C13       1.0  0.72440  0.95600  0.95460  1.0000 -0.0557950807
C   C14       1.0  0.83590  0.98720  0.93850  1.0000 -0.0911681053
C   C15       1.0  0.93110  0.17690  0.02560  1.0000 -0.1802771089
C   C16       1.0  0.75020  0.06870  0.01670  1.0000 -0.1617761959
C   C17       1.0  0.86060  0.09890  0.00160  1.0000 0.1185126484
C   C18       1.0  0.90450  0.05650  0.96170  1.0000 -0.1617761959
C   C19       1.0  0.68240  0.99770  0.99500  1.0000 -0.081091371
C   C20       1.0  0.93720  0.17810  0.07250  1.0000 0.2503440867
C   C21       1.0  0.89800  0.28700  0.16920  1.0000 -0.1683811934
C   C22       1.0  0.90360  0.29010  0.21570  1.0000 -0.081091371
C   C23       1.0  0.15200  0.11750  0.43080  1.0000 0.5136393908
C   C24       1.0  0.22440  0.04400  0.45460  1.0000 -0.0557950807
C   C25       1.0  0.33590  0.01280  0.43850  1.0000 -0.0911681053
C   C26       1.0  0.43110  0.82310  0.52560  1.0000 -0.1802771089
C   C27       1.0  0.25020  0.93130  0.51670  1.0000 -0.1617761959
C   C28       1.0  0.36060  0.90110  0.50160  1.0000 0.1185126484
C   C29       1.0  0.40450  0.94350  0.46170  1.0000 -0.1617761959
C   C30       1.0  0.18240  0.00230  0.49500  1.0000 -0.081091371
C   C31       1.0  0.43720  0.82190  0.57250  1.0000 0.2503440867
C   C32       1.0  0.39800  0.71300  0.66920  1.0000 -0.1683811934
C   C33       1.0  0.40360  0.70990  0.71570  1.0000 -0.081091371
C   C34       1.0  0.84800  0.38250  0.43080  1.0000 0.5136393908
C   C35       1.0  0.77560  0.45600  0.45460  1.0000 -0.0557950807
C   C36       1.0  0.66410  0.48720  0.43850  1.0000 -0.0911681053
C   C37       1.0  0.56890  0.67690  0.52560  1.0000 -0.1802771089
C   C38       1.0  0.74980  0.56870  0.51670  1.0000 -0.1617761959
C   C39       1.0  0.63940  0.59890  0.50160  1.0000 0.1185126484
C   C40       1.0  0.59550  0.55650  0.46170  1.0000 -0.1617761959
C   C41       1.0  0.81760  0.49770  0.49500  1.0000 -0.081091371
C   C42       1.0  0.56280  0.67810  0.57250  1.0000 0.2503440867
C   C43       1.0  0.60200  0.78700  0.66920  1.0000 -0.1683811934
C   C44       1.0  0.59640  0.79010  0.71570  1.0000 -0.081091371
C   C45       1.0  0.00000  0.25000  0.00570  1.0000 0.2218887958
C   C46       1.0  0.00000  0.25000  0.09640  1.0000 -0.1802771089
C   C47       1.0  0.00000  0.25000  0.14560  1.0000 0.1185126484
C   C48       1.0  0.00000  0.25000  0.23910  1.0000 -0.0351320204
C   C49       1.0  0.00000  0.25000  0.28850  1.0000 0.5381590728
C   C50       1.0  0.50000  0.75000  0.50570  1.0000 0.2218887958
C   C51       1.0  0.50000  0.75000  0.59640  1.0000 -0.1802771089
C   C52       1.0  0.50000  0.75000  0.64560  1.0000 0.1185126484
C   C53       1.0  0.50000  0.75000  0.73910  1.0000 -0.0351320204
C   C54       1.0  0.50000  0.75000  0.78850  1.0000 0.5381590728
C   C55       1.0  0.84800  0.88250  0.56920  1.0000 0.5136393908
C   C56       1.0  0.77560  0.95600  0.54540  1.0000 -0.0557950807
C   C57       1.0  0.66410  0.98720  0.56150  1.0000 -0.0911681053
C   C58       1.0  0.56890  0.17690  0.47440  1.0000 -0.1802771089
C   C59       1.0  0.74980  0.06870  0.48330  1.0000 -0.1617761959
C   C60       1.0  0.63940  0.09890  0.49840  1.0000 0.1185126484
C   C61       1.0  0.59550  0.05650  0.53830  1.0000 -0.1617761959
C   C62       1.0  0.81760  0.99770  0.50500  1.0000 -0.081091371
C   C63       1.0  0.56280  0.17810  0.42750  1.0000 0.2503440867
C   C64       1.0  0.60200  0.28700  0.33080  1.0000 -0.1683811934
C   C65       1.0  0.59640  0.29010  0.28430  1.0000 -0.081091371
C   C66       1.0  0.15200  0.61750  0.56920  1.0000 0.5136393908
C   C67       1.0  0.22440  0.54400  0.54540  1.0000 -0.0557950807
C   C68       1.0  0.33590  0.51280  0.56150  1.0000 -0.0911681053
C   C69       1.0  0.43110  0.32310  0.47440  1.0000 -0.1802771089
C   C70       1.0  0.25020  0.43130  0.48330  1.0000 -0.1617761959
C   C71       1.0  0.36060  0.40110  0.49840  1.0000 0.1185126484
C   C72       1.0  0.40450  0.44350  0.53830  1.0000 -0.1617761959
C   C73       1.0  0.18240  0.50230  0.50500  1.0000 -0.081091371
C   C74       1.0  0.43720  0.32190  0.42750  1.0000 0.2503440867
C   C75       1.0  0.39800  0.21300  0.33080  1.0000 -0.1683811934
C   C76       1.0  0.40360  0.20990  0.28430  1.0000 -0.081091371
C   C77       1.0  0.65200  0.38250  0.06920  1.0000 0.5136393908
C   C78       1.0  0.72440  0.45600  0.04540  1.0000 -0.0557950807
C   C79       1.0  0.83590  0.48720  0.06150  1.0000 -0.0911681053
C   C80       1.0  0.93110  0.67690  0.97440  1.0000 -0.1802771089
C   C81       1.0  0.75020  0.56870  0.98330  1.0000 -0.1617761959
C   C82       1.0  0.86060  0.59890  0.99840  1.0000 0.1185126484
C   C83       1.0  0.90450  0.55650  0.03830  1.0000 -0.1617761959
C   C84       1.0  0.68240  0.49770  0.00500  1.0000 -0.081091371
C   C85       1.0  0.93720  0.67810  0.92750  1.0000 0.2503440867
C   C86       1.0  0.89800  0.78700  0.83080  1.0000 -0.1683811934
C   C87       1.0  0.90360  0.79010  0.78430  1.0000 -0.081091371
C   C88       1.0  0.34800  0.11750  0.06920  1.0000 0.5136393908
C   C89       1.0  0.27560  0.04400  0.04540  1.0000 -0.0557950807
C   C90       1.0  0.16410  0.01280  0.06150  1.0000 -0.0911681053
C   C91       1.0  0.06890  0.82310  0.97440  1.0000 -0.1802771089
C   C92       1.0  0.24980  0.93130  0.98330  1.0000 -0.1617761959
C   C93       1.0  0.13940  0.90110  0.99840  1.0000 0.1185126484
C   C94       1.0  0.09550  0.94350  0.03830  1.0000 -0.1617761959
C   C95       1.0  0.31760  0.00230  0.00500  1.0000 -0.081091371
C   C96       1.0  0.06280  0.82190  0.92750  1.0000 0.2503440867
C   C97       1.0  0.10200  0.71300  0.83080  1.0000 -0.1683811934
C   C98       1.0  0.09640  0.70990  0.78430  1.0000 -0.081091371
C   C99       1.0  0.50000  0.25000  0.49430  1.0000 0.2218887958
C   C100      1.0  0.50000  0.25000  0.40360  1.0000 -0.1802771089
C   C101      1.0  0.50000  0.25000  0.35440  1.0000 0.1185126484
C   C102      1.0  0.50000  0.25000  0.26090  1.0000 -0.0351320204
C   C103      1.0  0.50000  0.25000  0.21150  1.0000 0.5381590728
C   C104      1.0  0.00000  0.75000  0.99430  1.0000 0.2218887958
C   C105      1.0  0.00000  0.75000  0.90360  1.0000 -0.1802771089
C   C106      1.0  0.00000  0.75000  0.85440  1.0000 0.1185126484
C   C107      1.0  0.00000  0.75000  0.76090  1.0000 -0.0351320204
C   C108      1.0  0.00000  0.75000  0.71150  1.0000 0.5381590728
O   O1        1.0  0.33240  0.62550  0.88870  1.0000 -0.5812071559
O   O2        1.0  0.42250  0.66850  0.95060  1.0000 -0.5361255106
O   O3        1.0  0.07610  0.19660  0.30874  1.0000 -0.5627130416
O   O4        1.0  0.66760  0.87450  0.88870  1.0000 -0.5812071559
O   O5        1.0  0.57750  0.83150  0.95060  1.0000 -0.5361255106
O   O6        1.0  0.92390  0.30340  0.30874  1.0000 -0.5627130416
O   O7        1.0  0.16760  0.12550  0.38870  1.0000 -0.5812071559
O   O8        1.0  0.07750  0.16850  0.45060  1.0000 -0.5361255106
O   O9        1.0  0.42390  0.69660  0.80874  1.0000 -0.5627130416
O   O10       1.0  0.83240  0.37450  0.38870  1.0000 -0.5812071559
O   O11       1.0  0.92250  0.33150  0.45060  1.0000 -0.5361255106
O   O12       1.0  0.57610  0.80340  0.80874  1.0000 -0.5627130416
O   O13       1.0  0.83240  0.87450  0.61130  1.0000 -0.5812071559
O   O14       1.0  0.92250  0.83150  0.54940  1.0000 -0.5361255106
O   O15       1.0  0.57610  0.30340  0.19126  1.0000 -0.5627130416
O   O16       1.0  0.16760  0.62550  0.61130  1.0000 -0.5812071559
O   O17       1.0  0.07750  0.66850  0.54940  1.0000 -0.5361255106
O   O18       1.0  0.42390  0.19660  0.19126  1.0000 -0.5627130416
O   O19       1.0  0.66760  0.37450  0.11130  1.0000 -0.5812071559
O   O20       1.0  0.57750  0.33150  0.04940  1.0000 -0.5361255106
O   O21       1.0  0.92390  0.80340  0.69126  1.0000 -0.5627130416
O   O22       1.0  0.33240  0.12550  0.11130  1.0000 -0.5812071559
O   O23       1.0  0.42250  0.16850  0.04940  1.0000 -0.5361255106
O   O24       1.0  0.07610  0.69660  0.69126  1.0000 -0.5627130416
F   F1        1.0  0.11650  0.39450  0.09532  1.0000 -0.1278879043
F   F2        1.0  0.88350  0.10550  0.09532  1.0000 -0.1278879043
F   F3        1.0  0.38350  0.89450  0.59532  1.0000 -0.1278879043
F   F4        1.0  0.61650  0.60550  0.59532  1.0000 -0.1278879043
F   F5        1.0  0.00000  0.25000  0.96010  1.0000 -0.1278879043
F   F6        1.0  0.50000  0.75000  0.46010  1.0000 -0.1278879043
F   F7        1.0  0.61650  0.10550  0.40468  1.0000 -0.1278879043
F   F8        1.0  0.38350  0.39450  0.40468  1.0000 -0.1278879043
F   F9        1.0  0.88350  0.60550  0.90468  1.0000 -0.1278879043
F   F10       1.0  0.11650  0.89450  0.90468  1.0000 -0.1278879043
F   F11       1.0  0.50000  0.25000  0.53990  1.0000 -0.1278879043
F   F12       1.0  0.00000  0.75000  0.03990  1.0000 -0.1278879043
