# DDEC6 charges by PACMAN v1.1 (https://github.com/mtap-research/PACMAN-charge/)
data_2021[Y][acs]3[ASR]1
_chemical_formula_sum              "Y4 P12 H72 C96 O36"
_cell_length_a       9.835
_cell_length_b       16.634
_cell_length_c       23.5
_cell_angle_alpha    90
_cell_angle_beta     90
_cell_angle_gamma    90

_symmetry_space_group_name_H-M    "P 1"
_symmetry_Int_Tables_number       1

loop_
  _symmetry_equiv_pos_as_xyz
  'x, y, z'

loop_
  _atom_site_type_symbol
  _atom_site_label
  _atom_site_symmetry_multiplicity
  _atom_site_fract_x
  _atom_site_fract_y
  _atom_site_fract_z
  _atom_site_occupancy
  _atom_site_charge
Y   Y1        1.0  0.82083  0.74279  0.79728  1.0000 1.9701113843
Y   Y2        1.0  0.17917  0.25721  0.29728  1.0000 1.9701113843
Y   Y3        1.0  0.32083  0.75721  0.79728  1.0000 1.9701113843
Y   Y4        1.0  0.67917  0.24279  0.29728  1.0000 1.9701113843
P   P1        1.0  0.56710  0.59750  0.81200  1.0000 1.3066645108
P   P2        1.0  0.92170  0.33380  0.38500  1.0000 1.2892618321
P   P3        1.0  0.57290  0.81960  0.69800  1.0000 1.3177473389
P   P4        1.0  0.43290  0.40250  0.31200  1.0000 1.3066645108
P   P5        1.0  0.07830  0.66620  0.88500  1.0000 1.2892618321
P   P6        1.0  0.42710  0.18040  0.19800  1.0000 1.3177473389
P   P7        1.0  0.06710  0.90250  0.81200  1.0000 1.3066645108
P   P8        1.0  0.42170  0.16620  0.38500  1.0000 1.2892618321
P   P9        1.0  0.07290  0.68040  0.69800  1.0000 1.3177473389
P   P10       1.0  0.93290  0.09750  0.31200  1.0000 1.3066645108
P   P11       1.0  0.57830  0.83380  0.88500  1.0000 1.2892618321
P   P12       1.0  0.92710  0.31960  0.19800  1.0000 1.3177473389
H   H1        1.0  0.66150  0.52520  0.87060  1.0000 0.3819815286
H   H2        1.0  0.83060  0.43120  0.42090  1.0000 0.3819815286
H   H3        1.0  0.64000  0.73360  0.64440  1.0000 0.4055051498
H   H4        1.0  0.30260  0.53120  0.77730  1.0000 0.132676854
H   H5        1.0  0.24720  0.42620  0.71930  1.0000 0.1180017863
H   H6        1.0  0.62340  0.34200  0.71850  1.0000 0.1180017863
H   H7        1.0  0.69480  0.45380  0.77080  1.0000 0.1118930079
H   H8        1.0  0.24310  0.36790  0.62890  1.0000 0.1118930079
H   H9        1.0  0.27400  0.13550  0.58380  1.0000 0.1118930079
H   H10       1.0  0.49820  0.21870  0.71670  1.0000 0.1180017863
H   H11       1.0  0.21970  0.38790  0.54070  1.0000 0.1118930079
H   H12       1.0  0.10680  0.41770  0.45720  1.0000 0.1118930079
H   H13       1.0  0.92640  0.19860  0.46340  1.0000 0.1180017863
H   H14       1.0  0.05650  0.16920  0.54270  1.0000 0.1180017863
H   H15       1.0  0.44560  0.08960  0.75150  1.0000 0.1118930079
H   H16       1.0  0.51420  0.95480  0.76520  1.0000 0.13584347
H   H17       1.0  0.54300  0.91830  0.59830  1.0000 0.1180017863
H   H18       1.0  0.46400  0.04930  0.58270  1.0000 0.1118930079
H   H19       1.0  0.33850  0.47480  0.37060  1.0000 0.3819815286
H   H20       1.0  0.16940  0.56880  0.92090  1.0000 0.3819815286
H   H21       1.0  0.36000  0.26640  0.14440  1.0000 0.4055051498
H   H22       1.0  0.69740  0.46880  0.27730  1.0000 0.132676854
H   H23       1.0  0.75280  0.57380  0.21930  1.0000 0.1180017863
H   H24       1.0  0.37660  0.65800  0.21850  1.0000 0.1180017863
H   H25       1.0  0.30520  0.54620  0.27080  1.0000 0.1118930079
H   H26       1.0  0.75690  0.63210  0.12890  1.0000 0.1118930079
H   H27       1.0  0.72600  0.86450  0.08380  1.0000 0.1118930079
H   H28       1.0  0.50180  0.78130  0.21670  1.0000 0.1180017863
H   H29       1.0  0.78030  0.61210  0.04070  1.0000 0.1118930079
H   H30       1.0  0.89320  0.58230  0.95720  1.0000 0.1118930079
H   H31       1.0  0.07360  0.80140  0.96340  1.0000 0.1180017863
H   H32       1.0  0.94350  0.83080  0.04270  1.0000 0.1180017863
H   H33       1.0  0.55440  0.91040  0.25150  1.0000 0.1118930079
H   H34       1.0  0.48580  0.04520  0.26520  1.0000 0.13584347
H   H35       1.0  0.45700  0.08170  0.09830  1.0000 0.1180017863
H   H36       1.0  0.53600  0.95070  0.08270  1.0000 0.1118930079
H   H37       1.0  0.16150  0.97480  0.87060  1.0000 0.3819815286
H   H38       1.0  0.33060  0.06880  0.42090  1.0000 0.3819815286
H   H39       1.0  0.14000  0.76640  0.64440  1.0000 0.4055051498
H   H40       1.0  0.80260  0.96880  0.77730  1.0000 0.132676854
H   H41       1.0  0.74720  0.07380  0.71930  1.0000 0.1180017863
H   H42       1.0  0.12340  0.15800  0.71850  1.0000 0.1180017863
H   H43       1.0  0.19480  0.04620  0.77080  1.0000 0.1118930079
H   H44       1.0  0.74310  0.13210  0.62890  1.0000 0.1118930079
H   H45       1.0  0.77400  0.36450  0.58380  1.0000 0.1118930079
H   H46       1.0  0.99820  0.28130  0.71670  1.0000 0.1180017863
H   H47       1.0  0.71970  0.11210  0.54070  1.0000 0.1118930079
H   H48       1.0  0.60680  0.08230  0.45720  1.0000 0.1118930079
H   H49       1.0  0.42640  0.30140  0.46340  1.0000 0.1180017863
H   H50       1.0  0.55650  0.33080  0.54270  1.0000 0.1180017863
H   H51       1.0  0.94560  0.41040  0.75150  1.0000 0.1118930079
H   H52       1.0  0.01420  0.54520  0.76520  1.0000 0.13584347
H   H53       1.0  0.04300  0.58170  0.59830  1.0000 0.1180017863
H   H54       1.0  0.96400  0.45070  0.58270  1.0000 0.1118930079
H   H55       1.0  0.83850  0.02520  0.37060  1.0000 0.3819815286
H   H56       1.0  0.66940  0.93120  0.92090  1.0000 0.3819815286
H   H57       1.0  0.86000  0.23360  0.14440  1.0000 0.4055051498
H   H58       1.0  0.19740  0.03120  0.27730  1.0000 0.132676854
H   H59       1.0  0.25280  0.92620  0.21930  1.0000 0.1180017863
H   H60       1.0  0.87660  0.84200  0.21850  1.0000 0.1180017863
H   H61       1.0  0.80520  0.95380  0.27080  1.0000 0.1118930079
H   H62       1.0  0.25690  0.86790  0.12890  1.0000 0.1118930079
H   H63       1.0  0.22600  0.63550  0.08380  1.0000 0.1118930079
H   H64       1.0  0.00180  0.71870  0.21670  1.0000 0.1180017863
H   H65       1.0  0.28030  0.88790  0.04070  1.0000 0.1118930079
H   H66       1.0  0.39320  0.91770  0.95720  1.0000 0.1118930079
H   H67       1.0  0.57360  0.69860  0.96340  1.0000 0.1180017863
H   H68       1.0  0.44350  0.66920  0.04270  1.0000 0.1180017863
H   H69       1.0  0.05440  0.58960  0.25150  1.0000 0.1118930079
H   H70       1.0  0.98580  0.45480  0.26520  1.0000 0.13584347
H   H71       1.0  0.95700  0.41830  0.09830  1.0000 0.1180017863
H   H72       1.0  0.03600  0.54930  0.08270  1.0000 0.1118930079
C   C1        1.0  0.51030  0.50930  0.77240  1.0000 -0.2162261464
C   C2        1.0  0.37100  0.49660  0.76240  1.0000 -0.0500666334
C   C3        1.0  0.33970  0.43210  0.73010  1.0000 -0.1359301217
C   C4        1.0  0.42610  0.37540  0.71170  1.0000 0.0721067146
C   C5        1.0  0.55990  0.38280  0.72830  1.0000 -0.1494304247
C   C6        1.0  0.60300  0.44940  0.75910  1.0000 -0.0862224159
C   C7        1.0  0.38380  0.30500  0.67670  1.0000 0.0906247638
C   C8        1.0  0.28400  0.31650  0.63320  1.0000 -0.2103784687
C   C9        1.0  0.24690  0.25670  0.59830  1.0000 0.0805567449
C   C10       1.0  0.30010  0.17840  0.60810  1.0000 -0.2029690508
C   C11       1.0  0.38980  0.16370  0.65280  1.0000 0.0906247638
C   C12       1.0  0.43450  0.22770  0.68700  1.0000 -0.2103784687
C   C13       1.0  0.15660  0.27500  0.55120  1.0000 0.0805567449
C   C14       1.0  0.16300  0.34770  0.52450  1.0000 -0.1554254449
C   C15       1.0  0.09210  0.36720  0.47500  1.0000 -0.0800556801
C   C16       1.0  0.99840  0.31220  0.45120  1.0000 -0.2599718056
C   C17       1.0  0.98730  0.23790  0.47790  1.0000 -0.0500666334
C   C18       1.0  0.06560  0.22090  0.52600  1.0000 -0.1494304247
C   C19       1.0  0.44100  0.08040  0.66320  1.0000 0.0721067146
C   C20       1.0  0.46050  0.05470  0.72000  1.0000 -0.1554254449
C   C21       1.0  0.50360  0.97380  0.72730  1.0000 -0.0563592964
C   C22       1.0  0.53040  0.92210  0.68500  1.0000 -0.2029690508
C   C23       1.0  0.51900  0.95140  0.62980  1.0000 -0.0715947233
C   C24       1.0  0.47290  0.03060  0.62070  1.0000 -0.1494304247
C   C25       1.0  0.48970  0.49070  0.27240  1.0000 -0.2103784687
C   C26       1.0  0.62900  0.50340  0.26240  1.0000 -0.0500666334
C   C27       1.0  0.66030  0.56790  0.23010  1.0000 -0.1359301217
C   C28       1.0  0.57390  0.62460  0.21170  1.0000 0.0721067146
C   C29       1.0  0.44010  0.61720  0.22830  1.0000 -0.1494304247
C   C30       1.0  0.39700  0.55060  0.25910  1.0000 -0.0862224159
C   C31       1.0  0.61620  0.69500  0.17670  1.0000 0.0906247638
C   C32       1.0  0.71600  0.68350  0.13320  1.0000 -0.2103784687
C   C33       1.0  0.75310  0.74330  0.09830  1.0000 0.0805567449
C   C34       1.0  0.69990  0.82160  0.10810  1.0000 -0.2029690508
C   C35       1.0  0.61020  0.83630  0.15280  1.0000 0.0906247638
C   C36       1.0  0.56550  0.77230  0.18700  1.0000 -0.2103784687
C   C37       1.0  0.84340  0.72500  0.05120  1.0000 0.0805567449
C   C38       1.0  0.83700  0.65230  0.02450  1.0000 -0.1554254449
C   C39       1.0  0.90790  0.63280  0.97500  1.0000 -0.0800556801
C   C40       1.0  0.00160  0.68780  0.95120  1.0000 -0.2599718056
C   C41       1.0  0.01270  0.76210  0.97790  1.0000 -0.0500666334
C   C42       1.0  0.93440  0.77910  0.02600  1.0000 -0.1494304247
C   C43       1.0  0.55900  0.91960  0.16320  1.0000 0.0721067146
C   C44       1.0  0.53950  0.94530  0.22000  1.0000 -0.1554254449
C   C45       1.0  0.49640  0.02620  0.22730  1.0000 -0.0563592964
C   C46       1.0  0.46960  0.07790  0.18500  1.0000 -0.2029690508
C   C47       1.0  0.48100  0.04860  0.12980  1.0000 -0.0715947233
C   C48       1.0  0.52710  0.96940  0.12070  1.0000 -0.1494304247
C   C49       1.0  0.01030  0.99070  0.77240  1.0000 -0.2162261464
C   C50       1.0  0.87100  0.00340  0.76240  1.0000 -0.0500666334
C   C51       1.0  0.83970  0.06790  0.73010  1.0000 -0.1359301217
C   C52       1.0  0.92610  0.12460  0.71170  1.0000 0.0721067146
C   C53       1.0  0.05990  0.11720  0.72830  1.0000 -0.1494304247
C   C54       1.0  0.10300  0.05060  0.75910  1.0000 -0.0800556801
C   C55       1.0  0.88380  0.19500  0.67670  1.0000 0.0906247638
C   C56       1.0  0.78400  0.18350  0.63320  1.0000 -0.2103784687
C   C57       1.0  0.74690  0.24330  0.59830  1.0000 0.0805567449
C   C58       1.0  0.80010  0.32160  0.60810  1.0000 -0.2029690508
C   C59       1.0  0.88980  0.33630  0.65280  1.0000 0.0906247638
C   C60       1.0  0.93450  0.27230  0.68700  1.0000 -0.2103784687
C   C61       1.0  0.65660  0.22500  0.55120  1.0000 0.0805567449
C   C62       1.0  0.66300  0.15230  0.52450  1.0000 -0.1554254449
C   C63       1.0  0.59210  0.13280  0.47500  1.0000 -0.0800556801
C   C64       1.0  0.49840  0.18780  0.45120  1.0000 -0.2599718056
C   C65       1.0  0.48730  0.26210  0.47790  1.0000 -0.0500666334
C   C66       1.0  0.56560  0.27910  0.52600  1.0000 -0.1494304247
C   C67       1.0  0.94100  0.41960  0.66320  1.0000 0.0721067146
C   C68       1.0  0.96050  0.44530  0.72000  1.0000 -0.1554254449
C   C69       1.0  0.00360  0.52620  0.72730  1.0000 -0.0563592964
C   C70       1.0  0.03040  0.57790  0.68500  1.0000 -0.2029690508
C   C71       1.0  0.01900  0.54860  0.62980  1.0000 -0.0715947233
C   C72       1.0  0.97290  0.46940  0.62070  1.0000 -0.1494304247
C   C73       1.0  0.98970  0.00930  0.27240  1.0000 -0.2162261464
C   C74       1.0  0.12900  0.99660  0.26240  1.0000 -0.0500666334
C   C75       1.0  0.16030  0.93210  0.23010  1.0000 -0.1359301217
C   C76       1.0  0.07390  0.87540  0.21170  1.0000 0.0721067146
C   C77       1.0  0.94010  0.88280  0.22830  1.0000 -0.1494304247
C   C78       1.0  0.89700  0.94940  0.25910  1.0000 -0.0862224159
C   C79       1.0  0.11620  0.80500  0.17670  1.0000 0.0906247638
C   C80       1.0  0.21600  0.81650  0.13320  1.0000 -0.2103784687
C   C81       1.0  0.25310  0.75670  0.09830  1.0000 0.0805567449
C   C82       1.0  0.19990  0.67840  0.10810  1.0000 -0.2029690508
C   C83       1.0  0.11020  0.66370  0.15280  1.0000 0.0906247638
C   C84       1.0  0.06550  0.72770  0.18700  1.0000 -0.2103784687
C   C85       1.0  0.34340  0.77500  0.05120  1.0000 0.0805567449
C   C86       1.0  0.33700  0.84770  0.02450  1.0000 -0.1554254449
C   C87       1.0  0.40790  0.86720  0.97500  1.0000 -0.0800556801
C   C88       1.0  0.50160  0.81220  0.95120  1.0000 -0.2599718056
C   C89       1.0  0.51270  0.73790  0.97790  1.0000 -0.0500666334
C   C90       1.0  0.43440  0.72090  0.02600  1.0000 -0.1494304247
C   C91       1.0  0.05900  0.58040  0.16320  1.0000 0.0721067146
C   C92       1.0  0.03950  0.55470  0.22000  1.0000 -0.1554254449
C   C93       1.0  0.99640  0.47380  0.22730  1.0000 -0.0563592964
C   C94       1.0  0.96960  0.42210  0.18500  1.0000 -0.2029690508
C   C95       1.0  0.98100  0.45140  0.12980  1.0000 -0.0715947233
C   C96       1.0  0.02710  0.53060  0.12070  1.0000 -0.1494304247
O   O1        1.0  0.69140  0.63420  0.78460  1.0000 -0.837510959
O   O2        1.0  0.44860  0.65100  0.81960  1.0000 -0.8122992473
O   O3        1.0  0.61230  0.56620  0.87410  1.0000 -0.5971705772
O   O4        1.0  0.86280  0.42290  0.38830  1.0000 -0.5928529956
O   O5        1.0  0.03510  0.33750  0.34210  1.0000 -0.8323590741
O   O6        1.0  0.81140  0.27670  0.37250  1.0000 -0.8122992473
O   O7        1.0  0.61390  0.78110  0.63920  1.0000 -0.5776875771
O   O8        1.0  0.69010  0.81520  0.73880  1.0000 -0.8323590741
O   O9        1.0  0.44680  0.77870  0.71730  1.0000 -0.8122992473
O   O10       1.0  0.30860  0.36580  0.28460  1.0000 -0.837510959
O   O11       1.0  0.55140  0.34900  0.31960  1.0000 -0.8122992473
O   O12       1.0  0.38770  0.43380  0.37410  1.0000 -0.5971705772
O   O13       1.0  0.13720  0.57710  0.88830  1.0000 -0.5971705772
O   O14       1.0  0.96490  0.66250  0.84210  1.0000 -0.8323590741
O   O15       1.0  0.18860  0.72330  0.87250  1.0000 -0.8122992473
O   O16       1.0  0.38610  0.21890  0.13920  1.0000 -0.5776875771
O   O17       1.0  0.30990  0.18480  0.23880  1.0000 -0.8323590741
O   O18       1.0  0.55320  0.22130  0.21730  1.0000 -0.8122992473
O   O19       1.0  0.19140  0.86580  0.78460  1.0000 -0.837510959
O   O20       1.0  0.94860  0.84900  0.81960  1.0000 -0.8122992473
O   O21       1.0  0.11230  0.93380  0.87410  1.0000 -0.5971705772
O   O22       1.0  0.36280  0.07710  0.38830  1.0000 -0.5971705772
O   O23       1.0  0.53510  0.16250  0.34210  1.0000 -0.8323590741
O   O24       1.0  0.31140  0.22330  0.37250  1.0000 -0.8122992473
O   O25       1.0  0.11390  0.71890  0.63920  1.0000 -0.5776875771
O   O26       1.0  0.19010  0.68480  0.73880  1.0000 -0.8323590741
O   O27       1.0  0.94680  0.72130  0.71730  1.0000 -0.8122992473
O   O28       1.0  0.80860  0.13420  0.28460  1.0000 -0.837510959
O   O29       1.0  0.05140  0.15100  0.31960  1.0000 -0.8122992473
O   O30       1.0  0.88770  0.06620  0.37410  1.0000 -0.5971705772
O   O31       1.0  0.63720  0.92290  0.88830  1.0000 -0.5928529956
O   O32       1.0  0.46490  0.83750  0.84210  1.0000 -0.8323590741
O   O33       1.0  0.68860  0.77670  0.87250  1.0000 -0.8122992473
O   O34       1.0  0.88610  0.28110  0.13920  1.0000 -0.5776875771
O   O35       1.0  0.80990  0.31520  0.23880  1.0000 -0.837510959
O   O36       1.0  0.05320  0.27870  0.21730  1.0000 -0.8122992473
