# DDEC6 charges by PACMAN v1.1 (https://github.com/mtap-research/PACMAN-charge/)
data_2021[Zn][pcu]3[ASR]4
_chemical_formula_sum              "Zn5 H42 C66 N4 O22"
_cell_length_a       9.5983
_cell_length_b       11.4372
_cell_length_c       16.8092
_cell_angle_alpha    104.306
_cell_angle_beta     101.699
_cell_angle_gamma    98.756

_symmetry_space_group_name_H-M    "P 1"
_symmetry_Int_Tables_number       1

loop_
  _symmetry_equiv_pos_as_xyz
  'x, y, z'

loop_
  _atom_site_type_symbol
  _atom_site_label
  _atom_site_symmetry_multiplicity
  _atom_site_fract_x
  _atom_site_fract_y
  _atom_site_fract_z
  _atom_site_occupancy
  _atom_site_charge
Zn  Zn1       1.0  0.94839  0.60705  0.04301  1.0000 0.8371007739
Zn  Zn2       1.0  0.09400  0.75225  0.42714  1.0000 0.949082881
Zn  Zn3       1.0  0.05161  0.39295  0.95699  1.0000 0.8371007739
Zn  Zn4       1.0  0.90600  0.24775  0.57286  1.0000 0.949082881
Zn  Zn5       1.0  0.00000  0.00000  0.50000  1.0000 1.0442136226
H   H1        1.0  0.61170  0.89530  0.06230  1.0000 0.1280716894
H   H2        1.0  0.70590  0.72920  0.00280  1.0000 0.1205078798
H   H3        1.0  0.01500  0.79640  0.21250  1.0000 0.1280716894
H   H4        1.0  0.92310  0.95860  0.28090  1.0000 0.1410172748
H   H5        1.0  0.66530  0.11650  0.11400  1.0000 0.1410172748
H   H6        1.0  0.58380  0.28930  0.17610  1.0000 0.1280716894
H   H7        1.0  0.62830  0.19800  0.39310  1.0000 0.1410172748
H   H8        1.0  0.71700  0.02590  0.33450  1.0000 0.1506377357
H   H9        1.0  0.35840  0.31260  0.22790  1.0000 0.1205078798
H   H10       1.0  0.25800  0.48020  0.28270  1.0000 0.1205078798
H   H11       1.0  0.61590  0.61500  0.48040  1.0000 0.1280716894
H   H12       1.0  0.71170  0.44150  0.42850  1.0000 0.1410172748
H   H13       1.0  0.06470  0.55900  0.61420  1.0000 0.1205078798
H   H14       1.0  0.07980  0.50000  0.73860  1.0000 0.1280716894
H   H15       1.0  0.93470  0.80240  0.84430  1.0000 0.1205078798
H   H16       1.0  0.91640  0.85970  0.71920  1.0000 0.1134686766
H   H17       1.0  0.50120  0.51690  0.10250  1.0000 0.1205078798
H   H18       1.0  0.72370  0.58280  0.20490  1.0000 0.1205078798
H   H19       1.0  0.55920  0.84410  0.34600  1.0000 0.1205078798
H   H20       1.0  0.33780  0.77810  0.24390  1.0000 0.1205078798
H   H21       1.0  0.23720  0.97370  0.44600  1.0000 0.4117356686
H   H22       1.0  0.38830  0.10470  0.93770  1.0000 0.1280716894
H   H23       1.0  0.29410  0.27080  0.99720  1.0000 0.1205078798
H   H24       1.0  0.98500  0.20360  0.78750  1.0000 0.1280716894
H   H25       1.0  0.07690  0.04140  0.71910  1.0000 0.1410172748
H   H26       1.0  0.33470  0.88350  0.88600  1.0000 0.1410172748
H   H27       1.0  0.41620  0.71070  0.82390  1.0000 0.1280716894
H   H28       1.0  0.37170  0.80200  0.60690  1.0000 0.1410172748
H   H29       1.0  0.28300  0.97410  0.66550  1.0000 0.1550862936
H   H30       1.0  0.64160  0.68740  0.77210  1.0000 0.1205078798
H   H31       1.0  0.74200  0.51980  0.71730  1.0000 0.1205078798
H   H32       1.0  0.38410  0.38500  0.51960  1.0000 0.1280716894
H   H33       1.0  0.28830  0.55850  0.57150  1.0000 0.1410172748
H   H34       1.0  0.93530  0.44100  0.38580  1.0000 0.1205078798
H   H35       1.0  0.92020  0.50000  0.26140  1.0000 0.1280716894
H   H36       1.0  0.06530  0.19760  0.15570  1.0000 0.1205078798
H   H37       1.0  0.08360  0.14030  0.28080  1.0000 0.1134686766
H   H38       1.0  0.49880  0.48310  0.89750  1.0000 0.1205078798
H   H39       1.0  0.27630  0.41720  0.79510  1.0000 0.1205078798
H   H40       1.0  0.44080  0.15590  0.65400  1.0000 0.1205078798
H   H41       1.0  0.66220  0.22190  0.75610  1.0000 0.1205078798
H   H42       1.0  0.76280  0.02630  0.55400  1.0000 0.4117356686
C   C1        1.0  0.69350  0.87580  0.09470  1.0000 -0.1926148834
C   C2        1.0  0.75110  0.77780  0.05950  1.0000 0.0907885058
C   C3        1.0  0.93100  0.81620  0.18250  1.0000 0.0993483661
C   C4        1.0  0.87810  0.91390  0.22340  1.0000 -0.1714676322
C   C5        1.0  0.75750  0.94570  0.17860  1.0000 0.1205078798
C   C6        1.0  0.70050  0.05290  0.21770  1.0000 0.1134686766
C   C7        1.0  0.65930  0.13250  0.17120  1.0000 -0.1818293446
C   C8        1.0  0.60990  0.23420  0.20780  1.0000 0.0089569957
C   C9        1.0  0.63690  0.18080  0.33620  1.0000 0.0483861508
C   C10       1.0  0.68900  0.07870  0.30130  1.0000 -0.1605616363
C   C11       1.0  0.54180  0.36310  0.32420  1.0000 0.1506377357
C   C12       1.0  0.40910  0.37310  0.27970  1.0000 -0.1818293446
C   C13       1.0  0.35060  0.47310  0.31190  1.0000 -0.0665114002
C   C14       1.0  0.42700  0.56270  0.38690  1.0000 -0.0212322717
C   C15       1.0  0.56270  0.55260  0.43000  1.0000 -0.0755462946
C   C16       1.0  0.62040  0.45060  0.39890  1.0000 -0.1605616363
C   C17       1.0  0.35740  0.66810  0.42160  1.0000 0.5629635452
C   C18       1.0  0.04040  0.60940  0.66120  1.0000 -0.1035143362
C   C19       1.0  0.04940  0.57430  0.73530  1.0000 -0.1093622286
C   C20       1.0  0.01400  0.64760  0.80480  1.0000 -0.0292034528
C   C21       1.0  0.96270  0.75380  0.79810  1.0000 -0.125519097
C   C22       1.0  0.95280  0.78820  0.72370  1.0000 -0.1183898712
C   C23       1.0  0.99580  0.71850  0.65550  1.0000 -0.0292034528
C   C24       1.0  0.00740  0.76600  0.58070  1.0000 0.5783369391
C   C25       1.0  0.02430  0.60700  0.88360  1.0000 0.5783369391
C   C26       1.0  0.51330  0.58350  0.15180  1.0000 -0.1183898712
C   C27       1.0  0.64560  0.62280  0.21260  1.0000 -0.1093622286
C   C28       1.0  0.66380  0.72110  0.28500  1.0000 -0.0292034528
C   C29       1.0  0.54780  0.77820  0.29650  1.0000 -0.1093622286
C   C30       1.0  0.41640  0.73890  0.23590  1.0000 -0.1035143362
C   C31       1.0  0.39830  0.64190  0.16300  1.0000 -0.0292034528
C   C32       1.0  0.25540  0.59840  0.09820  1.0000 0.5783369391
C   C33       1.0  0.80870  0.77000  0.34920  1.0000 0.5783369391
C   C34       1.0  0.30650  0.12420  0.90530  1.0000 -0.1926148834
C   C35       1.0  0.24890  0.22220  0.94050  1.0000 0.0907885058
C   C36       1.0  0.06900  0.18380  0.81750  1.0000 0.0993483661
C   C37       1.0  0.12190  0.08610  0.77660  1.0000 -0.1714676322
C   C38       1.0  0.24250  0.05430  0.82140  1.0000 0.1205078798
C   C39       1.0  0.29950  0.94710  0.78230  1.0000 0.1134686766
C   C40       1.0  0.34070  0.86750  0.82880  1.0000 -0.1818293446
C   C41       1.0  0.39010  0.76580  0.79220  1.0000 0.0089569957
C   C42       1.0  0.36310  0.81920  0.66380  1.0000 0.0483861508
C   C43       1.0  0.31100  0.92130  0.69870  1.0000 -0.1605616363
C   C44       1.0  0.45820  0.63690  0.67580  1.0000 0.1506377357
C   C45       1.0  0.59090  0.62690  0.72030  1.0000 -0.1818293446
C   C46       1.0  0.64940  0.52690  0.68810  1.0000 -0.0665114002
C   C47       1.0  0.57300  0.43730  0.61310  1.0000 -0.0212322717
C   C48       1.0  0.43730  0.44740  0.57000  1.0000 -0.0755462946
C   C49       1.0  0.37960  0.54940  0.60110  1.0000 -0.1605616363
C   C50       1.0  0.64260  0.33190  0.57840  1.0000 0.5629635452
C   C51       1.0  0.95960  0.39060  0.33880  1.0000 -0.1035143362
C   C52       1.0  0.95060  0.42570  0.26470  1.0000 -0.1093622286
C   C53       1.0  0.98600  0.35240  0.19520  1.0000 -0.0292034528
C   C54       1.0  0.03730  0.24620  0.20190  1.0000 -0.125519097
C   C55       1.0  0.04720  0.21180  0.27630  1.0000 -0.1183898712
C   C56       1.0  0.00420  0.28150  0.34450  1.0000 -0.0292034528
C   C57       1.0  0.99260  0.23400  0.41930  1.0000 0.5783369391
C   C58       1.0  0.97570  0.39300  0.11640  1.0000 0.5783369391
C   C59       1.0  0.48670  0.41650  0.84820  1.0000 -0.1183898712
C   C60       1.0  0.35440  0.37720  0.78740  1.0000 -0.1093622286
C   C61       1.0  0.33620  0.27890  0.71500  1.0000 -0.0292034528
C   C62       1.0  0.45220  0.22180  0.70350  1.0000 -0.1093622286
C   C63       1.0  0.58360  0.26110  0.76410  1.0000 -0.1035143362
C   C64       1.0  0.60170  0.35810  0.83700  1.0000 -0.0292034528
C   C65       1.0  0.74460  0.40160  0.90180  1.0000 0.5783369391
C   C66       1.0  0.19130  0.23000  0.65080  1.0000 0.5783369391
N   N1        1.0  0.86820  0.74830  0.10210  1.0000 -0.2099440696
N   N2        1.0  0.59830  0.25600  0.28880  1.0000 0.0483861508
N   N3        1.0  0.13180  0.25170  0.89790  1.0000 -0.2099440696
N   N4        1.0  0.40170  0.74400  0.71120  1.0000 0.0483861508
O   O1        1.0  0.22490  0.65540  0.38310  1.0000 -0.5609273614
O   O2        1.0  0.42950  0.75570  0.48360  1.0000 -0.5708161892
O   O3        1.0  0.05380  0.69780  0.52400  1.0000 -0.5609273614
O   O4        1.0  0.97980  0.86990  0.58120  1.0000 -0.5708161892
O   O5        1.0  0.06480  0.50930  0.88330  1.0000 -0.5264755191
O   O6        1.0  0.98740  0.67240  0.94460  1.0000 -0.5392598214
O   O7        1.0  0.23700  0.49910  0.04100  1.0000 -0.5510234536
O   O8        1.0  0.16140  0.66270  0.10500  1.0000 -0.5264755191
O   O9        1.0  0.90390  0.70400  0.34315  1.0000 -0.5609273614
O   O10       1.0  0.82650  0.87320  0.40202  1.0000 -0.5510234536
O   O11       1.0  0.15160  0.92900  0.45370  1.0000 -0.8771483006
O   O12       1.0  0.77510  0.34460  0.61690  1.0000 -0.5609273614
O   O13       1.0  0.57050  0.24430  0.51640  1.0000 -0.5708161892
O   O14       1.0  0.94620  0.30220  0.47600  1.0000 -0.5609273614
O   O15       1.0  0.02020  0.13010  0.41880  1.0000 -0.5708161892
O   O16       1.0  0.93520  0.49070  0.11670  1.0000 -0.5264755191
O   O17       1.0  0.01260  0.32760  0.05540  1.0000 -0.5392598214
O   O18       1.0  0.76300  0.50090  0.95900  1.0000 -0.5510234536
O   O19       1.0  0.83860  0.33730  0.89500  1.0000 -0.5264755191
O   O20       1.0  0.09610  0.29600  0.65685  1.0000 -0.5609273614
O   O21       1.0  0.17350  0.12680  0.59798  1.0000 -0.5510234536
O   O22       1.0  0.84840  0.07100  0.54630  1.0000 -0.8771483006
