# DDEC6 charges by PACMAN v1.1 (https://github.com/mtap-research/PACMAN-charge/)
data_2021[Pr][pcu]3[ASR]1
_chemical_formula_sum              "Pr4 H40 C48 N4 O24"
_cell_length_a       6.2123
_cell_length_b       22.161
_cell_length_c       12.1437
_cell_angle_alpha    90
_cell_angle_beta     110.926
_cell_angle_gamma    90

_symmetry_space_group_name_H-M    "P 1"
_symmetry_Int_Tables_number       1

loop_
  _symmetry_equiv_pos_as_xyz
  'x, y, z'

loop_
  _atom_site_type_symbol
  _atom_site_label
  _atom_site_symmetry_multiplicity
  _atom_site_fract_x
  _atom_site_fract_y
  _atom_site_fract_z
  _atom_site_occupancy
  _atom_site_charge
Pr  Pr1       1.0  0.84783  0.75266  0.41575  1.0000 1.9483054688
Pr  Pr2       1.0  0.15217  0.25266  0.08425  1.0000 1.9483054688
Pr  Pr3       1.0  0.15217  0.24734  0.58425  1.0000 1.9483054688
Pr  Pr4       1.0  0.84783  0.74734  0.91575  1.0000 1.9483054688
H   H1        1.0  0.80736  0.40795  0.28783  1.0000 0.1327826602
H   H2        1.0  0.93090  0.50288  0.35563  1.0000 0.1105242308
H   H3        1.0  0.31634  0.53950  0.37659  1.0000 0.1219428267
H   H4        1.0  0.18492  0.44783  0.29744  1.0000 0.1105242308
H   H5        1.0  0.89051  0.59364  0.44827  1.0000 0.1219428267
H   H6        1.0  0.66915  0.60527  0.47814  1.0000 0.1219428267
H   H7        1.0  0.35686  0.68283  0.21831  1.0000 0.1564830056
H   H8        1.0  0.31671  0.61983  0.26707  1.0000 0.1327826602
H   H9        1.0  0.85026  0.60276  0.24615  1.0000 0.1327826602
H   H10       1.0  0.58879  0.60494  0.16592  1.0000 0.1406973674
H   H11       1.0  0.19264  0.90795  0.21217  1.0000 0.1327826602
H   H12       1.0  0.06910  0.00288  0.14437  1.0000 0.1105242308
H   H13       1.0  0.68366  0.03950  0.12341  1.0000 0.1219428267
H   H14       1.0  0.81508  0.94783  0.20256  1.0000 0.1105242308
H   H15       1.0  0.10949  0.09364  0.05173  1.0000 0.1219428267
H   H16       1.0  0.33085  0.10527  0.02186  1.0000 0.1219428267
H   H17       1.0  0.64314  0.18283  0.28169  1.0000 0.1564830056
H   H18       1.0  0.68329  0.11983  0.23293  1.0000 0.1327826602
H   H19       1.0  0.14974  0.10276  0.25385  1.0000 0.1327826602
H   H20       1.0  0.41121  0.10494  0.33408  1.0000 0.1406973674
H   H21       1.0  0.19264  0.59205  0.71217  1.0000 0.1327826602
H   H22       1.0  0.06910  0.49712  0.64437  1.0000 0.1105242308
H   H23       1.0  0.68366  0.46050  0.62341  1.0000 0.1219428267
H   H24       1.0  0.81508  0.55217  0.70256  1.0000 0.1105242308
H   H25       1.0  0.10949  0.40636  0.55173  1.0000 0.1219428267
H   H26       1.0  0.33085  0.39473  0.52186  1.0000 0.1219428267
H   H27       1.0  0.64314  0.31717  0.78169  1.0000 0.1564830056
H   H28       1.0  0.68329  0.38017  0.73293  1.0000 0.1327826602
H   H29       1.0  0.14974  0.39724  0.75385  1.0000 0.1327826602
H   H30       1.0  0.41121  0.39506  0.83408  1.0000 0.1406973674
H   H31       1.0  0.80736  0.09205  0.78783  1.0000 0.1327826602
H   H32       1.0  0.93090  0.99712  0.85563  1.0000 0.1105242308
H   H33       1.0  0.31634  0.96050  0.87659  1.0000 0.1219428267
H   H34       1.0  0.18492  0.05217  0.79744  1.0000 0.1105242308
H   H35       1.0  0.89051  0.90636  0.94827  1.0000 0.1219428267
H   H36       1.0  0.66915  0.89473  0.97814  1.0000 0.1219428267
H   H37       1.0  0.35686  0.81717  0.71831  1.0000 0.1564830056
H   H38       1.0  0.31671  0.88017  0.76707  1.0000 0.1327826602
H   H39       1.0  0.85026  0.89724  0.74615  1.0000 0.1327826602
H   H40       1.0  0.58879  0.89506  0.66592  1.0000 0.1406973674
C   C1        1.0  0.47900  0.41800  0.28050  1.0000 -0.0143222647
C   C2        1.0  0.70590  0.43500  0.30210  1.0000 -0.0909960011
C   C3        1.0  0.78030  0.49170  0.34460  1.0000 -0.172422845
C   C4        1.0  0.63750  0.53290  0.37150  1.0000 0.1105242308
C   C5        1.0  0.41390  0.51390  0.35550  1.0000 -0.1639158318
C   C6        1.0  0.33630  0.45870  0.30970  1.0000 -0.0975675659
C   C7        1.0  0.72360  0.59490  0.41500  1.0000 -0.2140570061
C   C8        1.0  0.38580  0.35890  0.22390  1.0000 0.5834128371
C   C9        1.0  0.40360  0.65710  0.28760  1.0000 -0.2999376247
C   C10       1.0  0.35070  0.68880  0.38780  1.0000 0.6604293099
C   C11       1.0  0.71380  0.62800  0.22100  1.0000 -0.2799818108
C   C12       1.0  0.75870  0.68340  0.15880  1.0000 0.6691411248
C   C13       1.0  0.52100  0.91800  0.21950  1.0000 -0.0143222647
C   C14       1.0  0.29410  0.93500  0.19790  1.0000 -0.0909960011
C   C15       1.0  0.21970  0.99170  0.15540  1.0000 -0.172422845
C   C16       1.0  0.36250  0.03290  0.12850  1.0000 0.1105242308
C   C17       1.0  0.58610  0.01390  0.14450  1.0000 -0.1639158318
C   C18       1.0  0.66370  0.95870  0.19030  1.0000 -0.0975675659
C   C19       1.0  0.27640  0.09490  0.08500  1.0000 -0.2140570061
C   C20       1.0  0.61420  0.85890  0.27610  1.0000 0.5834128371
C   C21       1.0  0.59640  0.15710  0.21240  1.0000 -0.2999376247
C   C22       1.0  0.64930  0.18880  0.11220  1.0000 0.6604293099
C   C23       1.0  0.28620  0.12800  0.27900  1.0000 -0.2799818108
C   C24       1.0  0.24130  0.18340  0.34120  1.0000 0.6691411248
C   C25       1.0  0.52100  0.58200  0.71950  1.0000 -0.0143222647
C   C26       1.0  0.29410  0.56500  0.69790  1.0000 -0.0909960011
C   C27       1.0  0.21970  0.50830  0.65540  1.0000 -0.172422845
C   C28       1.0  0.36250  0.46710  0.62850  1.0000 0.1105242308
C   C29       1.0  0.58610  0.48610  0.64450  1.0000 -0.1639158318
C   C30       1.0  0.66370  0.54130  0.69030  1.0000 -0.0975675659
C   C31       1.0  0.27640  0.40510  0.58500  1.0000 -0.2140570061
C   C32       1.0  0.61420  0.64110  0.77610  1.0000 0.5834128371
C   C33       1.0  0.59640  0.34290  0.71240  1.0000 -0.2999376247
C   C34       1.0  0.64930  0.31120  0.61220  1.0000 0.6604293099
C   C35       1.0  0.28620  0.37200  0.77900  1.0000 -0.2799818108
C   C36       1.0  0.24130  0.31660  0.84120  1.0000 0.6691411248
C   C37       1.0  0.47900  0.08200  0.78050  1.0000 -0.0143222647
C   C38       1.0  0.70590  0.06500  0.80210  1.0000 -0.0909960011
C   C39       1.0  0.78030  0.00830  0.84460  1.0000 -0.172422845
C   C40       1.0  0.63750  0.96710  0.87150  1.0000 0.1105242308
C   C41       1.0  0.41390  0.98610  0.85550  1.0000 -0.1639158318
C   C42       1.0  0.33630  0.04130  0.80970  1.0000 -0.0975675659
C   C43       1.0  0.72360  0.90510  0.91500  1.0000 -0.2140570061
C   C44       1.0  0.38580  0.14110  0.72390  1.0000 0.5834128371
C   C45       1.0  0.40360  0.84290  0.78760  1.0000 -0.2999376247
C   C46       1.0  0.35070  0.81120  0.88780  1.0000 0.6604293099
C   C47       1.0  0.71380  0.87200  0.72100  1.0000 -0.2799818108
C   C48       1.0  0.75870  0.81660  0.65880  1.0000 0.6691411248
N   N1        1.0  0.65340  0.64390  0.32470  1.0000 -0.1108286718
N   N2        1.0  0.34660  0.14390  0.17530  1.0000 -0.1108286718
N   N3        1.0  0.34660  0.35610  0.67530  1.0000 -0.1108286718
N   N4        1.0  0.65340  0.85610  0.82470  1.0000 -0.1108286718
O   O1        1.0  0.51950  0.31826  0.21480  1.0000 -0.5995255896
O   O2        1.0  0.16850  0.35174  0.18230  1.0000 -0.6392661223
O   O3        1.0  0.50860  0.71926  0.45880  1.0000 -0.6228961835
O   O4        1.0  0.76820  0.73390  0.20620  1.0000 -0.6392661223
O   O5        1.0  0.78920  0.67459  0.06310  1.0000 -0.650492985
O   O6        1.0  0.15120  0.68426  0.38960  1.0000 -0.658741642
O   O7        1.0  0.48050  0.81826  0.28520  1.0000 -0.5995255896
O   O8        1.0  0.83150  0.85174  0.31770  1.0000 -0.6392661223
O   O9        1.0  0.49140  0.21926  0.04120  1.0000 -0.6228961835
O   O10       1.0  0.23180  0.23390  0.29380  1.0000 -0.6392661223
O   O11       1.0  0.21080  0.17459  0.43690  1.0000 -0.650492985
O   O12       1.0  0.84880  0.18426  0.11040  1.0000 -0.658741642
O   O13       1.0  0.48050  0.68174  0.78520  1.0000 -0.5995255896
O   O14       1.0  0.83150  0.64826  0.81770  1.0000 -0.6392661223
O   O15       1.0  0.49140  0.28074  0.54120  1.0000 -0.6228961835
O   O16       1.0  0.23180  0.26610  0.79380  1.0000 -0.6392661223
O   O17       1.0  0.21080  0.32541  0.93690  1.0000 -0.650492985
O   O18       1.0  0.84880  0.31574  0.61040  1.0000 -0.658741642
O   O19       1.0  0.51950  0.18174  0.71480  1.0000 -0.5995255896
O   O20       1.0  0.16850  0.14826  0.68230  1.0000 -0.6392661223
O   O21       1.0  0.50860  0.78074  0.95880  1.0000 -0.6228961835
O   O22       1.0  0.76820  0.76610  0.70620  1.0000 -0.6392661223
O   O23       1.0  0.78920  0.82541  0.56310  1.0000 -0.650492985
O   O24       1.0  0.15120  0.81574  0.88960  1.0000 -0.658741642
