# DDEC6 charges by PACMAN v1.1 (https://github.com/mtap-research/PACMAN-charge/)
data_2021[Yb][fcu]3[ASR]1
_chemical_formula_sum              "Yb6 C48 O56"
_cell_length_a       15.0091
_cell_length_b       15.0091
_cell_length_c       15.0091
_cell_angle_alpha    120.003
_cell_angle_beta     120.003
_cell_angle_gamma    89.9948

_symmetry_space_group_name_H-M    "P 1"
_symmetry_Int_Tables_number       1

loop_
  _symmetry_equiv_pos_as_xyz
  'x, y, z'

loop_
  _atom_site_type_symbol
  _atom_site_label
  _atom_site_symmetry_multiplicity
  _atom_site_fract_x
  _atom_site_fract_y
  _atom_site_fract_z
  _atom_site_occupancy
  _atom_site_charge
Yb  Yb1       1.0  0.12671  0.12671  0.00000  1.0000 2.238697496
Yb  Yb2       1.0  0.87329  0.87329  0.00000  1.0000 2.238697496
Yb  Yb3       1.0  0.87325  0.87329  0.74654  1.0000 2.2319740126
Yb  Yb4       1.0  0.12675  0.12671  0.25346  1.0000 2.2319740126
Yb  Yb5       1.0  0.87329  0.12675  0.00004  1.0000 2.238697496
Yb  Yb6       1.0  0.12671  0.87325  0.99996  1.0000 2.2319740126
C   C1        1.0  0.99970  0.99940  0.69210  1.0000 0.7389543374
C   C2        1.0  0.00000  0.00010  0.59250  1.0000 -0.1381140767
C   C3        1.0  0.91850  0.91870  0.46500  1.0000 0.2110792424
C   C4        1.0  0.91980  0.91880  0.37240  1.0000 0.2110792424
C   C5        1.0  0.30730  0.30760  0.30790  1.0000 0.7389543374
C   C6        1.0  0.40760  0.40750  0.40750  1.0000 -0.1381140767
C   C7        1.0  0.45370  0.45350  0.53500  1.0000 0.2110792424
C   C8        1.0  0.54640  0.54740  0.62760  1.0000 0.2110792424
C   C9        1.0  0.99940  0.30730  0.99970  1.0000 0.7389543374
C   C10       1.0  0.00010  0.40760  0.00010  1.0000 -0.1381140767
C   C11       1.0  0.91870  0.45370  0.00020  1.0000 0.2110792424
C   C12       1.0  0.91880  0.54640  0.99900  1.0000 0.2110792424
C   C13       1.0  0.30760  0.99970  0.00030  1.0000 0.7389543374
C   C14       1.0  0.40750  0.00000  0.99990  1.0000 -0.1381140767
C   C15       1.0  0.45350  0.91850  0.99980  1.0000 0.2110792424
C   C16       1.0  0.54740  0.91980  0.00100  1.0000 0.2110792424
C   C17       1.0  0.00030  0.00060  0.30790  1.0000 0.7389543374
C   C18       1.0  0.00000  0.99990  0.40750  1.0000 -0.1381140767
C   C19       1.0  0.08150  0.08130  0.53500  1.0000 0.2110792424
C   C20       1.0  0.08020  0.08120  0.62760  1.0000 0.2110792424
C   C21       1.0  0.69270  0.69240  0.69210  1.0000 0.7389543374
C   C22       1.0  0.59240  0.59250  0.59250  1.0000 -0.1381140767
C   C23       1.0  0.54630  0.54650  0.46500  1.0000 0.2110792424
C   C24       1.0  0.45360  0.45260  0.37240  1.0000 0.2110792424
C   C25       1.0  0.00060  0.69270  0.00030  1.0000 0.7389543374
C   C26       1.0  0.99990  0.59240  0.99990  1.0000 -0.1381140767
C   C27       1.0  0.08130  0.54630  0.99980  1.0000 0.2110792424
C   C28       1.0  0.08120  0.45360  0.00100  1.0000 0.2110792424
C   C29       1.0  0.69240  0.00030  0.99970  1.0000 0.7389543374
C   C30       1.0  0.59250  0.00000  0.00010  1.0000 -0.1381140767
C   C31       1.0  0.54650  0.08150  0.00020  1.0000 0.2110792424
C   C32       1.0  0.45260  0.08020  0.99900  1.0000 0.2110792424
C   C33       1.0  0.00030  0.69250  0.69280  1.0000 0.7389543374
C   C34       1.0  0.99970  0.59240  0.59210  1.0000 -0.1381140767
C   C35       1.0  0.91930  0.54660  0.46590  1.0000 0.2110792424
C   C36       1.0  0.91890  0.45320  0.37210  1.0000 0.2110792424
C   C37       1.0  0.99970  0.30750  0.30720  1.0000 0.7389543374
C   C38       1.0  0.00030  0.40760  0.40790  1.0000 -0.1381140767
C   C39       1.0  0.08070  0.45340  0.53410  1.0000 0.2110792424
C   C40       1.0  0.08110  0.54680  0.62790  1.0000 0.2110792424
C   C41       1.0  0.69250  0.99970  0.69220  1.0000 0.7389543374
C   C42       1.0  0.59240  0.00030  0.59270  1.0000 -0.1381140767
C   C43       1.0  0.54660  0.08070  0.62730  1.0000 0.2110792424
C   C44       1.0  0.45320  0.08110  0.53430  1.0000 0.2110792424
C   C45       1.0  0.30750  0.00030  0.30780  1.0000 0.7389543374
C   C46       1.0  0.40760  0.99970  0.40730  1.0000 -0.1381140767
C   C47       1.0  0.45340  0.91930  0.37270  1.0000 0.2110792424
C   C48       1.0  0.54680  0.91890  0.46570  1.0000 0.2110792424
O   O1        1.0  0.17566  0.05858  0.11692  1.0000 -0.938129746
O   O2        1.0  0.07680  0.07690  0.80670  1.0000 -0.5680802594
O   O3        1.0  0.92310  0.92300  0.65290  1.0000 -0.5680802594
O   O4        1.0  0.83710  0.83330  0.42040  1.0000 -0.1969412986
O   O5        1.0  0.83560  0.83700  0.25120  1.0000 -0.1914131125
O   O6        1.0  0.94166  0.05874  0.88308  1.0000 -0.9325716725
O   O7        1.0  0.27020  0.27010  0.19330  1.0000 -0.5680802594
O   O8        1.0  0.27010  0.27020  0.34710  1.0000 -0.5680802594
O   O9        1.0  0.41290  0.41670  0.57960  1.0000 -0.1969412986
O   O10       1.0  0.58580  0.58440  0.74880  1.0000 -0.1914131125
O   O11       1.0  0.05858  0.94166  0.88292  1.0000 -0.938129746
O   O12       1.0  0.07690  0.27020  0.00010  1.0000 -0.5680802594
O   O13       1.0  0.92300  0.27010  0.99990  1.0000 -0.5680802594
O   O14       1.0  0.83330  0.41290  0.99620  1.0000 -0.1969412986
O   O15       1.0  0.83700  0.58580  0.00140  1.0000 -0.1914131125
O   O16       1.0  0.05874  0.17566  0.11708  1.0000 -0.9325716725
O   O17       1.0  0.27010  0.07680  0.99990  1.0000 -0.5680802594
O   O18       1.0  0.27020  0.92310  0.00010  1.0000 -0.5620350901
O   O19       1.0  0.41670  0.83710  0.00380  1.0000 -0.1969412986
O   O20       1.0  0.58440  0.83560  0.99860  1.0000 -0.1914131125
O   O21       1.0  0.82434  0.94142  0.88308  1.0000 -0.938129746
O   O22       1.0  0.92320  0.92310  0.19330  1.0000 -0.5680802594
O   O23       1.0  0.07690  0.07700  0.34710  1.0000 -0.5680802594
O   O24       1.0  0.16290  0.16670  0.57960  1.0000 -0.1969412986
O   O25       1.0  0.16440  0.16300  0.74880  1.0000 -0.1914131125
O   O26       1.0  0.05834  0.94126  0.11692  1.0000 -0.9325716725
O   O27       1.0  0.72980  0.72990  0.80670  1.0000 -0.5680802594
O   O28       1.0  0.72990  0.72980  0.65290  1.0000 -0.5680802594
O   O29       1.0  0.58710  0.58330  0.42040  1.0000 -0.1969412986
O   O30       1.0  0.41420  0.41560  0.25120  1.0000 -0.1914131125
O   O31       1.0  0.94142  0.05834  0.11708  1.0000 -0.938129746
O   O32       1.0  0.92310  0.72980  0.99990  1.0000 -0.5680802594
O   O33       1.0  0.07700  0.72990  0.00010  1.0000 -0.5680802594
O   O34       1.0  0.16670  0.58710  0.00380  1.0000 -0.1914131125
O   O35       1.0  0.16300  0.41420  0.99860  1.0000 -0.1914131125
O   O36       1.0  0.94126  0.82434  0.88292  1.0000 -0.9325716725
O   O37       1.0  0.72990  0.92320  0.00010  1.0000 -0.5680802594
O   O38       1.0  0.72980  0.07690  0.99990  1.0000 -0.5680802594
O   O39       1.0  0.58330  0.16290  0.99620  1.0000 -0.1914131125
O   O40       1.0  0.41560  0.16440  0.00140  1.0000 -0.1914131125
O   O41       1.0  0.07640  0.72970  0.80610  1.0000 -0.5620350901
O   O42       1.0  0.92350  0.72990  0.65340  1.0000 -0.5620350901
O   O43       1.0  0.83550  0.58420  0.41970  1.0000 -0.1914131125
O   O44       1.0  0.83510  0.41450  0.24960  1.0000 -0.1914131125
O   O45       1.0  0.92360  0.27030  0.19390  1.0000 -0.5620350901
O   O46       1.0  0.07650  0.27010  0.34660  1.0000 -0.5620350901
O   O47       1.0  0.16450  0.41580  0.58030  1.0000 -0.1914131125
O   O48       1.0  0.16490  0.58550  0.75040  1.0000 -0.1914131125
O   O49       1.0  0.72970  0.92360  0.65330  1.0000 -0.5620350901
O   O50       1.0  0.72990  0.07650  0.80640  1.0000 -0.5620350901
O   O51       1.0  0.58420  0.16450  0.74870  1.0000 -0.1844752064
O   O52       1.0  0.41450  0.16490  0.57940  1.0000 -0.1914131125
O   O53       1.0  0.27030  0.07640  0.34670  1.0000 -0.5620350901
O   O54       1.0  0.27010  0.92350  0.19360  1.0000 -0.5620350901
O   O55       1.0  0.41580  0.83550  0.25130  1.0000 -0.1914131125
O   O56       1.0  0.58550  0.83510  0.42060  1.0000 -0.1969412986
