# DDEC6 charges by PACMAN v1.1 (https://github.com/mtap-research/PACMAN-charge/)
data_2021[Al][nan]3[ASR]14
_chemical_formula_sum              "Al8 H24 C40 N16 O40"
_cell_length_a       11.5616
_cell_length_b       16.7259
_cell_length_c       12.1684
_cell_angle_alpha    90
_cell_angle_beta     105.091
_cell_angle_gamma    90

_symmetry_space_group_name_H-M    "P 1"
_symmetry_Int_Tables_number       1

loop_
  _symmetry_equiv_pos_as_xyz
  'x, y, z'

loop_
  _atom_site_type_symbol
  _atom_site_label
  _atom_site_symmetry_multiplicity
  _atom_site_fract_x
  _atom_site_fract_y
  _atom_site_fract_z
  _atom_site_occupancy
  _atom_site_charge
Al  Al1       1.0  0.40469  0.45367  0.22568  1.0000 1.6237708408
Al  Al2       1.0  0.09531  0.95367  0.77432  1.0000 1.6237708408
Al  Al3       1.0  0.59531  0.54633  0.77432  1.0000 1.6237708408
Al  Al4       1.0  0.90469  0.04633  0.22568  1.0000 1.6237708408
Al  Al5       1.0  0.50000  0.50000  0.00000  1.0000 1.6334683078
Al  Al6       1.0  0.00000  0.00000  0.00000  1.0000 1.6334683078
Al  Al7       1.0  0.00000  0.00000  0.50000  1.0000 1.6334683078
Al  Al8       1.0  0.50000  0.50000  0.50000  1.0000 1.6334683078
H   H1        1.0  0.09673  0.01237  0.19872  1.0000 0.4293876554
H   H2        1.0  0.17667  0.64808  0.19082  1.0000 0.2786927748
H   H3        1.0  0.26592  0.72174  0.91958  1.0000 0.1714113395
H   H4        1.0  0.97192  0.92510  0.32718  1.0000 0.4293876554
H   H5        1.0  0.11481  0.28129  0.27591  1.0000 0.1714113395
H   H6        1.0  0.33406  0.30935  0.57800  1.0000 0.2879958826
H   H7        1.0  0.40327  0.51237  0.80128  1.0000 0.4293876554
H   H8        1.0  0.32333  0.14808  0.80918  1.0000 0.2786927748
H   H9        1.0  0.23408  0.22174  0.08042  1.0000 0.1714113395
H   H10       1.0  0.52808  0.42510  0.67282  1.0000 0.4293876554
H   H11       1.0  0.38519  0.78129  0.72409  1.0000 0.1714113395
H   H12       1.0  0.16594  0.80935  0.42200  1.0000 0.2879958826
H   H13       1.0  0.90327  0.98763  0.80128  1.0000 0.4293876554
H   H14       1.0  0.82333  0.35192  0.80918  1.0000 0.2786927748
H   H15       1.0  0.73408  0.27826  0.08042  1.0000 0.1714113395
H   H16       1.0  0.02808  0.07490  0.67282  1.0000 0.4293876554
H   H17       1.0  0.88519  0.71871  0.72409  1.0000 0.1714113395
H   H18       1.0  0.66594  0.69065  0.42200  1.0000 0.2879958826
H   H19       1.0  0.59673  0.48763  0.19872  1.0000 0.4293876554
H   H20       1.0  0.67667  0.85192  0.19082  1.0000 0.2786927748
H   H21       1.0  0.76592  0.77826  0.91958  1.0000 0.1714113395
H   H22       1.0  0.47192  0.57490  0.32718  1.0000 0.4293876554
H   H23       1.0  0.61481  0.21871  0.27591  1.0000 0.1714113395
H   H24       1.0  0.83406  0.19065  0.57800  1.0000 0.2879958826
C   C1        1.0  0.30400  0.57840  0.06570  1.0000 0.6091987121
C   C2        1.0  0.24080  0.65590  0.05670  1.0000 0.0206942864
C   C3        1.0  0.86170  0.14130  0.01990  1.0000 0.6247248727
C   C4        1.0  0.23530  0.71900  0.98300  1.0000 -0.2365332913
C   C5        1.0  0.82690  0.22180  0.97460  1.0000 0.0206942864
C   C6        1.0  0.07860  0.13700  0.40020  1.0000 0.6091987121
C   C7        1.0  0.15130  0.20970  0.42250  1.0000 0.014566094
C   C8        1.0  0.15730  0.27360  0.35130  1.0000 -0.2325598781
C   C9        1.0  0.24170  0.32300  0.41970  1.0000 0.0271583347
C   C10       1.0  0.29870  0.39700  0.39560  1.0000 0.6091987121
C   C11       1.0  0.19600  0.07840  0.93430  1.0000 0.6091987121
C   C12       1.0  0.25920  0.15590  0.94330  1.0000 0.0206942864
C   C13       1.0  0.63830  0.64130  0.98010  1.0000 0.6247248727
C   C14       1.0  0.26470  0.21900  0.01700  1.0000 -0.2365332913
C   C15       1.0  0.67310  0.72180  0.02540  1.0000 0.0206942864
C   C16       1.0  0.42140  0.63700  0.59980  1.0000 0.6091987121
C   C17       1.0  0.34870  0.70970  0.57750  1.0000 0.014566094
C   C18       1.0  0.34270  0.77360  0.64870  1.0000 -0.2325598781
C   C19       1.0  0.25830  0.82300  0.58030  1.0000 0.0271583347
C   C20       1.0  0.20130  0.89700  0.60440  1.0000 0.6091987121
C   C21       1.0  0.69600  0.42160  0.93430  1.0000 0.6091987121
C   C22       1.0  0.75920  0.34410  0.94330  1.0000 0.0206942864
C   C23       1.0  0.13830  0.85870  0.98010  1.0000 0.6247248727
C   C24       1.0  0.76470  0.28100  0.01700  1.0000 -0.2365332913
C   C25       1.0  0.17310  0.77820  0.02540  1.0000 0.0206942864
C   C26       1.0  0.92140  0.86300  0.59980  1.0000 0.6091987121
C   C27       1.0  0.84870  0.79030  0.57750  1.0000 0.014566094
C   C28       1.0  0.84270  0.72640  0.64870  1.0000 -0.2325598781
C   C29       1.0  0.75830  0.67700  0.58030  1.0000 0.0271583347
C   C30       1.0  0.70130  0.60300  0.60440  1.0000 0.6091987121
C   C31       1.0  0.80400  0.92160  0.06570  1.0000 0.6091987121
C   C32       1.0  0.74080  0.84410  0.05670  1.0000 0.0206942864
C   C33       1.0  0.36170  0.35870  0.01990  1.0000 0.6247248727
C   C34       1.0  0.73530  0.78100  0.98300  1.0000 -0.2365332913
C   C35       1.0  0.32690  0.27820  0.97460  1.0000 0.0206942864
C   C36       1.0  0.57860  0.36300  0.40020  1.0000 0.6091987121
C   C37       1.0  0.65130  0.29030  0.42250  1.0000 0.014566094
C   C38       1.0  0.65730  0.22640  0.35130  1.0000 -0.2325598781
C   C39       1.0  0.74170  0.17700  0.41970  1.0000 0.0271583347
C   C40       1.0  0.79870  0.10300  0.39560  1.0000 0.6091987121
N   N1        1.0  0.18420  0.67810  0.13580  1.0000 -0.0604587089
N   N2        1.0  0.14160  0.75220  0.11810  1.0000 -0.2054516844
N   N3        1.0  0.22930  0.21860  0.52510  1.0000 -0.1873025556
N   N4        1.0  0.28150  0.28870  0.52190  1.0000 -0.0604587089
N   N5        1.0  0.31580  0.17810  0.86420  1.0000 -0.0604587089
N   N6        1.0  0.35840  0.25220  0.88190  1.0000 -0.2041781765
N   N7        1.0  0.27070  0.71860  0.47490  1.0000 -0.1873025556
N   N8        1.0  0.21850  0.78870  0.47810  1.0000 -0.0652875283
N   N9        1.0  0.81580  0.32190  0.86420  1.0000 -0.0604587089
N   N10       1.0  0.85840  0.24780  0.88190  1.0000 -0.2054516844
N   N11       1.0  0.77070  0.78140  0.47490  1.0000 -0.1873025556
N   N12       1.0  0.71850  0.71130  0.47810  1.0000 -0.0604587089
N   N13       1.0  0.68420  0.82190  0.13580  1.0000 -0.0604587089
N   N14       1.0  0.64160  0.74780  0.11810  1.0000 -0.2054516844
N   N15       1.0  0.72930  0.28140  0.52510  1.0000 -0.1873025556
N   N16       1.0  0.78150  0.21130  0.52190  1.0000 -0.0652875283
O   O1        1.0  0.35960  0.56348  0.99300  1.0000 -0.5437699777
O   O2        1.0  0.90920  0.09599  0.96230  1.0000 -0.5708525551
O   O3        1.0  0.01920  0.01816  0.15260  1.0000 -1.0149924976
O   O4        1.0  0.29800  0.53411  0.14870  1.0000 -0.5895910484
O   O5        1.0  0.22020  0.91841  0.70710  1.0000 -0.5475827229
O   O6        1.0  0.13250  0.92886  0.52050  1.0000 -0.5708525551
O   O7        1.0  0.84040  0.12439  0.11390  1.0000 -0.5765408498
O   O8        1.0  0.96140  0.97792  0.34640  1.0000 -1.0184719187
O   O9        1.0  0.00280  0.13213  0.30500  1.0000 -0.5708525551
O   O10       1.0  0.09670  0.08710  0.48000  1.0000 -0.5708525551
O   O11       1.0  0.14040  0.06348  0.00700  1.0000 -0.5437699777
O   O12       1.0  0.59080  0.59599  0.03770  1.0000 -0.5708525551
O   O13       1.0  0.48080  0.51816  0.84740  1.0000 -1.0149924976
O   O14       1.0  0.20200  0.03411  0.85130  1.0000 -0.5895910484
O   O15       1.0  0.27980  0.41841  0.29290  1.0000 -0.5475827229
O   O16       1.0  0.36750  0.42886  0.47950  1.0000 -0.5708525551
O   O17       1.0  0.65960  0.62439  0.88610  1.0000 -0.5765408498
O   O18       1.0  0.53860  0.47792  0.65360  1.0000 -1.0184719187
O   O19       1.0  0.49720  0.63213  0.69500  1.0000 -0.5708525551
O   O20       1.0  0.40330  0.58710  0.52000  1.0000 -0.5708525551
O   O21       1.0  0.64040  0.43652  0.00700  1.0000 -0.5437699777
O   O22       1.0  0.09080  0.90401  0.03770  1.0000 -0.5708525551
O   O23       1.0  0.98080  0.98184  0.84740  1.0000 -1.0184719187
O   O24       1.0  0.70200  0.46589  0.85130  1.0000 -0.5895910484
O   O25       1.0  0.77980  0.08159  0.29290  1.0000 -0.5475827229
O   O26       1.0  0.86750  0.07114  0.47950  1.0000 -0.5708525551
O   O27       1.0  0.15960  0.87561  0.88610  1.0000 -0.5765408498
O   O28       1.0  0.03860  0.02208  0.65360  1.0000 -1.0184719187
O   O29       1.0  0.99720  0.86787  0.69500  1.0000 -0.5708525551
O   O30       1.0  0.90330  0.91290  0.52000  1.0000 -0.5708525551
O   O31       1.0  0.85960  0.93652  0.99300  1.0000 -0.5437699777
O   O32       1.0  0.40920  0.40401  0.96230  1.0000 -0.5708525551
O   O33       1.0  0.51920  0.48184  0.15260  1.0000 -1.0184719187
O   O34       1.0  0.79800  0.96589  0.14870  1.0000 -0.5895910484
O   O35       1.0  0.72020  0.58159  0.70710  1.0000 -0.5475827229
O   O36       1.0  0.63250  0.57114  0.52050  1.0000 -0.5708525551
O   O37       1.0  0.34040  0.37561  0.11390  1.0000 -0.5765408498
O   O38       1.0  0.46140  0.52208  0.34640  1.0000 -1.0184719187
O   O39       1.0  0.50280  0.36787  0.30500  1.0000 -0.5708525551
O   O40       1.0  0.59670  0.41290  0.48000  1.0000 -0.5708525551
