# DDEC6 charges by PACMAN v1.1 (https://github.com/mtap-research/PACMAN-charge/)
data_2021[LaFe][nan]3[ASR]1
_chemical_formula_sum              "La2 Fe2 H52 C96 N8 O16"
_cell_length_a       16.9329
_cell_length_b       16.9329
_cell_length_c       9.3343
_cell_angle_alpha    83.6029
_cell_angle_beta     96.3971
_cell_angle_gamma    75.9878

_symmetry_space_group_name_H-M    "P 1"
_symmetry_Int_Tables_number       1

loop_
  _symmetry_equiv_pos_as_xyz
  'x, y, z'

loop_
  _atom_site_type_symbol
  _atom_site_label
  _atom_site_symmetry_multiplicity
  _atom_site_fract_x
  _atom_site_fract_y
  _atom_site_fract_z
  _atom_site_occupancy
  _atom_site_charge
La  La1       1.0  0.50431  0.50431  0.25000  1.0000 1.8625827963
La  La2       1.0  0.49569  0.49569  0.75000  1.0000 1.8625827963
Fe  Fe1       1.0  0.94873  0.94873  0.75000  1.0000 0.6552840406
Fe  Fe2       1.0  0.05127  0.05127  0.25000  1.0000 0.6510064537
H   H1        1.0  0.18087  0.03711  0.53765  1.0000 0.1180468925
H   H2        1.0  0.12708  0.79846  0.31684  1.0000 0.1118368854
H   H3        1.0  0.90464  0.66896  0.68352  1.0000 0.1265558634
H   H4        1.0  0.23316  0.70226  0.25093  1.0000 0.1180468925
H   H5        1.0  0.29097  0.58589  0.66033  1.0000 0.1118368854
H   H6        1.0  0.18192  0.67922  0.72705  1.0000 0.1180468925
H   H7        1.0  0.03955  0.66337  0.60612  1.0000 0.1265558634
H   H8        1.0  0.18638  0.90304  0.45601  1.0000 0.1265558634
H   H9        1.0  0.72339  0.79075  0.53762  1.0000 0.1118368854
H   H10       1.0  0.04560  0.24076  0.69265  1.0000 0.1180468925
H   H11       1.0  0.13234  0.32694  0.69210  1.0000 0.1180468925
H   H12       1.0  0.63715  0.70495  0.53419  1.0000 0.1030126447
H   H13       1.0  0.29811  0.39345  0.78114  1.0000 0.3217847878
H   H14       1.0  0.03711  0.18087  0.96235  1.0000 0.1180468925
H   H15       1.0  0.79846  0.12708  0.18316  1.0000 0.1118368854
H   H16       1.0  0.66896  0.90464  0.81648  1.0000 0.1265558634
H   H17       1.0  0.70226  0.23316  0.24907  1.0000 0.1180468925
H   H18       1.0  0.58589  0.29097  0.83967  1.0000 0.1118368854
H   H19       1.0  0.67922  0.18192  0.77295  1.0000 0.1180468925
H   H20       1.0  0.66337  0.03955  0.89388  1.0000 0.1265558634
H   H21       1.0  0.90305  0.18638  0.04399  1.0000 0.1265558634
H   H22       1.0  0.79075  0.72339  0.96238  1.0000 0.1118368854
H   H23       1.0  0.24076  0.04560  0.80735  1.0000 0.1180468925
H   H24       1.0  0.32694  0.13234  0.80790  1.0000 0.1180468925
H   H25       1.0  0.70495  0.63715  0.96581  1.0000 0.1030126447
H   H26       1.0  0.39345  0.29811  0.71886  1.0000 0.3217847878
H   H27       1.0  0.81913  0.96289  0.46235  1.0000 0.1180468925
H   H28       1.0  0.87292  0.20154  0.68316  1.0000 0.1118368854
H   H29       1.0  0.09536  0.33104  0.31648  1.0000 0.1265558634
H   H30       1.0  0.76684  0.29774  0.74907  1.0000 0.1118368854
H   H31       1.0  0.70903  0.41411  0.33967  1.0000 0.1118368854
H   H32       1.0  0.81808  0.32078  0.27295  1.0000 0.1180468925
H   H33       1.0  0.96045  0.33663  0.39388  1.0000 0.1265558634
H   H34       1.0  0.81361  0.09695  0.54399  1.0000 0.1265558634
H   H35       1.0  0.27661  0.20925  0.46238  1.0000 0.1118368854
H   H36       1.0  0.95440  0.75924  0.30735  1.0000 0.1180468925
H   H37       1.0  0.86766  0.67306  0.30790  1.0000 0.1180468925
H   H38       1.0  0.36285  0.29505  0.46581  1.0000 0.1030126447
H   H39       1.0  0.70189  0.60655  0.21886  1.0000 0.3217847878
H   H40       1.0  0.96289  0.81913  0.03765  1.0000 0.1180468925
H   H41       1.0  0.20154  0.87292  0.81684  1.0000 0.1118368854
H   H42       1.0  0.33104  0.09536  0.18352  1.0000 0.1265558634
H   H43       1.0  0.29774  0.76684  0.75093  1.0000 0.1180468925
H   H44       1.0  0.41411  0.70903  0.16033  1.0000 0.1118368854
H   H45       1.0  0.32078  0.81808  0.22705  1.0000 0.1180468925
H   H46       1.0  0.33663  0.96045  0.10612  1.0000 0.1265558634
H   H47       1.0  0.09696  0.81361  0.95601  1.0000 0.1265558634
H   H48       1.0  0.20925  0.27661  0.03762  1.0000 0.1118368854
H   H49       1.0  0.75924  0.95440  0.19265  1.0000 0.1180468925
H   H50       1.0  0.67306  0.86766  0.19210  1.0000 0.1180468925
H   H51       1.0  0.29505  0.36285  0.03419  1.0000 0.1030126447
H   H52       1.0  0.60655  0.70189  0.28114  1.0000 0.3217847878
C   C1        1.0  0.08240  0.81500  0.58450  1.0000 -0.0805299673
C   C2        1.0  0.27640  0.63720  0.45080  1.0000 -0.0368181827
C   C3        1.0  0.14590  0.75190  0.53100  1.0000 0.0925786728
C   C4        1.0  0.35298  0.58498  0.40930  1.0000 0.6079288656
C   C5        1.0  0.14928  0.00148  0.56440  1.0000 -0.1934596812
C   C6        1.0  0.09144  0.89504  0.58530  1.0000 0.1690146386
C   C7        1.0  0.89913  0.79273  0.71110  1.0000 0.1631356562
C   C8        1.0  0.08874  0.01494  0.66160  1.0000 0.1690146386
C   C9        1.0  0.16038  0.75678  0.38670  1.0000 -0.1507360119
C   C10       1.0  0.93040  0.71160  0.67700  1.0000 -0.1844451791
C   C11       1.0  0.22453  0.69933  0.34780  1.0000 -0.0999747536
C   C12       1.0  0.25899  0.62919  0.59190  1.0000 -0.0999747536
C   C13       1.0  0.19379  0.68559  0.63220  1.0000 -0.1507360119
C   C14       1.0  0.01815  0.78975  0.63910  1.0000 0.1690146386
C   C15       1.0  0.00433  0.70853  0.63380  1.0000 -0.1960997498
C   C16       1.0  0.15203  0.92783  0.51840  1.0000 -0.1934596812
C   C17       1.0  0.72040  0.75900  0.62380  1.0000 -0.1507360119
C   C18       1.0  0.10200  0.21840  0.71570  1.0000 -0.1385052567
C   C19       1.0  0.15440  0.27040  0.71560  1.0000 -0.1145723825
C   C20       1.0  0.66800  0.70820  0.62120  1.0000 -0.0999747536
C   C21       1.0  0.81500  0.08240  0.91550  1.0000 -0.0805299673
C   C22       1.0  0.63720  0.27640  0.04920  1.0000 -0.0368181827
C   C23       1.0  0.75190  0.14590  0.96900  1.0000 0.0925786728
C   C24       1.0  0.58498  0.35298  0.09070  1.0000 0.6079288656
C   C25       1.0  0.00148  0.14928  0.93560  1.0000 -0.1934596812
C   C26       1.0  0.89504  0.09144  0.91470  1.0000 0.1690146386
C   C27       1.0  0.79273  0.89913  0.78890  1.0000 0.1631356562
C   C28       1.0  0.01494  0.08874  0.83840  1.0000 0.1690146386
C   C29       1.0  0.75678  0.16038  0.11330  1.0000 -0.1507360119
C   C30       1.0  0.71160  0.93040  0.82300  1.0000 -0.1844451791
C   C31       1.0  0.69933  0.22453  0.15220  1.0000 -0.0999747536
C   C32       1.0  0.62919  0.25899  0.90810  1.0000 -0.0999747536
C   C33       1.0  0.68559  0.19379  0.86780  1.0000 -0.1507360119
C   C34       1.0  0.78975  0.01815  0.86090  1.0000 0.1690146386
C   C35       1.0  0.70853  0.00433  0.86620  1.0000 -0.1960997498
C   C36       1.0  0.92783  0.15203  0.98160  1.0000 -0.1934596812
C   C37       1.0  0.75900  0.72040  0.87620  1.0000 -0.1507360119
C   C38       1.0  0.21840  0.10200  0.78430  1.0000 -0.1385052567
C   C39       1.0  0.27040  0.15440  0.78440  1.0000 -0.1145723825
C   C40       1.0  0.70820  0.66800  0.87880  1.0000 -0.0999747536
C   C41       1.0  0.91760  0.18500  0.41550  1.0000 -0.0805299673
C   C42       1.0  0.72360  0.36280  0.54920  1.0000 -0.0368181827
C   C43       1.0  0.85410  0.24810  0.46900  1.0000 0.0925786728
C   C44       1.0  0.64702  0.41502  0.59070  1.0000 0.6079288656
C   C45       1.0  0.85072  0.99852  0.43560  1.0000 -0.1934596812
C   C46       1.0  0.90856  0.10496  0.41470  1.0000 0.1690146386
C   C47       1.0  0.10087  0.20727  0.28890  1.0000 0.1631356562
C   C48       1.0  0.91126  0.98506  0.33840  1.0000 0.1690146386
C   C49       1.0  0.83962  0.24322  0.61330  1.0000 -0.1507360119
C   C50       1.0  0.06960  0.28840  0.32300  1.0000 -0.1844451791
C   C51       1.0  0.77547  0.30067  0.65220  1.0000 -0.0999747536
C   C52       1.0  0.74101  0.37081  0.40810  1.0000 -0.0999747536
C   C53       1.0  0.80621  0.31441  0.36780  1.0000 -0.1507360119
C   C54       1.0  0.98185  0.21025  0.36090  1.0000 0.1690146386
C   C55       1.0  0.99567  0.29147  0.36620  1.0000 -0.1960997498
C   C56       1.0  0.84797  0.07217  0.48160  1.0000 -0.1934596812
C   C57       1.0  0.27960  0.24100  0.37620  1.0000 -0.1507360119
C   C58       1.0  0.89800  0.78160  0.28430  1.0000 -0.1385052567
C   C59       1.0  0.84560  0.72960  0.28440  1.0000 -0.1151281288
C   C60       1.0  0.33200  0.29180  0.37880  1.0000 -0.0999747536
C   C61       1.0  0.18500  0.91760  0.08450  1.0000 -0.0805299673
C   C62       1.0  0.36280  0.72360  0.95080  1.0000 -0.0368181827
C   C63       1.0  0.24810  0.85410  0.03100  1.0000 0.0925786728
C   C64       1.0  0.41502  0.64702  0.90930  1.0000 0.6079288656
C   C65       1.0  0.99852  0.85072  0.06440  1.0000 -0.1934596812
C   C66       1.0  0.10496  0.90856  0.08530  1.0000 0.1690146386
C   C67       1.0  0.20727  0.10087  0.21110  1.0000 0.1631356562
C   C68       1.0  0.98506  0.91126  0.16160  1.0000 0.1690146386
C   C69       1.0  0.24322  0.83962  0.88670  1.0000 -0.1507360119
C   C70       1.0  0.28840  0.06960  0.17700  1.0000 -0.1844451791
C   C71       1.0  0.30067  0.77547  0.84780  1.0000 -0.0999747536
C   C72       1.0  0.37081  0.74101  0.09190  1.0000 -0.0999747536
C   C73       1.0  0.31441  0.80621  0.13220  1.0000 -0.1507360119
C   C74       1.0  0.21025  0.98185  0.13910  1.0000 0.1690146386
C   C75       1.0  0.29147  0.99567  0.13380  1.0000 -0.1960997498
C   C76       1.0  0.07217  0.84797  0.01840  1.0000 -0.1934596812
C   C77       1.0  0.24100  0.27960  0.12380  1.0000 -0.1507360119
C   C78       1.0  0.78160  0.89800  0.21570  1.0000 -0.1385052567
C   C79       1.0  0.72960  0.84560  0.21560  1.0000 -0.1145723825
C   C80       1.0  0.29180  0.33200  0.12120  1.0000 -0.0999747536
C   C81       1.0  0.13300  0.13300  0.75000  1.0000 0.1030126447
C   C82       1.0  0.82150  0.82150  0.75000  1.0000 -0.0805299673
C   C83       1.0  0.76600  0.76600  0.75000  1.0000 0.0925786728
C   C84       1.0  0.07620  0.07620  0.75000  1.0000 -0.0805299673
C   C85       1.0  0.23900  0.23900  0.75000  1.0000 -0.0558418939
C   C86       1.0  0.29600  0.29600  0.75000  1.0000 0.4535593773
C   C87       1.0  0.66180  0.66180  0.75000  1.0000 -0.0368181827
C   C88       1.0  0.60640  0.60640  0.75000  1.0000 0.5728096897
C   C89       1.0  0.86700  0.86700  0.25000  1.0000 0.1030126447
C   C90       1.0  0.17850  0.17850  0.25000  1.0000 -0.0805299673
C   C91       1.0  0.23400  0.23400  0.25000  1.0000 0.0925786728
C   C92       1.0  0.92380  0.92380  0.25000  1.0000 -0.0805299673
C   C93       1.0  0.76100  0.76100  0.25000  1.0000 -0.0558418939
C   C94       1.0  0.70400  0.70400  0.25000  1.0000 0.4535593773
C   C95       1.0  0.33820  0.33820  0.25000  1.0000 -0.0368181827
C   C96       1.0  0.39360  0.39360  0.25000  1.0000 0.5728096897
N   N1        1.0  0.05058  0.95138  0.66667  1.0000 -0.3535160785
N   N2        1.0  0.95423  0.83887  0.69090  1.0000 -0.3566245651
N   N3        1.0  0.95138  0.05058  0.83333  1.0000 -0.3535160785
N   N4        1.0  0.83887  0.95423  0.80910  1.0000 -0.3566245651
N   N5        1.0  0.94942  0.04862  0.33333  1.0000 -0.3535160785
N   N6        1.0  0.04577  0.16113  0.30910  1.0000 -0.3566245651
N   N7        1.0  0.04862  0.94942  0.16667  1.0000 -0.3535160785
N   N8        1.0  0.16113  0.04577  0.19090  1.0000 -0.3566245651
O   O1        1.0  0.35991  0.58267  0.27870  1.0000 -0.5697919195
O   O2        1.0  0.26426  0.37186  0.74320  1.0000 -0.3977896636
O   O3        1.0  0.41098  0.54600  0.51160  1.0000 -0.6815979397
O   O4        1.0  0.60180  0.56248  0.86750  1.0000 -0.5953644181
O   O5        1.0  0.58267  0.35991  0.22130  1.0000 -0.5697919195
O   O6        1.0  0.37186  0.26426  0.75680  1.0000 -0.3934859997
O   O7        1.0  0.54600  0.41098  0.98840  1.0000 -0.6815979397
O   O8        1.0  0.56248  0.60180  0.63250  1.0000 -0.5953644181
O   O9        1.0  0.64009  0.41733  0.72130  1.0000 -0.5697919195
O   O10       1.0  0.73574  0.62814  0.25680  1.0000 -0.3934859997
O   O11       1.0  0.58902  0.45400  0.48840  1.0000 -0.6815979397
O   O12       1.0  0.39820  0.43752  0.13250  1.0000 -0.594207651
O   O13       1.0  0.41733  0.64009  0.77870  1.0000 -0.5697919195
O   O14       1.0  0.62814  0.73574  0.24320  1.0000 -0.3934859997
O   O15       1.0  0.45400  0.58902  0.01160  1.0000 -0.6815979397
O   O16       1.0  0.43752  0.39820  0.36750  1.0000 -0.5953644181
