# DDEC6 charges by PACMAN v1.1 (https://github.com/mtap-research/PACMAN-charge/)
data_2021[Zr][flu]3[ASR]1
_chemical_formula_sum              "Zr6 H44 C80 O24 F8"
_cell_length_a       23.6027
_cell_length_b       20.2507
_cell_length_c       18.7108
_cell_angle_alpha    74.4544
_cell_angle_beta     55.7507
_cell_angle_gamma    49.7949

_symmetry_space_group_name_H-M    "P 1"
_symmetry_Int_Tables_number       1

loop_
  _symmetry_equiv_pos_as_xyz
  'x, y, z'

loop_
  _atom_site_type_symbol
  _atom_site_label
  _atom_site_symmetry_multiplicity
  _atom_site_fract_x
  _atom_site_fract_y
  _atom_site_fract_z
  _atom_site_occupancy
  _atom_site_charge
Zr  Zr1       1.0  0.43031  0.43031  0.56969  1.0000 2.2436178369
Zr  Zr2       1.0  0.56969  0.56969  0.43031  1.0000 2.2436178369
Zr  Zr3       1.0  0.35638  0.64362  0.53158  1.0000 2.2436178369
Zr  Zr4       1.0  0.53158  0.46842  0.35638  1.0000 2.2436178369
Zr  Zr5       1.0  0.64362  0.35638  0.46842  1.0000 2.2436178369
Zr  Zr6       1.0  0.46842  0.53158  0.64362  1.0000 2.2436178369
H   H1        1.0  0.50417  0.16805  0.59613  1.0000 0.109017724
H   H2        1.0  0.53680  0.03324  0.63650  1.0000 0.10011435
H   H3        1.0  0.75962  0.95186  0.59524  1.0000 0.1157904359
H   H4        1.0  0.73438  0.87174  0.70270  1.0000 0.10011435
H   H5        1.0  0.59613  0.73165  0.50417  1.0000 0.109017724
H   H6        1.0  0.63650  0.79346  0.53680  1.0000 0.10011435
H   H7        1.0  0.59524  0.69328  0.75962  1.0000 0.1157904359
H   H8        1.0  0.70270  0.69118  0.73438  1.0000 0.10011435
H   H9        1.0  0.16805  0.50417  0.73165  1.0000 0.109017724
H   H10       1.0  0.03324  0.53680  0.79346  1.0000 0.10011435
H   H11       1.0  0.95186  0.75962  0.69328  1.0000 0.1157904359
H   H12       1.0  0.87174  0.73438  0.69118  1.0000 0.10011435
H   H13       1.0  0.73165  0.59613  0.16805  1.0000 0.109017724
H   H14       1.0  0.79346  0.63650  0.03324  1.0000 0.10011435
H   H15       1.0  0.69328  0.59524  0.95186  1.0000 0.1157904359
H   H16       1.0  0.69118  0.70270  0.87174  1.0000 0.10011435
H   H17       1.0  0.49583  0.83195  0.40387  1.0000 0.109017724
H   H18       1.0  0.46320  0.96676  0.36350  1.0000 0.10011435
H   H19       1.0  0.24038  0.04814  0.40476  1.0000 0.1157904359
H   H20       1.0  0.26562  0.12826  0.29730  1.0000 0.10011435
H   H21       1.0  0.40387  0.26835  0.49583  1.0000 0.109017724
H   H22       1.0  0.36350  0.20654  0.46320  1.0000 0.10011435
H   H23       1.0  0.40476  0.30672  0.24038  1.0000 0.1157904359
H   H24       1.0  0.29730  0.30882  0.26562  1.0000 0.10011435
H   H25       1.0  0.83195  0.49583  0.26835  1.0000 0.109017724
H   H26       1.0  0.96676  0.46320  0.20654  1.0000 0.10011435
H   H27       1.0  0.04814  0.24038  0.30672  1.0000 0.1157904359
H   H28       1.0  0.12826  0.26562  0.30882  1.0000 0.10011435
H   H29       1.0  0.26835  0.40387  0.83195  1.0000 0.109017724
H   H30       1.0  0.20654  0.36350  0.96676  1.0000 0.10011435
H   H31       1.0  0.30672  0.40476  0.04814  1.0000 0.1157904359
H   H32       1.0  0.30882  0.29730  0.12826  1.0000 0.10011435
H   H33       1.0  0.32416  0.57594  0.67584  1.0000 0.3531915265
H   H34       1.0  0.67584  0.42406  0.32416  1.0000 0.3531915265
H   H35       1.0  0.57594  0.32416  0.42406  1.0000 0.3531915265
H   H36       1.0  0.42406  0.67584  0.57594  1.0000 0.3531915265
H   H37       1.0  0.36913  0.53145  0.46855  1.0000 0.3590939136
H   H38       1.0  0.46855  0.63087  0.36913  1.0000 0.3590939136
H   H39       1.0  0.53145  0.36913  0.63087  1.0000 0.3590939136
H   H40       1.0  0.63087  0.46855  0.53145  1.0000 0.3590939136
H   H41       1.0  0.60916  0.89084  0.60916  1.0000 0.0922001468
H   H42       1.0  0.89084  0.60916  0.89084  1.0000 0.0922001468
H   H43       1.0  0.39084  0.10916  0.39084  1.0000 0.0922001468
H   H44       1.0  0.10916  0.39084  0.10916  1.0000 0.0922001468
C   C1        1.0  0.58559  0.23137  0.55323  1.0000 0.6331041398
C   C2        1.0  0.61114  0.14162  0.57418  1.0000 -0.172419072
C   C3        1.0  0.55513  0.12533  0.59687  1.0000 -0.0956956163
C   C4        1.0  0.57504  0.04364  0.62136  1.0000 -0.1858320741
C   C5        1.0  0.64967  0.97961  0.62319  1.0000 0.0801616924
C   C6        1.0  0.70741  0.99493  0.59687  1.0000 -0.282876881
C   C7        1.0  0.68626  0.07616  0.57264  1.0000 0.2420756499
C   C8        1.0  0.66892  0.89444  0.65116  1.0000 0.0633221584
C   C9        1.0  0.71321  0.85021  0.69459  1.0000 -0.2113202818
C   C10       1.0  0.55323  0.62981  0.58559  1.0000 0.6331041398
C   C11       1.0  0.57418  0.67306  0.61114  1.0000 -0.172419072
C   C12       1.0  0.59687  0.72267  0.55513  1.0000 -0.0956956163
C   C13       1.0  0.62136  0.75996  0.57504  1.0000 -0.1858320741
C   C14       1.0  0.62319  0.74753  0.64967  1.0000 0.0801616924
C   C15       1.0  0.59687  0.70079  0.70741  1.0000 -0.282876881
C   C16       1.0  0.57264  0.66494  0.68626  1.0000 0.2420756499
C   C17       1.0  0.65116  0.78548  0.66892  1.0000 0.0633221584
C   C18       1.0  0.69459  0.74199  0.71321  1.0000 -0.2113202818
C   C19       1.0  0.23137  0.58559  0.62981  1.0000 0.6331041398
C   C20       1.0  0.14162  0.61114  0.67306  1.0000 -0.172419072
C   C21       1.0  0.12533  0.55513  0.72267  1.0000 -0.0956956163
C   C22       1.0  0.04364  0.57504  0.75996  1.0000 -0.1858320741
C   C23       1.0  0.97961  0.64967  0.74753  1.0000 0.0801616924
C   C24       1.0  0.99493  0.70741  0.70079  1.0000 -0.282876881
C   C25       1.0  0.07616  0.68626  0.66494  1.0000 0.2420756499
C   C26       1.0  0.89444  0.66892  0.78548  1.0000 0.0633221584
C   C27       1.0  0.85021  0.71321  0.74199  1.0000 -0.2113202818
C   C28       1.0  0.62981  0.55323  0.23137  1.0000 0.6331041398
C   C29       1.0  0.67306  0.57418  0.14162  1.0000 -0.172419072
C   C30       1.0  0.72267  0.59687  0.12533  1.0000 -0.0956956163
C   C31       1.0  0.75996  0.62136  0.04364  1.0000 -0.1858320741
C   C32       1.0  0.74753  0.62319  0.97961  1.0000 0.0801616924
C   C33       1.0  0.70079  0.59687  0.99493  1.0000 -0.282876881
C   C34       1.0  0.66494  0.57264  0.07616  1.0000 0.2420756499
C   C35       1.0  0.78548  0.65116  0.89444  1.0000 0.0633221584
C   C36       1.0  0.74199  0.69459  0.85021  1.0000 -0.2113202818
C   C37       1.0  0.41441  0.76863  0.44677  1.0000 0.6331041398
C   C38       1.0  0.38886  0.85838  0.42582  1.0000 -0.172419072
C   C39       1.0  0.44487  0.87467  0.40313  1.0000 -0.0956956163
C   C40       1.0  0.42496  0.95636  0.37864  1.0000 -0.1858320741
C   C41       1.0  0.35033  0.02039  0.37681  1.0000 0.0801616924
C   C42       1.0  0.29259  0.00507  0.40313  1.0000 -0.282876881
C   C43       1.0  0.31374  0.92384  0.42736  1.0000 0.2420756499
C   C44       1.0  0.33108  0.10556  0.34884  1.0000 0.0633221584
C   C45       1.0  0.28679  0.14979  0.30541  1.0000 -0.2113202818
C   C46       1.0  0.44677  0.37019  0.41441  1.0000 0.6331041398
C   C47       1.0  0.42582  0.32694  0.38886  1.0000 -0.172419072
C   C48       1.0  0.40313  0.27733  0.44487  1.0000 -0.0945585651
C   C49       1.0  0.37864  0.24004  0.42496  1.0000 -0.1858320741
C   C50       1.0  0.37681  0.25247  0.35033  1.0000 0.0801616924
C   C51       1.0  0.40313  0.29921  0.29259  1.0000 -0.282876881
C   C52       1.0  0.42736  0.33506  0.31374  1.0000 0.2420756499
C   C53       1.0  0.34884  0.21452  0.33108  1.0000 0.0633221584
C   C54       1.0  0.30541  0.25801  0.28679  1.0000 -0.2113202818
C   C55       1.0  0.76863  0.41441  0.37019  1.0000 0.6331041398
C   C56       1.0  0.85838  0.38886  0.32694  1.0000 -0.172419072
C   C57       1.0  0.87467  0.44487  0.27733  1.0000 -0.0956956163
C   C58       1.0  0.95636  0.42496  0.24004  1.0000 -0.1858320741
C   C59       1.0  0.02039  0.35033  0.25247  1.0000 0.0801616924
C   C60       1.0  0.00507  0.29259  0.29921  1.0000 -0.282876881
C   C61       1.0  0.92384  0.31374  0.33506  1.0000 0.2420756499
C   C62       1.0  0.10556  0.33108  0.21452  1.0000 0.0633221584
C   C63       1.0  0.14979  0.28679  0.25801  1.0000 -0.2113202818
C   C64       1.0  0.37019  0.44677  0.76863  1.0000 0.6331041398
C   C65       1.0  0.32694  0.42582  0.85838  1.0000 -0.172419072
C   C66       1.0  0.27733  0.40313  0.87467  1.0000 -0.0956956163
C   C67       1.0  0.24004  0.37864  0.95636  1.0000 -0.1858320741
C   C68       1.0  0.25247  0.37681  0.02039  1.0000 0.0801616924
C   C69       1.0  0.29921  0.40313  0.00507  1.0000 -0.282876881
C   C70       1.0  0.33506  0.42736  0.92384  1.0000 0.2420756499
C   C71       1.0  0.21452  0.34884  0.10556  1.0000 0.0633221584
C   C72       1.0  0.25801  0.30541  0.14979  1.0000 -0.2113202818
C   C73       1.0  0.63870  0.86130  0.63870  1.0000 -0.2113202818
C   C74       1.0  0.72640  0.77360  0.72640  1.0000 0.0662974807
C   C75       1.0  0.86130  0.63870  0.86130  1.0000 -0.2113202818
C   C76       1.0  0.77360  0.72640  0.77360  1.0000 0.0662974807
C   C77       1.0  0.36130  0.13870  0.36130  1.0000 -0.2113202818
C   C78       1.0  0.27360  0.22640  0.27360  1.0000 0.0662974807
C   C79       1.0  0.13870  0.36130  0.13870  1.0000 -0.2113202818
C   C80       1.0  0.22640  0.27360  0.22640  1.0000 0.0662974807
O   O1        1.0  0.50630  0.28982  0.57818  1.0000 -0.608390568
O   O2        1.0  0.64348  0.24062  0.51438  1.0000 -0.6375798044
O   O3        1.0  0.57818  0.62570  0.50630  1.0000 -0.608390568
O   O4        1.0  0.51438  0.60152  0.64348  1.0000 -0.6375798044
O   O5        1.0  0.28982  0.50630  0.62570  1.0000 -0.608390568
O   O6        1.0  0.24062  0.64348  0.60152  1.0000 -0.6375798044
O   O7        1.0  0.62570  0.57818  0.28982  1.0000 -0.608390568
O   O8        1.0  0.60152  0.51438  0.24062  1.0000 -0.6375798044
O   O9        1.0  0.49370  0.71018  0.42182  1.0000 -0.608390568
O   O10       1.0  0.35652  0.75938  0.48562  1.0000 -0.6375798044
O   O11       1.0  0.42182  0.37430  0.49370  1.0000 -0.608390568
O   O12       1.0  0.48562  0.39848  0.35652  1.0000 -0.6375798044
O   O13       1.0  0.71018  0.49370  0.37430  1.0000 -0.608390568
O   O14       1.0  0.75938  0.35652  0.39848  1.0000 -0.6375798044
O   O15       1.0  0.37430  0.42182  0.71018  1.0000 -0.608390568
O   O16       1.0  0.39848  0.48562  0.75938  1.0000 -0.6375798044
O   O17       1.0  0.37990  0.55270  0.62010  1.0000 -1.0866334496
O   O18       1.0  0.62010  0.44730  0.37990  1.0000 -1.0866334496
O   O19       1.0  0.55270  0.37990  0.44730  1.0000 -1.0866334496
O   O20       1.0  0.44730  0.62010  0.55270  1.0000 -1.0866334496
O   O21       1.0  0.41059  0.52239  0.47761  1.0000 -1.0866334496
O   O22       1.0  0.47761  0.58941  0.41059  1.0000 -1.0866334496
O   O23       1.0  0.52239  0.41059  0.58941  1.0000 -1.0866334496
O   O24       1.0  0.58941  0.47761  0.52239  1.0000 -1.0866334496
F   F1        1.0  0.74914  0.08374  0.54706  1.0000 -0.1759854528
F   F2        1.0  0.54706  0.62006  0.74914  1.0000 -0.1759854528
F   F3        1.0  0.08374  0.74914  0.62006  1.0000 -0.1759854528
F   F4        1.0  0.62006  0.54706  0.08374  1.0000 -0.1759854528
F   F5        1.0  0.25086  0.91626  0.45294  1.0000 -0.1759854528
F   F6        1.0  0.45294  0.37994  0.25086  1.0000 -0.1759854528
F   F7        1.0  0.91626  0.25086  0.37994  1.0000 -0.172419072
F   F8        1.0  0.37994  0.45294  0.91626  1.0000 -0.1759854528
