# DDEC6 charges by PACMAN v1.1 (https://github.com/mtap-research/PACMAN-charge/)
data_2021[Al][nan]3[ASR]8
_chemical_formula_sum              "Al8 H24 C40 N16 O40"
_cell_length_a       12.282
_cell_length_b       14.764
_cell_length_c       14.018
_cell_angle_alpha    90
_cell_angle_beta     102.089
_cell_angle_gamma    90

_symmetry_space_group_name_H-M    "P 1"
_symmetry_Int_Tables_number       1

loop_
  _symmetry_equiv_pos_as_xyz
  'x, y, z'

loop_
  _atom_site_type_symbol
  _atom_site_label
  _atom_site_symmetry_multiplicity
  _atom_site_fract_x
  _atom_site_fract_y
  _atom_site_fract_z
  _atom_site_occupancy
  _atom_site_charge
Al  Al1       1.0  0.76383  0.43880  0.55884  1.0000 1.6154168051
Al  Al2       1.0  0.23617  0.93880  0.94116  1.0000 1.6154168051
Al  Al3       1.0  0.23617  0.56120  0.44116  1.0000 1.6154168051
Al  Al4       1.0  0.76383  0.06120  0.05884  1.0000 1.6154168051
Al  Al5       1.0  0.50000  0.50000  0.50000  1.0000 1.6324746113
Al  Al6       1.0  0.50000  0.00000  0.00000  1.0000 1.6324746113
Al  Al7       1.0  0.00000  0.50000  0.50000  1.0000 1.6324746113
Al  Al8       1.0  0.00000  0.00000  0.00000  1.0000 1.6324746113
H   H1        1.0  0.67176  0.57686  0.49930  1.0000 0.4302280304
H   H2        1.0  0.81127  0.48718  0.40881  1.0000 0.4302280304
H   H3        1.0  0.71487  0.27444  0.81598  1.0000 0.1718524795
H   H4        1.0  0.40870  0.26138  0.85936  1.0000 0.279454584
H   H5        1.0  0.78468  0.63175  0.77937  1.0000 0.279454584
H   H6        1.0  0.08406  0.70731  0.75122  1.0000 0.1718524795
H   H7        1.0  0.32824  0.07686  0.00070  1.0000 0.4302280304
H   H8        1.0  0.18873  0.98718  0.09119  1.0000 0.4354193907
H   H9        1.0  0.28513  0.77444  0.68402  1.0000 0.1718524795
H   H10       1.0  0.59130  0.76138  0.64064  1.0000 0.279454584
H   H11       1.0  0.21532  0.13175  0.72063  1.0000 0.279454584
H   H12       1.0  0.91594  0.20731  0.74878  1.0000 0.1718524795
H   H13       1.0  0.32824  0.42314  0.50070  1.0000 0.4302280304
H   H14       1.0  0.18873  0.51282  0.59119  1.0000 0.4302280304
H   H15       1.0  0.28513  0.72556  0.18402  1.0000 0.1718524795
H   H16       1.0  0.59130  0.73862  0.14064  1.0000 0.279454584
H   H17       1.0  0.21532  0.36825  0.22063  1.0000 0.279454584
H   H18       1.0  0.91594  0.29269  0.24878  1.0000 0.1718524795
H   H19       1.0  0.67176  0.92314  0.99930  1.0000 0.4302280304
H   H20       1.0  0.81127  0.01282  0.90881  1.0000 0.4302280304
H   H21       1.0  0.71487  0.22556  0.31598  1.0000 0.1718524795
H   H22       1.0  0.40870  0.23862  0.35936  1.0000 0.279454584
H   H23       1.0  0.78468  0.86825  0.27937  1.0000 0.279454584
H   H24       1.0  0.08406  0.79269  0.25122  1.0000 0.1718524795
C   C1        1.0  0.59309  0.40051  0.67252  1.0000 0.6183310549
C   C2        1.0  0.56749  0.34441  0.75194  1.0000 0.0298924074
C   C3        1.0  0.91739  0.57050  0.66578  1.0000 0.6006825667
C   C4        1.0  0.63760  0.28422  0.81205  1.0000 -0.2340962005
C   C5        1.0  0.92997  0.64261  0.73934  1.0000 0.0153091971
C   C6        1.0  0.56887  0.24209  0.86457  1.0000 0.0298924074
C   C7        1.0  0.01432  0.70365  0.77018  1.0000 -0.2340962005
C   C8        1.0  0.59386  0.16605  0.93368  1.0000 0.6006825667
C   C9        1.0  0.97407  0.75922  0.83592  1.0000 0.0298924074
C   C10       1.0  0.02868  0.83848  0.88893  1.0000 0.6183310549
C   C11       1.0  0.40691  0.90051  0.82748  1.0000 0.6183310549
C   C12       1.0  0.43251  0.84441  0.74806  1.0000 0.0298924074
C   C13       1.0  0.08261  0.07050  0.83422  1.0000 0.6006825667
C   C14       1.0  0.36240  0.78422  0.68795  1.0000 -0.2340962005
C   C15       1.0  0.07003  0.14261  0.76066  1.0000 0.0153091971
C   C16       1.0  0.43113  0.74209  0.63543  1.0000 0.0298924074
C   C17       1.0  0.98568  0.20365  0.72982  1.0000 -0.2340962005
C   C18       1.0  0.40614  0.66605  0.56632  1.0000 0.6006825667
C   C19       1.0  0.02593  0.25922  0.66408  1.0000 0.0298924074
C   C20       1.0  0.97132  0.33848  0.61107  1.0000 0.6183310549
C   C21       1.0  0.40691  0.59949  0.32748  1.0000 0.6183310549
C   C22       1.0  0.43251  0.65559  0.24806  1.0000 0.0298924074
C   C23       1.0  0.08261  0.42950  0.33422  1.0000 0.6006825667
C   C24       1.0  0.36240  0.71578  0.18795  1.0000 -0.2340962005
C   C25       1.0  0.07003  0.35739  0.26066  1.0000 0.0153091971
C   C26       1.0  0.43113  0.75791  0.13543  1.0000 0.0298924074
C   C27       1.0  0.98568  0.29635  0.22982  1.0000 -0.2340962005
C   C28       1.0  0.40614  0.83395  0.06632  1.0000 0.6006825667
C   C29       1.0  0.02593  0.24078  0.16408  1.0000 0.0298924074
C   C30       1.0  0.97132  0.16152  0.11107  1.0000 0.6183310549
C   C31       1.0  0.59309  0.09949  0.17252  1.0000 0.6183310549
C   C32       1.0  0.56749  0.15559  0.25194  1.0000 0.0298924074
C   C33       1.0  0.91739  0.92950  0.16578  1.0000 0.6006825667
C   C34       1.0  0.63760  0.21578  0.31205  1.0000 -0.2340962005
C   C35       1.0  0.92997  0.85739  0.23934  1.0000 0.0153091971
C   C36       1.0  0.56887  0.25791  0.36457  1.0000 0.0298924074
C   C37       1.0  0.01432  0.79635  0.27018  1.0000 -0.2340962005
C   C38       1.0  0.59386  0.33395  0.43368  1.0000 0.6006825667
C   C39       1.0  0.97407  0.74078  0.33592  1.0000 0.0298924074
C   C40       1.0  0.02868  0.66152  0.38893  1.0000 0.6183310549
N   N1        1.0  0.46354  0.34158  0.76794  1.0000 -0.188881196
N   N2        1.0  0.46677  0.27796  0.83594  1.0000 -0.0659818418
N   N3        1.0  0.84724  0.66250  0.78643  1.0000 -0.0612832736
N   N4        1.0  0.87187  0.73404  0.84463  1.0000 -0.188881196
N   N5        1.0  0.53646  0.84158  0.73206  1.0000 -0.188881196
N   N6        1.0  0.53323  0.77796  0.66406  1.0000 -0.0612832736
N   N7        1.0  0.15276  0.16250  0.71357  1.0000 -0.0612832736
N   N8        1.0  0.12813  0.23404  0.65537  1.0000 -0.188881196
N   N9        1.0  0.53646  0.65842  0.23206  1.0000 -0.188881196
N   N10       1.0  0.53323  0.72204  0.16406  1.0000 -0.0612832736
N   N11       1.0  0.15276  0.33750  0.21357  1.0000 -0.0612832736
N   N12       1.0  0.12813  0.26596  0.15537  1.0000 -0.1952198346
N   N13       1.0  0.46354  0.15842  0.26794  1.0000 -0.188881196
N   N14       1.0  0.46677  0.22204  0.33594  1.0000 -0.0659818418
N   N15       1.0  0.84724  0.83750  0.28643  1.0000 -0.0612832736
N   N16       1.0  0.87187  0.76596  0.34463  1.0000 -0.1952198346
O   O1        1.0  0.65003  0.51812  0.51577  1.0000 -1.0142166514
O   O2        1.0  0.51735  0.45116  0.62758  1.0000 -0.5700611491
O   O3        1.0  0.51230  0.12050  0.94867  1.0000 -0.5888814975
O   O4        1.0  0.68816  0.38996  0.65435  1.0000 -0.5633754034
O   O5        1.0  0.83198  0.52110  0.65772  1.0000 -0.5888814975
O   O6        1.0  0.84954  0.47752  0.47426  1.0000 -1.0215146442
O   O7        1.0  0.13007  0.84871  0.88753  1.0000 -0.5633754034
O   O8        1.0  0.69489  0.15270  0.96980  1.0000 -0.5529400383
O   O9        1.0  0.99149  0.56455  0.61664  1.0000 -0.5529400383
O   O10       1.0  0.96966  0.88976  0.92853  1.0000 -0.5700611491
O   O11       1.0  0.34997  0.01812  0.98423  1.0000 -1.0142166514
O   O12       1.0  0.48265  0.95116  0.87242  1.0000 -0.5700611491
O   O13       1.0  0.48770  0.62050  0.55133  1.0000 -0.5888814975
O   O14       1.0  0.31184  0.88996  0.84565  1.0000 -0.5633754034
O   O15       1.0  0.16802  0.02110  0.84228  1.0000 -0.5888814975
O   O16       1.0  0.15046  0.97752  0.02574  1.0000 -1.0215146442
O   O17       1.0  0.86993  0.34871  0.61247  1.0000 -0.5633754034
O   O18       1.0  0.30511  0.65270  0.53020  1.0000 -0.5529400383
O   O19       1.0  0.00851  0.06455  0.88336  1.0000 -0.5529400383
O   O20       1.0  0.03034  0.38976  0.57147  1.0000 -0.5633754034
O   O21       1.0  0.34997  0.48188  0.48423  1.0000 -1.0142166514
O   O22       1.0  0.48265  0.54884  0.37242  1.0000 -0.5700611491
O   O23       1.0  0.48770  0.87950  0.05133  1.0000 -0.5888814975
O   O24       1.0  0.31184  0.61004  0.34565  1.0000 -0.5633754034
O   O25       1.0  0.16802  0.47890  0.34228  1.0000 -0.5888814975
O   O26       1.0  0.15046  0.52248  0.52574  1.0000 -1.0215146442
O   O27       1.0  0.86993  0.15129  0.11247  1.0000 -0.5633754034
O   O28       1.0  0.30511  0.84730  0.03020  1.0000 -0.5529400383
O   O29       1.0  0.00851  0.43545  0.38336  1.0000 -0.5529400383
O   O30       1.0  0.03034  0.11024  0.07147  1.0000 -0.5633754034
O   O31       1.0  0.65003  0.98188  0.01577  1.0000 -1.0142166514
O   O32       1.0  0.51735  0.04884  0.12758  1.0000 -0.5700611491
O   O33       1.0  0.51230  0.37950  0.44867  1.0000 -0.5888814975
O   O34       1.0  0.68816  0.11004  0.15435  1.0000 -0.5633754034
O   O35       1.0  0.83198  0.97890  0.15772  1.0000 -0.5888814975
O   O36       1.0  0.84954  0.02248  0.97426  1.0000 -1.0215146442
O   O37       1.0  0.13007  0.65129  0.38753  1.0000 -0.5633754034
O   O38       1.0  0.69489  0.34730  0.46980  1.0000 -0.5529400383
O   O39       1.0  0.99149  0.93545  0.11664  1.0000 -0.5529400383
O   O40       1.0  0.96966  0.61024  0.42853  1.0000 -0.5633754034
