# DDEC6 charges by PACMAN v1.1 (https://github.com/mtap-research/PACMAN-charge/)
data_2021[La][sql]2[ASR]1
_chemical_formula_sum              "La4 H32 C60 N20 O28"
_cell_length_a       15.7538
_cell_length_b       15.7538
_cell_length_c       14.3437
_cell_angle_alpha    81.3032
_cell_angle_beta     98.6968
_cell_angle_gamma    127.169

_symmetry_space_group_name_H-M    "P 1"
_symmetry_Int_Tables_number       1

loop_
  _symmetry_equiv_pos_as_xyz
  'x, y, z'

loop_
  _atom_site_type_symbol
  _atom_site_label
  _atom_site_symmetry_multiplicity
  _atom_site_fract_x
  _atom_site_fract_y
  _atom_site_fract_z
  _atom_site_occupancy
  _atom_site_charge
La  La1       1.0  0.49836  0.13020  0.49815  1.0000 1.8276811954
La  La2       1.0  0.13020  0.49836  0.00185  1.0000 1.8276811954
La  La3       1.0  0.50164  0.86980  0.50185  1.0000 1.8276811954
La  La4       1.0  0.86980  0.50164  0.99815  1.0000 1.8276811954
H   H1        1.0  0.05320  0.83700  0.91520  1.0000 0.2865602788
H   H2        1.0  0.76110  0.00850  0.74750  1.0000 0.1196778999
H   H3        1.0  0.70360  0.21960  0.77120  1.0000 0.1381085036
H   H4        1.0  0.96290  0.25410  0.90880  1.0000 0.1095907059
H   H5        1.0  0.93940  0.87900  0.88140  1.0000 0.1196778999
H   H6        1.0  0.19490  0.18470  0.89030  1.0000 0.1288409647
H   H7        1.0  0.08520  0.23760  0.86340  1.0000 0.1196778999
H   H8        1.0  0.83000  0.93280  0.85080  1.0000 0.1288409647
H   H9        1.0  0.83700  0.05320  0.58480  1.0000 0.2865602788
H   H10       1.0  0.00850  0.76110  0.75250  1.0000 0.1196778999
H   H11       1.0  0.21960  0.70360  0.72880  1.0000 0.1381085036
H   H12       1.0  0.25410  0.96290  0.59120  1.0000 0.1095907059
H   H13       1.0  0.87900  0.93940  0.61860  1.0000 0.1196778999
H   H14       1.0  0.18470  0.19490  0.60970  1.0000 0.1288409647
H   H15       1.0  0.23760  0.08520  0.63660  1.0000 0.1196778999
H   H16       1.0  0.93280  0.83000  0.64920  1.0000 0.1288409647
H   H17       1.0  0.94680  0.16300  0.08480  1.0000 0.2865602788
H   H18       1.0  0.23890  0.99150  0.25250  1.0000 0.1196778999
H   H19       1.0  0.29640  0.78040  0.22880  1.0000 0.1381085036
H   H20       1.0  0.03710  0.74590  0.09120  1.0000 0.1095907059
H   H21       1.0  0.06060  0.12100  0.11860  1.0000 0.1196778999
H   H22       1.0  0.80510  0.81530  0.10970  1.0000 0.1288409647
H   H23       1.0  0.91480  0.76240  0.13660  1.0000 0.1196778999
H   H24       1.0  0.17000  0.06720  0.14920  1.0000 0.1288409647
H   H25       1.0  0.16300  0.94680  0.41520  1.0000 0.2865602788
H   H26       1.0  0.99150  0.23890  0.24750  1.0000 0.1196778999
H   H27       1.0  0.78040  0.29640  0.27120  1.0000 0.1381085036
H   H28       1.0  0.74590  0.03710  0.40880  1.0000 0.1095907059
H   H29       1.0  0.12100  0.06060  0.38140  1.0000 0.1196778999
H   H30       1.0  0.81530  0.80510  0.39030  1.0000 0.1288409647
H   H31       1.0  0.76240  0.91480  0.36340  1.0000 0.1196778999
H   H32       1.0  0.06720  0.17000  0.35080  1.0000 0.1288409647
C   C1        1.0  0.85434  0.33646  0.89910  1.0000 0.6133695957
C   C2        1.0  0.62593  0.05407  0.67430  1.0000 0.6301733074
C   C3        1.0  0.71905  0.10655  0.74700  1.0000 -0.0235068803
C   C4        1.0  0.83499  0.24861  0.85020  1.0000 -0.0280066705
C   C5        1.0  0.78161  0.07059  0.77140  1.0000 -0.1285912643
C   C6        1.0  0.74566  0.19554  0.78689  1.0000 -0.0885957699
C   C7        1.0  0.90059  0.21561  0.86950  1.0000 -0.1389623466
C   C8        1.0  0.07897  0.02603  0.88910  1.0000 0.0105271325
C   C9        1.0  0.94554  0.09126  0.85220  1.0000 0.0689074811
C   C10       1.0  0.87454  0.12566  0.83110  1.0000 0.0616351762
C   C11       1.0  0.15005  0.99375  0.90740  1.0000 0.241603401
C   C12       1.0  0.96924  0.95136  0.87710  1.0000 -0.1054308075
C   C13       1.0  0.12140  0.13360  0.88290  1.0000 -0.1002457789
C   C14       1.0  0.05545  0.16535  0.86580  1.0000 -0.1285912643
C   C15       1.0  0.90352  0.98388  0.85880  1.0000 -0.1243154812
C   C16       1.0  0.33646  0.85434  0.60090  1.0000 0.6133695957
C   C17       1.0  0.05407  0.62593  0.82570  1.0000 0.6301733074
C   C18       1.0  0.10655  0.71905  0.75300  1.0000 -0.0235068803
C   C19       1.0  0.24861  0.83499  0.64980  1.0000 -0.0280066705
C   C20       1.0  0.07059  0.78161  0.72860  1.0000 -0.1285912643
C   C21       1.0  0.19554  0.74566  0.71311  1.0000 -0.0885957699
C   C22       1.0  0.21561  0.90059  0.63050  1.0000 -0.1389623466
C   C23       1.0  0.02603  0.07897  0.61090  1.0000 0.0105271325
C   C24       1.0  0.09126  0.94554  0.64780  1.0000 0.0689074811
C   C25       1.0  0.12566  0.87454  0.66890  1.0000 0.0616351762
C   C26       1.0  0.99375  0.15005  0.59260  1.0000 0.241603401
C   C27       1.0  0.95136  0.96924  0.62290  1.0000 -0.1054308075
C   C28       1.0  0.13360  0.12140  0.61710  1.0000 -0.1002457789
C   C29       1.0  0.16535  0.05545  0.63420  1.0000 -0.1285912643
C   C30       1.0  0.98388  0.90352  0.64120  1.0000 -0.1285912643
C   C31       1.0  0.14566  0.66354  0.10090  1.0000 0.6133695957
C   C32       1.0  0.37407  0.94593  0.32570  1.0000 0.6301733074
C   C33       1.0  0.28095  0.89345  0.25300  1.0000 -0.0235068803
C   C34       1.0  0.16501  0.75139  0.14980  1.0000 -0.0280066705
C   C35       1.0  0.21839  0.92941  0.22860  1.0000 -0.1285912643
C   C36       1.0  0.25434  0.80446  0.21311  1.0000 -0.0885957699
C   C37       1.0  0.09941  0.78439  0.13050  1.0000 -0.1389623466
C   C38       1.0  0.92103  0.97397  0.11090  1.0000 0.0105271325
C   C39       1.0  0.05446  0.90874  0.14780  1.0000 0.0689074811
C   C40       1.0  0.12546  0.87434  0.16890  1.0000 0.0616351762
C   C41       1.0  0.84995  0.00625  0.09260  1.0000 0.241603401
C   C42       1.0  0.03076  0.04864  0.12290  1.0000 -0.1054308075
C   C43       1.0  0.87860  0.86640  0.11710  1.0000 -0.1002457789
C   C44       1.0  0.94455  0.83465  0.13420  1.0000 -0.1285912643
C   C45       1.0  0.09648  0.01612  0.14120  1.0000 -0.1243154812
C   C46       1.0  0.66354  0.14566  0.39910  1.0000 0.6133695957
C   C47       1.0  0.94593  0.37407  0.17430  1.0000 0.6301733074
C   C48       1.0  0.89345  0.28095  0.24700  1.0000 -0.0235068803
C   C49       1.0  0.75139  0.16501  0.35020  1.0000 -0.0280066705
C   C50       1.0  0.92941  0.21839  0.27140  1.0000 -0.1285912643
C   C51       1.0  0.80446  0.25434  0.28689  1.0000 -0.0885957699
C   C52       1.0  0.78439  0.09941  0.36950  1.0000 -0.1389623466
C   C53       1.0  0.97397  0.92103  0.38910  1.0000 0.0105271325
C   C54       1.0  0.90874  0.05446  0.35220  1.0000 0.0689074811
C   C55       1.0  0.87434  0.12546  0.33110  1.0000 0.0616351762
C   C56       1.0  0.00625  0.84995  0.40740  1.0000 0.241603401
C   C57       1.0  0.04864  0.03076  0.37710  1.0000 -0.1054308075
C   C58       1.0  0.86640  0.87860  0.38290  1.0000 -0.1002457789
C   C59       1.0  0.83465  0.94455  0.36580  1.0000 -0.1285912643
C   C60       1.0  0.01612  0.09648  0.35880  1.0000 -0.1243154812
N   N1        1.0  0.35218  0.17442  0.37710  1.0000 0.7212318298
N   N2        1.0  0.11853  0.89287  0.91772  1.0000 -0.1713413927
N   N3        1.0  0.20464  0.89196  0.93270  1.0000 -0.0800761949
N   N4        1.0  0.25502  0.05718  0.91530  1.0000 -0.2729152921
N   N5        1.0  0.28634  0.99086  0.93140  1.0000 -0.0885957699
N   N6        1.0  0.17442  0.35218  0.12290  1.0000 0.7212318298
N   N7        1.0  0.89287  0.11853  0.58228  1.0000 -0.1713413927
N   N8        1.0  0.89196  0.20464  0.56730  1.0000 -0.0800761949
N   N9        1.0  0.05718  0.25502  0.58470  1.0000 -0.2729152921
N   N10       1.0  0.99086  0.28634  0.56860  1.0000 -0.0885957699
N   N11       1.0  0.64782  0.82558  0.62290  1.0000 0.7212318298
N   N12       1.0  0.88147  0.10713  0.08228  1.0000 -0.1713413927
N   N13       1.0  0.79536  0.10804  0.06730  1.0000 -0.0800761949
N   N14       1.0  0.74498  0.94282  0.08470  1.0000 -0.2729152921
N   N15       1.0  0.71366  0.00914  0.06860  1.0000 -0.0885957699
N   N16       1.0  0.82558  0.64782  0.87710  1.0000 0.7212318298
N   N17       1.0  0.10713  0.88147  0.41772  1.0000 -0.1713413927
N   N18       1.0  0.10804  0.79536  0.43270  1.0000 -0.0800761949
N   N19       1.0  0.94282  0.74498  0.41530  1.0000 -0.2729152921
N   N20       1.0  0.00914  0.71366  0.43140  1.0000 -0.0885957699
O   O1        1.0  0.93712  0.38780  0.95655  1.0000 -0.6753024045
O   O2        1.0  0.59195  0.96423  0.65035  1.0000 -0.5958540423
O   O3        1.0  0.31104  0.09694  0.44056  1.0000 -0.5414867583
O   O4        1.0  0.78728  0.35614  0.88585  1.0000 -0.5514489147
O   O5        1.0  0.58755  0.10445  0.64227  1.0000 -0.6296271268
O   O6        1.0  0.45282  0.24478  0.38541  1.0000 -0.4784849319
O   O7        1.0  0.29625  0.17935  0.30955  1.0000 -0.3760551595
O   O8        1.0  0.38780  0.93712  0.54345  1.0000 -0.6732177916
O   O9        1.0  0.96423  0.59195  0.84965  1.0000 -0.5958540423
O   O10       1.0  0.09694  0.31104  0.05944  1.0000 -0.5414867583
O   O11       1.0  0.35614  0.78728  0.61415  1.0000 -0.5514489147
O   O12       1.0  0.10445  0.58755  0.85773  1.0000 -0.6296271268
O   O13       1.0  0.24478  0.45282  0.11459  1.0000 -0.4784849319
O   O14       1.0  0.17935  0.29625  0.19045  1.0000 -0.3742006901
O   O15       1.0  0.06288  0.61220  0.04345  1.0000 -0.6732177916
O   O16       1.0  0.40805  0.03577  0.34965  1.0000 -0.594366509
O   O17       1.0  0.68896  0.90306  0.55944  1.0000 -0.5414867583
O   O18       1.0  0.21272  0.64386  0.11415  1.0000 -0.5514489147
O   O19       1.0  0.41245  0.89555  0.35773  1.0000 -0.6296271268
O   O20       1.0  0.54718  0.75522  0.61459  1.0000 -0.4784849319
O   O21       1.0  0.70375  0.82065  0.69045  1.0000 -0.3760551595
O   O22       1.0  0.61220  0.06288  0.45655  1.0000 -0.6732177916
O   O23       1.0  0.03577  0.40805  0.15035  1.0000 -0.5958540423
O   O24       1.0  0.90306  0.68896  0.94056  1.0000 -0.5414867583
O   O25       1.0  0.64386  0.21272  0.38585  1.0000 -0.5514489147
O   O26       1.0  0.89555  0.41245  0.14227  1.0000 -0.6296271268
O   O27       1.0  0.75522  0.54718  0.88541  1.0000 -0.4784849319
O   O28       1.0  0.82065  0.70375  0.80955  1.0000 -0.3760551595
