# DDEC6 charges by PACMAN v1.1 (https://github.com/mtap-research/PACMAN-charge/)
data_2021[Cd][kgd]2[ASR]1
_chemical_formula_sum              "Cd2 H24 C40 N2 O8"
_cell_length_a       13.4471
_cell_length_b       13.4471
_cell_length_c       6.134
_cell_angle_alpha    82.7012
_cell_angle_beta     97.2988
_cell_angle_gamma    96.7633

_symmetry_space_group_name_H-M    "P 1"
_symmetry_Int_Tables_number       1

loop_
  _symmetry_equiv_pos_as_xyz
  'x, y, z'

loop_
  _atom_site_type_symbol
  _atom_site_label
  _atom_site_symmetry_multiplicity
  _atom_site_fract_x
  _atom_site_fract_y
  _atom_site_fract_z
  _atom_site_occupancy
  _atom_site_charge
Cd  Cd1       1.0  0.20978  0.79022  0.82775  1.0000 0.9106387572
Cd  Cd2       1.0  0.79022  0.20978  0.17225  1.0000 0.9106387572
H   H1        1.0  0.62720  0.29280  0.91790  1.0000 0.2753106134
H   H2        1.0  0.64820  0.57500  0.40340  1.0000 0.1180455928
H   H3        1.0  0.83710  0.50570  0.46410  1.0000 0.1180455928
H   H4        1.0  0.73180  0.53920  0.82120  1.0000 0.1180455928
H   H5        1.0  0.88710  0.61590  0.74010  1.0000 0.1180455928
H   H6        1.0  0.99070  0.58990  0.38160  1.0000 0.125071712
H   H7        1.0  0.29280  0.62720  0.08210  1.0000 0.2753106134
H   H8        1.0  0.57500  0.64820  0.59660  1.0000 0.1180455928
H   H9        1.0  0.50570  0.83710  0.53590  1.0000 0.1180455928
H   H10       1.0  0.53920  0.73180  0.17880  1.0000 0.1180455928
H   H11       1.0  0.61590  0.88710  0.25990  1.0000 0.1180455928
H   H12       1.0  0.58990  0.99070  0.61840  1.0000 0.125071712
H   H13       1.0  0.37280  0.70720  0.08210  1.0000 0.2753106134
H   H14       1.0  0.35180  0.42500  0.59660  1.0000 0.1180455928
H   H15       1.0  0.16290  0.49430  0.53590  1.0000 0.1180455928
H   H16       1.0  0.26820  0.46080  0.17880  1.0000 0.1180455928
H   H17       1.0  0.11290  0.38410  0.25990  1.0000 0.1180455928
H   H18       1.0  0.00930  0.41010  0.61840  1.0000 0.125071712
H   H19       1.0  0.70720  0.37280  0.91790  1.0000 0.2753106134
H   H20       1.0  0.42500  0.35180  0.40340  1.0000 0.1180455928
H   H21       1.0  0.49430  0.16290  0.46410  1.0000 0.1180455928
H   H22       1.0  0.46080  0.26820  0.82120  1.0000 0.1180455928
H   H23       1.0  0.38410  0.11290  0.74010  1.0000 0.1180455928
H   H24       1.0  0.41010  0.00930  0.38160  1.0000 0.125071712
C   C1        1.0  0.61790  0.51490  0.35430  1.0000 -0.2023976592
C   C2        1.0  0.66630  0.46890  0.21100  1.0000 -0.0145510359
C   C3        1.0  0.76650  0.51630  0.15370  1.0000 0.0781181307
C   C4        1.0  0.95430  0.61170  0.05090  1.0000 -0.0177018689
C   C5        1.0  0.84590  0.52990  0.31810  1.0000 -0.1354063599
C   C6        1.0  0.05320  0.66600  0.99340  1.0000 0.5430064874
C   C7        1.0  0.78350  0.54890  0.93500  1.0000 -0.1509924157
C   C8        1.0  0.87670  0.59530  0.88670  1.0000 -0.0960986482
C   C9        1.0  0.93910  0.57910  0.26850  1.0000 -0.086163476
C   C10       1.0  0.51490  0.61790  0.64570  1.0000 -0.2023976592
C   C11       1.0  0.46890  0.66630  0.78900  1.0000 -0.0145510359
C   C12       1.0  0.51630  0.76650  0.84630  1.0000 0.0781181307
C   C13       1.0  0.61170  0.95430  0.94910  1.0000 -0.0177018689
C   C14       1.0  0.52990  0.84590  0.68190  1.0000 -0.1354063599
C   C15       1.0  0.66600  0.05320  0.00660  1.0000 0.5430064874
C   C16       1.0  0.54890  0.78350  0.06500  1.0000 -0.1509924157
C   C17       1.0  0.59530  0.87670  0.11330  1.0000 -0.0960986482
C   C18       1.0  0.57910  0.93910  0.73150  1.0000 -0.086163476
C   C19       1.0  0.38210  0.48510  0.64570  1.0000 -0.2023976592
C   C20       1.0  0.33370  0.53110  0.78900  1.0000 -0.0145510359
C   C21       1.0  0.23350  0.48370  0.84630  1.0000 0.0781181307
C   C22       1.0  0.04570  0.38830  0.94910  1.0000 -0.0177018689
C   C23       1.0  0.15410  0.47010  0.68190  1.0000 -0.1354063599
C   C24       1.0  0.94680  0.33400  0.00660  1.0000 0.5430064874
C   C25       1.0  0.21650  0.45110  0.06500  1.0000 -0.1509924157
C   C26       1.0  0.12330  0.40470  0.11330  1.0000 -0.0960986482
C   C27       1.0  0.06090  0.42090  0.73150  1.0000 -0.086163476
C   C28       1.0  0.48510  0.38210  0.35430  1.0000 -0.2023976592
C   C29       1.0  0.53110  0.33370  0.21100  1.0000 -0.0145510359
C   C30       1.0  0.48370  0.23350  0.15370  1.0000 0.0781181307
C   C31       1.0  0.38830  0.04570  0.05090  1.0000 -0.0177018689
C   C32       1.0  0.47010  0.15410  0.31810  1.0000 -0.1354063599
C   C33       1.0  0.33400  0.94680  0.99340  1.0000 0.5430064874
C   C34       1.0  0.45110  0.21650  0.93500  1.0000 -0.1509924157
C   C35       1.0  0.40470  0.12330  0.88670  1.0000 -0.0960986482
C   C36       1.0  0.42090  0.06090  0.26850  1.0000 -0.086163476
C   C37       1.0  0.52590  0.47410  0.42650  1.0000 0.0657028409
C   C38       1.0  0.62150  0.37850  0.13630  1.0000 0.1463541167
C   C39       1.0  0.47410  0.52590  0.57350  1.0000 0.0657028409
C   C40       1.0  0.37850  0.62150  0.86370  1.0000 0.1463541167
N   N1        1.0  0.67380  0.32620  0.00560  1.0000 -0.5628009958
N   N2        1.0  0.32620  0.67380  0.99440  1.0000 -0.5628009958
O   O1        1.0  0.06360  0.68740  0.79210  1.0000 -0.5434956772
O   O2        1.0  0.12090  0.68830  0.14050  1.0000 -0.5268295331
O   O3        1.0  0.68740  0.06360  0.20790  1.0000 -0.5434956772
O   O4        1.0  0.68830  0.12090  0.85950  1.0000 -0.5268295331
O   O5        1.0  0.93640  0.31260  0.20790  1.0000 -0.5434956772
O   O6        1.0  0.87910  0.31170  0.85950  1.0000 -0.5268295331
O   O7        1.0  0.31260  0.93640  0.79210  1.0000 -0.5434956772
O   O8        1.0  0.31170  0.87910  0.14050  1.0000 -0.5268295331
