# DDEC6 charges by PACMAN v1.1 (https://github.com/mtap-research/PACMAN-charge/)
data_2021[V][nan]3[ASR]9
_chemical_formula_sum              "V4 H12 C32 O20"
_cell_length_a       12.2516
_cell_length_b       12.2516
_cell_length_c       12.2516
_cell_angle_alpha    103.94
_cell_angle_beta     103.94
_cell_angle_gamma    121.21

_symmetry_space_group_name_H-M    "P 1"
_symmetry_Int_Tables_number       1

loop_
  _symmetry_equiv_pos_as_xyz
  'x, y, z'

loop_
  _atom_site_type_symbol
  _atom_site_label
  _atom_site_symmetry_multiplicity
  _atom_site_fract_x
  _atom_site_fract_y
  _atom_site_fract_z
  _atom_site_occupancy
  _atom_site_charge
V   V1        1.0  0.94611  0.05389  0.50000  1.0000 1.8514926625
V   V2        1.0  0.55389  0.44611  0.50000  1.0000 1.8514926625
V   V3        1.0  0.69611  0.69611  0.39222  1.0000 1.8514926625
V   V4        1.0  0.30389  0.30389  0.60778  1.0000 1.8514926625
H   H1        1.0  0.39458  0.71536  0.44686  1.0000 0.138812576
H   H2        1.0  0.26850  0.94772  0.55314  1.0000 0.138812576
H   H3        1.0  0.19772  0.14458  0.17922  1.0000 0.138812576
H   H4        1.0  0.96536  0.01850  0.82078  1.0000 0.138812576
H   H5        1.0  0.85542  0.80228  0.82078  1.0000 0.138812576
H   H6        1.0  0.98150  0.03464  0.17922  1.0000 0.138812576
H   H7        1.0  0.05228  0.73150  0.44686  1.0000 0.138812576
H   H8        1.0  0.28464  0.60542  0.55314  1.0000 0.138812576
H   H9        1.0  0.62340  0.12340  0.50000  1.0000 0.1478513373
H   H10       1.0  0.37340  0.37340  0.00000  1.0000 0.1478513373
H   H11       1.0  0.62660  0.62660  0.00000  1.0000 0.1478513373
H   H12       1.0  0.87660  0.37660  0.50000  1.0000 0.1478513373
C   C1        1.0  0.53000  0.92030  0.47410  1.0000 -0.0077320758
C   C2        1.0  0.63740  0.90570  0.45030  1.0000 0.6249237252
C   C3        1.0  0.40880  0.80150  0.47010  1.0000 -0.1329521383
C   C4        1.0  0.44620  0.05590  0.52590  1.0000 -0.0077320758
C   C5        1.0  0.45540  0.18710  0.54970  1.0000 0.6249237252
C   C6        1.0  0.33140  0.93870  0.52990  1.0000 -0.1329521383
C   C7        1.0  0.30590  0.28000  0.10970  1.0000 -0.0077320758
C   C8        1.0  0.43710  0.38740  0.23170  1.0000 0.6249237252
C   C9        1.0  0.18870  0.15880  0.10730  1.0000 -0.1329521383
C   C10       1.0  0.17030  0.19620  0.89030  1.0000 -0.0077320758
C   C11       1.0  0.15570  0.20540  0.76830  1.0000 0.6249237252
C   C12       1.0  0.05150  0.08140  0.89270  1.0000 -0.1329521383
C   C13       1.0  0.72000  0.69410  0.89030  1.0000 -0.0077320758
C   C14       1.0  0.61260  0.56290  0.76830  1.0000 0.6255788995
C   C15       1.0  0.84120  0.81130  0.89270  1.0000 -0.1329521383
C   C16       1.0  0.80380  0.82970  0.10970  1.0000 -0.0077320758
C   C17       1.0  0.79460  0.84430  0.23170  1.0000 0.6249237252
C   C18       1.0  0.91860  0.94850  0.10730  1.0000 -0.1329521383
C   C19       1.0  0.94410  0.55380  0.47410  1.0000 -0.0077320758
C   C20       1.0  0.81290  0.54460  0.45030  1.0000 0.6249237252
C   C21       1.0  0.06130  0.66860  0.47010  1.0000 -0.1329521383
C   C22       1.0  0.07970  0.47000  0.52590  1.0000 -0.0077320758
C   C23       1.0  0.09430  0.36260  0.54970  1.0000 0.6249237252
C   C24       1.0  0.19850  0.59120  0.52990  1.0000 -0.1329521383
C   C25       1.0  0.31160  0.81160  0.50000  1.0000 0.0701040389
C   C26       1.0  0.54610  0.04610  0.50000  1.0000 -0.1019514198
C   C27       1.0  0.06160  0.06160  0.00000  1.0000 0.0701040389
C   C28       1.0  0.29610  0.29610  0.00000  1.0000 -0.1019514198
C   C29       1.0  0.93840  0.93840  0.00000  1.0000 0.0701040389
C   C30       1.0  0.70390  0.70390  0.00000  1.0000 -0.1019514198
C   C31       1.0  0.18840  0.68840  0.50000  1.0000 0.0701040389
C   C32       1.0  0.95390  0.45390  0.50000  1.0000 -0.1019514198
O   O1        1.0  0.59630  0.78190  0.38840  1.0000 -0.5738149243
O   O2        1.0  0.76350  0.02080  0.49990  1.0000 -0.5610043737
O   O3        1.0  0.39350  0.20790  0.61160  1.0000 -0.5738149243
O   O4        1.0  0.52090  0.26360  0.50010  1.0000 -0.5610043737
O   O5        1.0  0.45790  0.34630  0.31440  1.0000 -0.5738149243
O   O6        1.0  0.51360  0.51350  0.24270  1.0000 -0.5610043737
O   O7        1.0  0.03190  0.14350  0.68560  1.0000 -0.5738149243
O   O8        1.0  0.27080  0.27090  0.75730  1.0000 -0.5610043737
O   O9        1.0  0.65370  0.54210  0.68560  1.0000 -0.5738149243
O   O10       1.0  0.48650  0.48640  0.75730  1.0000 -0.5610043737
O   O11       1.0  0.85650  0.96810  0.31440  1.0000 -0.5738149243
O   O12       1.0  0.72910  0.72920  0.24270  1.0000 -0.5610043737
O   O13       1.0  0.79210  0.60650  0.38840  1.0000 -0.5738149243
O   O14       1.0  0.73640  0.47910  0.49990  1.0000 -0.5610043737
O   O15       1.0  0.21810  0.40370  0.61160  1.0000 -0.5738149243
O   O16       1.0  0.97920  0.23650  0.50010  1.0000 -0.5610043737
O   O17       1.0  0.87060  0.87500  0.49560  1.0000 -0.9441259908
O   O18       1.0  0.37940  0.37500  0.50440  1.0000 -0.9441259908
O   O19       1.0  0.62500  0.62060  0.49560  1.0000 -0.9441259908
O   O20       1.0  0.12500  0.12940  0.50440  1.0000 -0.9441259908
