# DDEC6 charges by PACMAN v1.1 (https://github.com/mtap-research/PACMAN-charge/)
data_2021[In][nan]3[ASR]1
_chemical_formula_sum              "In4 H16 C32 O20"
_cell_length_a       12.569
_cell_length_b       12.569
_cell_length_c       12.569
_cell_angle_alpha    103.915
_cell_angle_beta     103.915
_cell_angle_gamma    121.267

_symmetry_space_group_name_H-M    "P 1"
_symmetry_Int_Tables_number       1

loop_
  _symmetry_equiv_pos_as_xyz
  'x, y, z'

loop_
  _atom_site_type_symbol
  _atom_site_label
  _atom_site_symmetry_multiplicity
  _atom_site_fract_x
  _atom_site_fract_y
  _atom_site_fract_z
  _atom_site_occupancy
  _atom_site_charge
In  In1       1.0  0.43890  0.93890  0.87780  1.0000 1.5847052038
In  In2       1.0  0.06110  0.56110  0.12220  1.0000 1.5847052038
In  In3       1.0  0.18890  0.81110  0.00000  1.0000 1.5847052038
In  In4       1.0  0.81110  0.18890  0.00000  1.0000 1.5851669014
H   H1        1.0  0.89310  0.44700  0.68310  1.0000 0.1158623779
H   H2        1.0  0.76390  0.21000  0.31690  1.0000 0.1158623779
H   H3        1.0  0.69700  0.51390  0.05390  1.0000 0.1158623779
H   H4        1.0  0.46000  0.64310  0.94610  1.0000 0.1158623779
H   H5        1.0  0.35690  0.54000  0.05390  1.0000 0.1158623779
H   H6        1.0  0.48610  0.30300  0.94610  1.0000 0.1158623779
H   H7        1.0  0.55300  0.10690  0.31690  1.0000 0.1158623779
H   H8        1.0  0.79000  0.23610  0.68310  1.0000 0.1158623779
H   H9        1.0  0.44330  0.87500  0.06830  1.0000 0.4054423273
H   H10       1.0  0.80670  0.37500  0.93170  1.0000 0.4054423273
H   H11       1.0  0.12500  0.55670  0.93170  1.0000 0.4054423273
H   H12       1.0  0.62500  0.19330  0.06830  1.0000 0.4054423273
H   H13       1.0  0.12230  0.62230  0.50000  1.0000 0.1440709903
H   H14       1.0  0.87230  0.87230  0.00000  1.0000 0.1440709903
H   H15       1.0  0.12770  0.12770  0.00000  1.0000 0.1440709903
H   H16       1.0  0.37770  0.87770  0.50000  1.0000 0.1440709903
C   C1        1.0  0.12700  0.67980  0.72100  1.0000 0.612456888
C   C2        1.0  0.02067  0.55191  0.60618  1.0000 -0.0264667384
C   C3        1.0  0.90712  0.43836  0.60618  1.0000 -0.1466276348
C   C4        1.0  0.95880  0.40600  0.27900  1.0000 0.612456888
C   C5        1.0  0.94573  0.41449  0.39382  1.0000 -0.0264667384
C   C6        1.0  0.83218  0.30094  0.39382  1.0000 -0.1466276348
C   C7        1.0  0.92980  0.70880  0.05280  1.0000 0.612456888
C   C8        1.0  0.80191  0.69573  0.03124  1.0000 -0.0264667384
C   C9        1.0  0.68836  0.58218  0.03124  1.0000 -0.1466276348
C   C10       1.0  0.65600  0.87700  0.94720  1.0000 0.612456888
C   C11       1.0  0.66449  0.77067  0.96876  1.0000 -0.0264667384
C   C12       1.0  0.55094  0.65712  0.96876  1.0000 -0.1466276348
C   C13       1.0  0.12300  0.34400  0.05280  1.0000 0.612456888
C   C14       1.0  0.22933  0.33551  0.03124  1.0000 -0.0264667384
C   C15       1.0  0.34288  0.44906  0.03124  1.0000 -0.1466276348
C   C16       1.0  0.29120  0.07020  0.94720  1.0000 0.612456888
C   C17       1.0  0.30427  0.19809  0.96876  1.0000 -0.0264667384
C   C18       1.0  0.41782  0.31164  0.96876  1.0000 -0.1466276348
C   C19       1.0  0.32020  0.87300  0.27900  1.0000 0.612456888
C   C20       1.0  0.44809  0.97933  0.39382  1.0000 -0.0264667384
C   C21       1.0  0.56164  0.09288  0.39382  1.0000 -0.1466276348
C   C22       1.0  0.59400  0.04120  0.72100  1.0000 0.612456888
C   C23       1.0  0.58551  0.05427  0.60618  1.0000 -0.0264667384
C   C24       1.0  0.69906  0.16782  0.60618  1.0000 -0.1466276348
C   C25       1.0  0.04000  0.54000  0.50000  1.0000 -0.1041444261
C   C26       1.0  0.81287  0.31287  0.50000  1.0000 0.0862918049
C   C27       1.0  0.79000  0.79000  0.00000  1.0000 -0.1041444261
C   C28       1.0  0.56287  0.56287  0.00000  1.0000 0.0862918049
C   C29       1.0  0.21000  0.21000  0.00000  1.0000 -0.1041444261
C   C30       1.0  0.43713  0.43713  0.00000  1.0000 0.0862918049
C   C31       1.0  0.46000  0.96000  0.50000  1.0000 -0.1041444261
C   C32       1.0  0.68713  0.18713  0.50000  1.0000 0.0862918049
O   O1        1.0  0.25040  0.75390  0.72890  1.0000 -0.5611338615
O   O2        1.0  0.08550  0.70430  0.80180  1.0000 -0.5903911889
O   O3        1.0  0.02500  0.52150  0.27110  1.0000 -0.5611338615
O   O4        1.0  0.90250  0.28370  0.19820  1.0000 -0.5903911889
O   O5        1.0  0.00390  0.77500  0.00350  1.0000 -0.5611338615
O   O6        1.0  0.95430  0.65250  0.11880  1.0000 -0.5903911889
O   O7        1.0  0.77150  0.00040  0.99650  1.0000 -0.5611338615
O   O8        1.0  0.53370  0.83550  0.88120  1.0000 -0.5903911889
O   O9        1.0  0.99960  0.22850  0.00350  1.0000 -0.5611338615
O   O10       1.0  0.16450  0.46630  0.11880  1.0000 -0.5903911889
O   O11       1.0  0.22500  0.99610  0.99650  1.0000 -0.5611338615
O   O12       1.0  0.34750  0.04570  0.88120  1.0000 -0.5903911889
O   O13       1.0  0.24610  0.74960  0.27110  1.0000 -0.5611338615
O   O14       1.0  0.29570  0.91450  0.19820  1.0000 -0.5903911889
O   O15       1.0  0.47850  0.97500  0.72890  1.0000 -0.5611338615
O   O16       1.0  0.71630  0.09750  0.80180  1.0000 -0.5903911889
O   O17       1.0  0.37680  0.87500  0.00180  1.0000 -0.9238810092
O   O18       1.0  0.87320  0.37500  0.99820  1.0000 -0.9238810092
O   O19       1.0  0.12500  0.62320  0.99820  1.0000 -0.9238810092
O   O20       1.0  0.62500  0.12680  0.00180  1.0000 -0.9238810092
