# DDEC6 charges by PACMAN v1.1 (https://github.com/mtap-research/PACMAN-charge/)
data_2021[Al][nan]3[ASR]13
_chemical_formula_sum              "Al8 H24 C40 N16 O40"
_cell_length_a       12.3016
_cell_length_b       14.919
_cell_length_c       13.92
_cell_angle_alpha    90
_cell_angle_beta     102.402
_cell_angle_gamma    90

_symmetry_space_group_name_H-M    "P 1"
_symmetry_Int_Tables_number       1

loop_
  _symmetry_equiv_pos_as_xyz
  'x, y, z'

loop_
  _atom_site_type_symbol
  _atom_site_label
  _atom_site_symmetry_multiplicity
  _atom_site_fract_x
  _atom_site_fract_y
  _atom_site_fract_z
  _atom_site_occupancy
  _atom_site_charge
Al  Al1       1.0  0.23553  0.56028  0.43994  1.0000 1.6156762171
Al  Al2       1.0  0.76447  0.06028  0.06006  1.0000 1.6156762171
Al  Al3       1.0  0.76447  0.43972  0.56006  1.0000 1.6143087078
Al  Al4       1.0  0.23553  0.93972  0.93994  1.0000 1.6143087078
Al  Al5       1.0  0.50000  0.50000  0.50000  1.0000 1.633676939
Al  Al6       1.0  0.50000  0.00000  0.00000  1.0000 1.633676939
Al  Al7       1.0  0.00000  0.50000  0.50000  1.0000 1.633676939
Al  Al8       1.0  0.00000  0.00000  0.00000  1.0000 1.633676939
H   H1        1.0  0.32864  0.42410  0.49966  1.0000 0.4298105095
H   H2        1.0  0.18944  0.51196  0.59059  1.0000 0.4298105095
H   H3        1.0  0.71445  0.27405  0.81717  1.0000 0.1720256716
H   H4        1.0  0.40947  0.25751  0.85625  1.0000 0.2803308148
H   H5        1.0  0.08310  0.79206  0.25094  1.0000 0.1720256716
H   H6        1.0  0.78840  0.86846  0.28292  1.0000 0.2803308148
H   H7        1.0  0.67136  0.92410  0.00034  1.0000 0.4298105095
H   H8        1.0  0.81056  0.01196  0.90941  1.0000 0.4298105095
H   H9        1.0  0.28555  0.77405  0.68283  1.0000 0.1720256716
H   H10       1.0  0.59053  0.75751  0.64375  1.0000 0.2803308148
H   H11       1.0  0.91690  0.29206  0.24906  1.0000 0.1720256716
H   H12       1.0  0.21160  0.36846  0.21708  1.0000 0.2803308148
H   H13       1.0  0.67136  0.57590  0.50034  1.0000 0.4298105095
H   H14       1.0  0.81056  0.48804  0.40941  1.0000 0.4298105095
H   H15       1.0  0.28555  0.72595  0.18283  1.0000 0.1720256716
H   H16       1.0  0.59053  0.74249  0.14375  1.0000 0.2803308148
H   H17       1.0  0.91690  0.20794  0.74906  1.0000 0.1720256716
H   H18       1.0  0.21160  0.13154  0.71708  1.0000 0.2803308148
H   H19       1.0  0.32864  0.07590  0.99966  1.0000 0.4298105095
H   H20       1.0  0.18944  0.98804  0.09059  1.0000 0.4298105095
H   H21       1.0  0.71445  0.22595  0.31717  1.0000 0.1720256716
H   H22       1.0  0.40947  0.24249  0.35625  1.0000 0.2803308148
H   H23       1.0  0.08310  0.70794  0.75094  1.0000 0.1720256716
H   H24       1.0  0.78840  0.63154  0.78292  1.0000 0.2803308148
C   C1        1.0  0.59350  0.40020  0.67360  1.0000 0.6147156287
C   C2        1.0  0.56810  0.34260  0.75140  1.0000 0.0231272996
C   C3        1.0  0.02810  0.66080  0.38850  1.0000 0.6168062616
C   C4        1.0  0.63780  0.28290  0.81240  1.0000 -0.2276469019
C   C5        1.0  0.97500  0.74070  0.33660  1.0000 0.0311940391
C   C6        1.0  0.56960  0.23960  0.86410  1.0000 0.0231272996
C   C7        1.0  0.01470  0.79620  0.27050  1.0000 -0.2276469019
C   C8        1.0  0.59430  0.16450  0.93310  1.0000 0.5992784429
C   C9        1.0  0.93180  0.85790  0.24060  1.0000 0.0104684698
C   C10       1.0  0.91820  0.92980  0.16680  1.0000 0.5992784429
C   C11       1.0  0.40650  0.90020  0.82640  1.0000 0.6147156287
C   C12       1.0  0.43190  0.84260  0.74860  1.0000 0.0231272996
C   C13       1.0  0.97190  0.16080  0.11150  1.0000 0.6168062616
C   C14       1.0  0.36220  0.78290  0.68760  1.0000 -0.2276469019
C   C15       1.0  0.02500  0.24070  0.16340  1.0000 0.0311940391
C   C16       1.0  0.43040  0.73960  0.63590  1.0000 0.0231272996
C   C17       1.0  0.98530  0.29620  0.22950  1.0000 -0.2276469019
C   C18       1.0  0.40570  0.66450  0.56690  1.0000 0.5992784429
C   C19       1.0  0.06820  0.35790  0.25940  1.0000 0.0104684698
C   C20       1.0  0.08180  0.42980  0.33320  1.0000 0.5992784429
C   C21       1.0  0.40650  0.59980  0.32640  1.0000 0.6147156287
C   C22       1.0  0.43190  0.65740  0.24860  1.0000 0.0231272996
C   C23       1.0  0.97190  0.33920  0.61150  1.0000 0.6168062616
C   C24       1.0  0.36220  0.71710  0.18760  1.0000 -0.2276469019
C   C25       1.0  0.02500  0.25930  0.66340  1.0000 0.0311940391
C   C26       1.0  0.43040  0.76040  0.13590  1.0000 0.0231272996
C   C27       1.0  0.98530  0.20380  0.72950  1.0000 -0.2276469019
C   C28       1.0  0.40570  0.83550  0.06690  1.0000 0.5992784429
C   C29       1.0  0.06820  0.14210  0.75940  1.0000 0.0104684698
C   C30       1.0  0.08180  0.07020  0.83320  1.0000 0.5992784429
C   C31       1.0  0.59350  0.09980  0.17360  1.0000 0.6147156287
C   C32       1.0  0.56810  0.15740  0.25140  1.0000 0.0231272996
C   C33       1.0  0.02810  0.83920  0.88850  1.0000 0.6168062616
C   C34       1.0  0.63780  0.21710  0.31240  1.0000 -0.2276469019
C   C35       1.0  0.97500  0.75930  0.83660  1.0000 0.0311940391
C   C36       1.0  0.56960  0.26040  0.36410  1.0000 0.0231272996
C   C37       1.0  0.01470  0.70380  0.77050  1.0000 -0.2276469019
C   C38       1.0  0.59430  0.33550  0.43310  1.0000 0.5992784429
C   C39       1.0  0.93180  0.64210  0.74060  1.0000 0.0104684698
C   C40       1.0  0.91820  0.57020  0.66680  1.0000 0.5992784429
N   N1        1.0  0.46430  0.33920  0.76670  1.0000 -0.1923990023
N   N2        1.0  0.46720  0.27470  0.83420  1.0000 -0.0585005033
N   N3        1.0  0.87410  0.76670  0.34640  1.0000 -0.1923990023
N   N4        1.0  0.84980  0.83790  0.28900  1.0000 -0.0585005033
N   N5        1.0  0.53570  0.83920  0.73330  1.0000 -0.1923990023
N   N6        1.0  0.53280  0.77470  0.66580  1.0000 -0.0585005033
N   N7        1.0  0.12590  0.26670  0.15360  1.0000 -0.1923990023
N   N8        1.0  0.15020  0.33790  0.21100  1.0000 -0.0585005033
N   N9        1.0  0.53570  0.66080  0.23330  1.0000 -0.1923990023
N   N10       1.0  0.53280  0.72530  0.16580  1.0000 -0.0585005033
N   N11       1.0  0.12590  0.23330  0.65360  1.0000 -0.1923990023
N   N12       1.0  0.15020  0.16210  0.71100  1.0000 -0.0585005033
N   N13       1.0  0.46430  0.16080  0.26670  1.0000 -0.1923990023
N   N14       1.0  0.46720  0.22530  0.33420  1.0000 -0.0585005033
N   N15       1.0  0.87410  0.73330  0.84640  1.0000 -0.1923990023
N   N16       1.0  0.84980  0.66210  0.78900  1.0000 -0.0585005033
O   O1        1.0  0.34990  0.48174  0.48352  1.0000 -1.0119372379
O   O2        1.0  0.51780  0.45018  0.62796  1.0000 -0.5690377426
O   O3        1.0  0.48760  0.61854  0.55330  1.0000 -0.5909038257
O   O4        1.0  0.15090  0.52181  0.52545  1.0000 -1.0179433596
O   O5        1.0  0.16740  0.47765  0.34124  1.0000 -0.5833037269
O   O6        1.0  0.31010  0.60837  0.34352  1.0000 -0.5690377426
O   O7        1.0  0.30490  0.65106  0.52921  1.0000 -0.5523969304
O   O8        1.0  0.12880  0.64902  0.38587  1.0000 -0.5634744834
O   O9        1.0  0.00720  0.43683  0.38152  1.0000 -0.5523969304
O   O10       1.0  0.96970  0.61019  0.42910  1.0000 -0.5634744834
O   O11       1.0  0.65010  0.98174  0.01648  1.0000 -1.0119372379
O   O12       1.0  0.48220  0.95018  0.87204  1.0000 -0.5690377426
O   O13       1.0  0.51240  0.11854  0.94670  1.0000 -0.5909038257
O   O14       1.0  0.84910  0.02181  0.97455  1.0000 -1.0179433596
O   O15       1.0  0.83260  0.97765  0.15876  1.0000 -0.5833037269
O   O16       1.0  0.68990  0.10837  0.15648  1.0000 -0.5690377426
O   O17       1.0  0.69510  0.15106  0.97079  1.0000 -0.5523969304
O   O18       1.0  0.87120  0.14902  0.11413  1.0000 -0.5634744834
O   O19       1.0  0.99280  0.93683  0.11848  1.0000 -0.5523969304
O   O20       1.0  0.03030  0.11019  0.07090  1.0000 -0.5634744834
O   O21       1.0  0.65010  0.51826  0.51648  1.0000 -1.0119372379
O   O22       1.0  0.48220  0.54982  0.37204  1.0000 -0.5690377426
O   O23       1.0  0.51240  0.38146  0.44670  1.0000 -0.5909038257
O   O24       1.0  0.84910  0.47819  0.47455  1.0000 -1.0179433596
O   O25       1.0  0.83260  0.52235  0.65876  1.0000 -0.5833037269
O   O26       1.0  0.68990  0.39163  0.65648  1.0000 -0.5690377426
O   O27       1.0  0.69510  0.34894  0.47079  1.0000 -0.5523969304
O   O28       1.0  0.87120  0.35098  0.61413  1.0000 -0.5634744834
O   O29       1.0  0.99280  0.56317  0.61848  1.0000 -0.5523969304
O   O30       1.0  0.03030  0.38981  0.57090  1.0000 -0.5634744834
O   O31       1.0  0.34990  0.01826  0.98352  1.0000 -1.0119372379
O   O32       1.0  0.51780  0.04982  0.12796  1.0000 -0.5690377426
O   O33       1.0  0.48760  0.88146  0.05330  1.0000 -0.5909038257
O   O34       1.0  0.15090  0.97819  0.02545  1.0000 -1.0179433596
O   O35       1.0  0.16740  0.02235  0.84124  1.0000 -0.5833037269
O   O36       1.0  0.31010  0.89163  0.84352  1.0000 -0.5690377426
O   O37       1.0  0.30490  0.84894  0.02921  1.0000 -0.5523969304
O   O38       1.0  0.12880  0.85098  0.88587  1.0000 -0.5634744834
O   O39       1.0  0.00720  0.06317  0.88152  1.0000 -0.5523969304
O   O40       1.0  0.96970  0.88981  0.92910  1.0000 -0.5634744834
