# DDEC6 charges by PACMAN v1.1 (https://github.com/mtap-research/PACMAN-charge/)
data_2021[Co][llj]3[ASR]1
_chemical_formula_sum              "Co16 H96 C168 N8 O56"
_cell_length_a       23.5944
_cell_length_b       23.5944
_cell_length_c       15.037
_cell_angle_alpha    90
_cell_angle_beta     90
_cell_angle_gamma    90

_symmetry_space_group_name_H-M    "P 1"
_symmetry_Int_Tables_number       1

loop_
  _symmetry_equiv_pos_as_xyz
  'x, y, z'

loop_
  _atom_site_type_symbol
  _atom_site_label
  _atom_site_symmetry_multiplicity
  _atom_site_fract_x
  _atom_site_fract_y
  _atom_site_fract_z
  _atom_site_occupancy
  _atom_site_charge
Co  Co1       1.0  0.08235  0.03445  0.41468  1.0000 1.1440956604
Co  Co2       1.0  0.16078  0.96167  0.53896  1.0000 0.9663419586
Co  Co3       1.0  0.91765  0.96555  0.41468  1.0000 1.1472551834
Co  Co4       1.0  0.83922  0.03833  0.53896  1.0000 0.9663419586
Co  Co5       1.0  0.53445  0.41765  0.91468  1.0000 1.1440956604
Co  Co6       1.0  0.46167  0.33922  0.03896  1.0000 0.9663419586
Co  Co7       1.0  0.46555  0.58235  0.91468  1.0000 1.1440956604
Co  Co8       1.0  0.53833  0.66078  0.03896  1.0000 0.9663419586
Co  Co9       1.0  0.41765  0.46555  0.08532  1.0000 1.1440956604
Co  Co10      1.0  0.33922  0.53833  0.96104  1.0000 0.9663419586
Co  Co11      1.0  0.58235  0.53445  0.08532  1.0000 1.1440956604
Co  Co12      1.0  0.66078  0.46167  0.96104  1.0000 0.9663419586
Co  Co13      1.0  0.96555  0.08235  0.58532  1.0000 1.1440956604
Co  Co14      1.0  0.03833  0.16078  0.46104  1.0000 0.9663419586
Co  Co15      1.0  0.03445  0.91765  0.58532  1.0000 1.1440956604
Co  Co16      1.0  0.96167  0.83922  0.46104  1.0000 0.9663419586
H   H1        1.0  0.38858  0.25644  0.25890  1.0000 0.1231081094
H   H2        1.0  0.17603  0.18357  0.45010  1.0000 0.1301735302
H   H3        1.0  0.37639  0.41323  0.35706  1.0000 0.1231081094
H   H4        1.0  0.28063  0.09593  0.60628  1.0000 0.1231081094
H   H5        1.0  0.23618  0.26058  0.45870  1.0000 0.1301735302
H   H6        1.0  0.35748  0.22014  0.39187  1.0000 0.1301735302
H   H7        1.0  0.34028  0.17275  0.61635  1.0000 0.1301735302
H   H8        1.0  0.34602  0.37697  0.49039  1.0000 0.1301735302
H   H9        1.0  0.34007  0.28861  0.83118  1.0000 0.1231081094
H   H10       1.0  0.43196  0.31462  0.56482  1.0000 0.1301735302
H   H11       1.0  0.29560  0.26572  0.70128  1.0000 0.1231081094
H   H12       1.0  0.47688  0.33613  0.69683  1.0000 0.1301735302
H   H13       1.0  0.61142  0.74356  0.25890  1.0000 0.1231081094
H   H14       1.0  0.82397  0.81643  0.45010  1.0000 0.1301735302
H   H15       1.0  0.62361  0.58677  0.35706  1.0000 0.1231081094
H   H16       1.0  0.71937  0.90407  0.60628  1.0000 0.1231081094
H   H17       1.0  0.76382  0.73942  0.45870  1.0000 0.1301735302
H   H18       1.0  0.64252  0.77986  0.39187  1.0000 0.1301735302
H   H19       1.0  0.65972  0.82725  0.61635  1.0000 0.1301735302
H   H20       1.0  0.65398  0.62303  0.49039  1.0000 0.1301735302
H   H21       1.0  0.65993  0.71139  0.83118  1.0000 0.1231081094
H   H22       1.0  0.56804  0.68538  0.56482  1.0000 0.1301735302
H   H23       1.0  0.70440  0.73428  0.70128  1.0000 0.1231081094
H   H24       1.0  0.52312  0.66387  0.69683  1.0000 0.1301735302
H   H25       1.0  0.75644  0.11142  0.75890  1.0000 0.1231081094
H   H26       1.0  0.68357  0.32397  0.95010  1.0000 0.1301735302
H   H27       1.0  0.91323  0.12361  0.85706  1.0000 0.1231081094
H   H28       1.0  0.59593  0.21937  0.10628  1.0000 0.1231081094
H   H29       1.0  0.76058  0.26382  0.95870  1.0000 0.1301735302
H   H30       1.0  0.72014  0.14252  0.89187  1.0000 0.1301735302
H   H31       1.0  0.67275  0.15972  0.11635  1.0000 0.1301735302
H   H32       1.0  0.87697  0.15398  0.99039  1.0000 0.1301735302
H   H33       1.0  0.78861  0.15993  0.33118  1.0000 0.1231081094
H   H34       1.0  0.81462  0.06804  0.06482  1.0000 0.1301735302
H   H35       1.0  0.76572  0.20440  0.20128  1.0000 0.1231081094
H   H36       1.0  0.83613  0.02312  0.19683  1.0000 0.1301735302
H   H37       1.0  0.24356  0.88858  0.75890  1.0000 0.1231081094
H   H38       1.0  0.31643  0.67603  0.95010  1.0000 0.1301735302
H   H39       1.0  0.08677  0.87639  0.85706  1.0000 0.1231081094
H   H40       1.0  0.40407  0.78063  0.10628  1.0000 0.1231081094
H   H41       1.0  0.23942  0.73618  0.95870  1.0000 0.1301735302
H   H42       1.0  0.27986  0.85748  0.89187  1.0000 0.1301735302
H   H43       1.0  0.32725  0.84028  0.11635  1.0000 0.1301735302
H   H44       1.0  0.12303  0.84602  0.99039  1.0000 0.1301735302
H   H45       1.0  0.21139  0.84007  0.33118  1.0000 0.1231081094
H   H46       1.0  0.18538  0.93196  0.06482  1.0000 0.1301735302
H   H47       1.0  0.23428  0.79560  0.20128  1.0000 0.1301735302
H   H48       1.0  0.16387  0.97688  0.19683  1.0000 0.1301735302
H   H49       1.0  0.11142  0.24356  0.24110  1.0000 0.1231081094
H   H50       1.0  0.32397  0.31643  0.04990  1.0000 0.1301735302
H   H51       1.0  0.12361  0.08677  0.14294  1.0000 0.1231081094
H   H52       1.0  0.21937  0.40407  0.89372  1.0000 0.1231081094
H   H53       1.0  0.26382  0.23942  0.04130  1.0000 0.1301735302
H   H54       1.0  0.14252  0.27986  0.10813  1.0000 0.1301735302
H   H55       1.0  0.15972  0.32725  0.88365  1.0000 0.1301735302
H   H56       1.0  0.15398  0.12303  0.00961  1.0000 0.1301735302
H   H57       1.0  0.15993  0.21139  0.66882  1.0000 0.1231081094
H   H58       1.0  0.06804  0.18538  0.93518  1.0000 0.1301735302
H   H59       1.0  0.20440  0.23428  0.79872  1.0000 0.1301735302
H   H60       1.0  0.02312  0.16387  0.80317  1.0000 0.1301735302
H   H61       1.0  0.88858  0.75644  0.24110  1.0000 0.1231081094
H   H62       1.0  0.67603  0.68357  0.04990  1.0000 0.1301735302
H   H63       1.0  0.87639  0.91323  0.14294  1.0000 0.1231081094
H   H64       1.0  0.78063  0.59593  0.89372  1.0000 0.1231081094
H   H65       1.0  0.73618  0.76058  0.04130  1.0000 0.1301735302
H   H66       1.0  0.85748  0.72014  0.10813  1.0000 0.1301735302
H   H67       1.0  0.84028  0.67275  0.88365  1.0000 0.1301735302
H   H68       1.0  0.84602  0.87697  0.00961  1.0000 0.1301735302
H   H69       1.0  0.84007  0.78861  0.66882  1.0000 0.1231081094
H   H70       1.0  0.93196  0.81462  0.93518  1.0000 0.1301735302
H   H71       1.0  0.79560  0.76572  0.79872  1.0000 0.1231081094
H   H72       1.0  0.97688  0.83613  0.80317  1.0000 0.1301735302
H   H73       1.0  0.74356  0.38858  0.74110  1.0000 0.1231081094
H   H74       1.0  0.81643  0.17603  0.54990  1.0000 0.1301735302
H   H75       1.0  0.58677  0.37639  0.64294  1.0000 0.1231081094
H   H76       1.0  0.90407  0.28063  0.39372  1.0000 0.1231081094
H   H77       1.0  0.73942  0.23618  0.54130  1.0000 0.1301735302
H   H78       1.0  0.77986  0.35748  0.60813  1.0000 0.1301735302
H   H79       1.0  0.82725  0.34028  0.38365  1.0000 0.1301735302
H   H80       1.0  0.62303  0.34602  0.50961  1.0000 0.1301735302
H   H81       1.0  0.71139  0.34007  0.16882  1.0000 0.1231081094
H   H82       1.0  0.68538  0.43196  0.43518  1.0000 0.1301735302
H   H83       1.0  0.73428  0.29560  0.29872  1.0000 0.1231081094
H   H84       1.0  0.66387  0.47688  0.30317  1.0000 0.1301735302
H   H85       1.0  0.25644  0.61142  0.74110  1.0000 0.1231081094
H   H86       1.0  0.18357  0.82397  0.54990  1.0000 0.1301735302
H   H87       1.0  0.41323  0.62361  0.64294  1.0000 0.1231081094
H   H88       1.0  0.09593  0.71937  0.39372  1.0000 0.1231081094
H   H89       1.0  0.26058  0.76382  0.54130  1.0000 0.1301735302
H   H90       1.0  0.22014  0.64252  0.60813  1.0000 0.1301735302
H   H91       1.0  0.17275  0.65972  0.38365  1.0000 0.1301735302
H   H92       1.0  0.37697  0.65398  0.50961  1.0000 0.1301735302
H   H93       1.0  0.28861  0.65993  0.16882  1.0000 0.1231081094
H   H94       1.0  0.31462  0.56804  0.43518  1.0000 0.1301735302
H   H95       1.0  0.26572  0.70440  0.29872  1.0000 0.1231081094
H   H96       1.0  0.33613  0.52312  0.30317  1.0000 0.1301735302
C   C1        1.0  0.38690  0.33875  0.29370  1.0000 -0.0509332258
C   C2        1.0  0.40775  0.36149  0.20740  1.0000 0.5821076047
C   C3        1.0  0.22260  0.13120  0.52670  1.0000 -0.0442076323
C   C4        1.0  0.18450  0.08100  0.51790  1.0000 0.5914024126
C   C5        1.0  0.29470  0.22380  0.53660  1.0000 0.161918632
C   C6        1.0  0.38040  0.28090  0.30560  1.0000 -0.0876232787
C   C7        1.0  0.35010  0.29460  0.45570  1.0000 0.1715113551
C   C8        1.0  0.20930  0.18100  0.48300  1.0000 -0.080922125
C   C9        1.0  0.37320  0.37420  0.36410  1.0000 -0.0876232787
C   C10       1.0  0.27160  0.12910  0.57610  1.0000 -0.0876232787
C   C11       1.0  0.24530  0.22720  0.48820  1.0000 -0.1804082486
C   C12       1.0  0.36190  0.25910  0.38540  1.0000 -0.1874419561
C   C13       1.0  0.35960  0.28690  0.61830  1.0000 0.181520601
C   C14       1.0  0.30760  0.17490  0.58200  1.0000 -0.1804082486
C   C15       1.0  0.41200  0.31510  0.77730  1.0000 -0.0264821036
C   C16       1.0  0.35500  0.35250  0.44400  1.0000 -0.1874419561
C   C17       1.0  0.35890  0.29390  0.77740  1.0000 -0.0876232787
C   C18       1.0  0.41320  0.30870  0.61850  1.0000 -0.1874419561
C   C19       1.0  0.44150  0.33050  0.86240  1.0000 0.5687867414
C   C20       1.0  0.33230  0.28000  0.69980  1.0000 -0.1874419561
C   C21       1.0  0.44000  0.32220  0.69750  1.0000 -0.080922125
C   C22       1.0  0.61310  0.66125  0.29370  1.0000 -0.0509332258
C   C23       1.0  0.59225  0.63851  0.20740  1.0000 0.5821076047
C   C24       1.0  0.77740  0.86880  0.52670  1.0000 -0.0442076323
C   C25       1.0  0.81550  0.91900  0.51790  1.0000 0.5914024126
C   C26       1.0  0.70530  0.77620  0.53660  1.0000 0.161918632
C   C27       1.0  0.61960  0.71910  0.30560  1.0000 -0.0876232787
C   C28       1.0  0.64990  0.70540  0.45570  1.0000 0.1715113551
C   C29       1.0  0.79070  0.81900  0.48300  1.0000 -0.080922125
C   C30       1.0  0.62680  0.62580  0.36410  1.0000 -0.0876232787
C   C31       1.0  0.72840  0.87090  0.57610  1.0000 -0.080922125
C   C32       1.0  0.75470  0.77280  0.48820  1.0000 -0.1804082486
C   C33       1.0  0.63810  0.74090  0.38540  1.0000 -0.1874419561
C   C34       1.0  0.64040  0.71310  0.61830  1.0000 0.181520601
C   C35       1.0  0.69240  0.82510  0.58200  1.0000 -0.1804082486
C   C36       1.0  0.58800  0.68490  0.77730  1.0000 -0.0264821036
C   C37       1.0  0.64500  0.64750  0.44400  1.0000 -0.1874419561
C   C38       1.0  0.64110  0.70610  0.77740  1.0000 -0.0876232787
C   C39       1.0  0.58680  0.69130  0.61850  1.0000 -0.1874419561
C   C40       1.0  0.55850  0.66950  0.86240  1.0000 0.5687867414
C   C41       1.0  0.66770  0.72000  0.69980  1.0000 -0.1874419561
C   C42       1.0  0.56000  0.67780  0.69750  1.0000 -0.080922125
C   C43       1.0  0.83875  0.11310  0.79370  1.0000 -0.0509332258
C   C44       1.0  0.86149  0.09225  0.70740  1.0000 0.5821076047
C   C45       1.0  0.63120  0.27740  0.02670  1.0000 -0.0442076323
C   C46       1.0  0.58100  0.31550  0.01790  1.0000 0.5914024126
C   C47       1.0  0.72380  0.20530  0.03660  1.0000 0.161918632
C   C48       1.0  0.78090  0.11960  0.80560  1.0000 -0.080922125
C   C49       1.0  0.79460  0.14990  0.95570  1.0000 0.1715113551
C   C50       1.0  0.68100  0.29070  0.98300  1.0000 -0.080922125
C   C51       1.0  0.87420  0.12680  0.86410  1.0000 -0.0876232787
C   C52       1.0  0.62910  0.22840  0.07610  1.0000 -0.0876232787
C   C53       1.0  0.72720  0.25470  0.98820  1.0000 -0.1804082486
C   C54       1.0  0.75910  0.13810  0.88540  1.0000 -0.1874419561
C   C55       1.0  0.78690  0.14040  0.11830  1.0000 0.181520601
C   C56       1.0  0.67490  0.19240  0.08200  1.0000 -0.1804082486
C   C57       1.0  0.81510  0.08800  0.27730  1.0000 -0.0264821036
C   C58       1.0  0.85250  0.14500  0.94400  1.0000 -0.1874419561
C   C59       1.0  0.79390  0.14110  0.27740  1.0000 -0.0876232787
C   C60       1.0  0.80870  0.08680  0.11850  1.0000 -0.1874419561
C   C61       1.0  0.83050  0.05850  0.36240  1.0000 0.5687867414
C   C62       1.0  0.78000  0.16770  0.19980  1.0000 -0.1874419561
C   C63       1.0  0.82220  0.06000  0.19750  1.0000 -0.080922125
C   C64       1.0  0.16125  0.88690  0.79370  1.0000 -0.0509332258
C   C65       1.0  0.13851  0.90775  0.70740  1.0000 0.5821076047
C   C66       1.0  0.36880  0.72260  0.02670  1.0000 -0.0442076323
C   C67       1.0  0.41900  0.68450  0.01790  1.0000 0.5914024126
C   C68       1.0  0.27620  0.79470  0.03660  1.0000 0.161918632
C   C69       1.0  0.21910  0.88040  0.80560  1.0000 -0.080922125
C   C70       1.0  0.20540  0.85010  0.95570  1.0000 0.1715113551
C   C71       1.0  0.31900  0.70930  0.98300  1.0000 -0.080922125
C   C72       1.0  0.12580  0.87320  0.86410  1.0000 -0.0876232787
C   C73       1.0  0.37090  0.77160  0.07610  1.0000 -0.080922125
C   C74       1.0  0.27280  0.74530  0.98820  1.0000 -0.1804082486
C   C75       1.0  0.24090  0.86190  0.88540  1.0000 -0.1874419561
C   C76       1.0  0.21310  0.85960  0.11830  1.0000 0.181520601
C   C77       1.0  0.32510  0.80760  0.08200  1.0000 -0.1804082486
C   C78       1.0  0.18490  0.91200  0.27730  1.0000 -0.0264821036
C   C79       1.0  0.14750  0.85500  0.94400  1.0000 -0.1874419561
C   C80       1.0  0.20610  0.85890  0.27740  1.0000 -0.0876232787
C   C81       1.0  0.19130  0.91320  0.11850  1.0000 -0.1874419561
C   C82       1.0  0.16950  0.94150  0.36240  1.0000 0.5687867414
C   C83       1.0  0.22000  0.83230  0.19980  1.0000 -0.1874419561
C   C84       1.0  0.17780  0.94000  0.19750  1.0000 -0.080922125
C   C85       1.0  0.11310  0.16125  0.20630  1.0000 -0.0509332258
C   C86       1.0  0.09225  0.13851  0.29260  1.0000 0.5821076047
C   C87       1.0  0.27740  0.36880  0.97330  1.0000 -0.0442076323
C   C88       1.0  0.31550  0.41900  0.98210  1.0000 0.5914024126
C   C89       1.0  0.20530  0.27620  0.96340  1.0000 0.161918632
C   C90       1.0  0.11960  0.21910  0.19440  1.0000 -0.0876232787
C   C91       1.0  0.14990  0.20540  0.04430  1.0000 0.1715113551
C   C92       1.0  0.29070  0.31900  0.01700  1.0000 -0.080922125
C   C93       1.0  0.12680  0.12580  0.13590  1.0000 -0.0876232787
C   C94       1.0  0.22840  0.37090  0.92390  1.0000 -0.080922125
C   C95       1.0  0.25470  0.27280  0.01180  1.0000 -0.1804082486
C   C96       1.0  0.13810  0.24090  0.11460  1.0000 -0.1874419561
C   C97       1.0  0.14040  0.21310  0.88170  1.0000 0.181520601
C   C98       1.0  0.19240  0.32510  0.91800  1.0000 -0.1804082486
C   C99       1.0  0.08800  0.18490  0.72270  1.0000 -0.0264821036
C   C100      1.0  0.14500  0.14750  0.05600  1.0000 -0.1874419561
C   C101      1.0  0.14110  0.20610  0.72260  1.0000 -0.0876232787
C   C102      1.0  0.08680  0.19130  0.88150  1.0000 -0.1874419561
C   C103      1.0  0.05850  0.16950  0.63760  1.0000 0.5687867414
C   C104      1.0  0.16770  0.22000  0.80020  1.0000 -0.1874419561
C   C105      1.0  0.06000  0.17780  0.80250  1.0000 -0.080922125
C   C106      1.0  0.88690  0.83875  0.20630  1.0000 -0.0509332258
C   C107      1.0  0.90775  0.86149  0.29260  1.0000 0.5821076047
C   C108      1.0  0.72260  0.63120  0.97330  1.0000 -0.0442076323
C   C109      1.0  0.68450  0.58100  0.98210  1.0000 0.5914024126
C   C110      1.0  0.79470  0.72380  0.96340  1.0000 0.161918632
C   C111      1.0  0.88040  0.78090  0.19440  1.0000 -0.0876232787
C   C112      1.0  0.85010  0.79460  0.04430  1.0000 0.1715113551
C   C113      1.0  0.70930  0.68100  0.01700  1.0000 -0.080922125
C   C114      1.0  0.87320  0.87420  0.13590  1.0000 -0.0876232787
C   C115      1.0  0.77160  0.62910  0.92390  1.0000 -0.080922125
C   C116      1.0  0.74530  0.72720  0.01180  1.0000 -0.1804082486
C   C117      1.0  0.86190  0.75910  0.11460  1.0000 -0.1874419561
C   C118      1.0  0.85960  0.78690  0.88170  1.0000 0.181520601
C   C119      1.0  0.80760  0.67490  0.91800  1.0000 -0.1804082486
C   C120      1.0  0.91200  0.81510  0.72270  1.0000 -0.0264821036
C   C121      1.0  0.85500  0.85250  0.05600  1.0000 -0.1874419561
C   C122      1.0  0.85890  0.79390  0.72260  1.0000 -0.0876232787
C   C123      1.0  0.91320  0.80870  0.88150  1.0000 -0.1874419561
C   C124      1.0  0.94150  0.83050  0.63760  1.0000 0.5687867414
C   C125      1.0  0.83230  0.78000  0.80020  1.0000 -0.1874419561
C   C126      1.0  0.94000  0.82220  0.80250  1.0000 -0.080922125
C   C127      1.0  0.66125  0.38690  0.70630  1.0000 -0.0509332258
C   C128      1.0  0.63851  0.40775  0.79260  1.0000 0.5821076047
C   C129      1.0  0.86880  0.22260  0.47330  1.0000 -0.0442076323
C   C130      1.0  0.91900  0.18450  0.48210  1.0000 0.5914024126
C   C131      1.0  0.77620  0.29470  0.46340  1.0000 0.161918632
C   C132      1.0  0.71910  0.38040  0.69440  1.0000 -0.0876232787
C   C133      1.0  0.70540  0.35010  0.54430  1.0000 0.1715113551
C   C134      1.0  0.81900  0.20930  0.51700  1.0000 -0.080922125
C   C135      1.0  0.62580  0.37320  0.63590  1.0000 -0.0876232787
C   C136      1.0  0.87090  0.27160  0.42390  1.0000 -0.080922125
C   C137      1.0  0.77280  0.24530  0.51180  1.0000 -0.1804082486
C   C138      1.0  0.74090  0.36190  0.61460  1.0000 -0.1874419561
C   C139      1.0  0.71310  0.35960  0.38170  1.0000 0.181520601
C   C140      1.0  0.82510  0.30760  0.41800  1.0000 -0.1804082486
C   C141      1.0  0.68490  0.41200  0.22270  1.0000 -0.0264821036
C   C142      1.0  0.64750  0.35500  0.55600  1.0000 -0.1874419561
C   C143      1.0  0.70610  0.35890  0.22260  1.0000 -0.0876232787
C   C144      1.0  0.69130  0.41320  0.38150  1.0000 -0.1874419561
C   C145      1.0  0.66950  0.44150  0.13760  1.0000 0.5687867414
C   C146      1.0  0.72000  0.33230  0.30020  1.0000 -0.1874419561
C   C147      1.0  0.67780  0.44000  0.30250  1.0000 -0.080922125
C   C148      1.0  0.33875  0.61310  0.70630  1.0000 -0.0509332258
C   C149      1.0  0.36149  0.59225  0.79260  1.0000 0.5821076047
C   C150      1.0  0.13120  0.77740  0.47330  1.0000 -0.0442076323
C   C151      1.0  0.08100  0.81550  0.48210  1.0000 0.5914024126
C   C152      1.0  0.22380  0.70530  0.46340  1.0000 0.161918632
C   C153      1.0  0.28090  0.61960  0.69440  1.0000 -0.0876232787
C   C154      1.0  0.29460  0.64990  0.54430  1.0000 0.1715113551
C   C155      1.0  0.18100  0.79070  0.51700  1.0000 -0.080922125
C   C156      1.0  0.37420  0.62680  0.63590  1.0000 -0.0876232787
C   C157      1.0  0.12910  0.72840  0.42390  1.0000 -0.080922125
C   C158      1.0  0.22720  0.75470  0.51180  1.0000 -0.1804082486
C   C159      1.0  0.25910  0.63810  0.61460  1.0000 -0.1874419561
C   C160      1.0  0.28690  0.64040  0.38170  1.0000 0.181520601
C   C161      1.0  0.17490  0.69240  0.41800  1.0000 -0.1804082486
C   C162      1.0  0.31510  0.58800  0.22270  1.0000 -0.0264821036
C   C163      1.0  0.35250  0.64500  0.55600  1.0000 -0.1874419561
C   C164      1.0  0.29390  0.64110  0.22260  1.0000 -0.0876232787
C   C165      1.0  0.30870  0.58680  0.38150  1.0000 -0.1874419561
C   C166      1.0  0.33050  0.55850  0.13760  1.0000 0.5687867414
C   C167      1.0  0.28000  0.66770  0.30020  1.0000 -0.1874419561
C   C168      1.0  0.32220  0.56000  0.30250  1.0000 -0.080922125
N   N1        1.0  0.33230  0.27170  0.53840  1.0000 -0.1804082486
N   N2        1.0  0.66770  0.72830  0.53840  1.0000 -0.1804082486
N   N3        1.0  0.77170  0.16770  0.03840  1.0000 -0.1804082486
N   N4        1.0  0.22830  0.83230  0.03840  1.0000 -0.1748960901
N   N5        1.0  0.16770  0.22830  0.96160  1.0000 -0.1804082486
N   N6        1.0  0.83230  0.77170  0.96160  1.0000 -0.1804082486
N   N7        1.0  0.72830  0.33230  0.46160  1.0000 -0.1804082486
N   N8        1.0  0.27170  0.66770  0.46160  1.0000 -0.1804082486
O   O1        1.0  0.07998  0.98410  0.53209  1.0000 -0.828230894
O   O2        1.0  0.13953  0.08679  0.47500  1.0000 -0.5534139264
O   O3        1.0  0.20087  0.03507  0.55360  1.0000 -0.5315158852
O   O4        1.0  0.42215  0.31373  0.93273  1.0000 -0.4722999174
O   O5        1.0  0.48410  0.36000  0.85770  1.0000 -0.5193432036
O   O6        1.0  0.41204  0.41408  0.19879  1.0000 -0.538984685
O   O7        1.0  0.42183  0.32533  0.14992  1.0000 -0.538984685
O   O8        1.0  0.92002  0.01590  0.53209  1.0000 -0.828230894
O   O9        1.0  0.86047  0.91321  0.47500  1.0000 -0.5534139264
O   O10       1.0  0.79913  0.96493  0.55360  1.0000 -0.5315158852
O   O11       1.0  0.57785  0.68627  0.93273  1.0000 -0.4722999174
O   O12       1.0  0.51590  0.64000  0.85770  1.0000 -0.5193432036
O   O13       1.0  0.58796  0.58592  0.19879  1.0000 -0.538984685
O   O14       1.0  0.57817  0.67467  0.14992  1.0000 -0.538984685
O   O15       1.0  0.48410  0.42002  0.03209  1.0000 -0.828230894
O   O16       1.0  0.58679  0.36047  0.97500  1.0000 -0.5534139264
O   O17       1.0  0.53507  0.29913  0.05360  1.0000 -0.5315158852
O   O18       1.0  0.81373  0.07785  0.43273  1.0000 -0.4722999174
O   O19       1.0  0.86000  0.01590  0.35770  1.0000 -0.5193432036
O   O20       1.0  0.91408  0.08796  0.69879  1.0000 -0.538984685
O   O21       1.0  0.82533  0.07817  0.64992  1.0000 -0.5315158852
O   O22       1.0  0.51590  0.57998  0.03209  1.0000 -0.828230894
O   O23       1.0  0.41321  0.63953  0.97500  1.0000 -0.5534139264
O   O24       1.0  0.46493  0.70087  0.05360  1.0000 -0.5315158852
O   O25       1.0  0.18627  0.92215  0.43273  1.0000 -0.4722999174
O   O26       1.0  0.14000  0.98410  0.35770  1.0000 -0.5193432036
O   O27       1.0  0.08592  0.91204  0.69879  1.0000 -0.538984685
O   O28       1.0  0.17467  0.92183  0.64992  1.0000 -0.5315158852
O   O29       1.0  0.42002  0.51590  0.96791  1.0000 -0.828230894
O   O30       1.0  0.36047  0.41321  0.02500  1.0000 -0.5534139264
O   O31       1.0  0.29913  0.46493  0.94640  1.0000 -0.5315158852
O   O32       1.0  0.07785  0.18627  0.56727  1.0000 -0.4722999174
O   O33       1.0  0.01590  0.14000  0.64230  1.0000 -0.5193432036
O   O34       1.0  0.08796  0.08592  0.30121  1.0000 -0.538984685
O   O35       1.0  0.07817  0.17467  0.35008  1.0000 -0.538984685
O   O36       1.0  0.57998  0.48410  0.96791  1.0000 -0.828230894
O   O37       1.0  0.63953  0.58679  0.02500  1.0000 -0.5534139264
O   O38       1.0  0.70087  0.53507  0.94640  1.0000 -0.5315158852
O   O39       1.0  0.92215  0.81373  0.56727  1.0000 -0.4722999174
O   O40       1.0  0.98410  0.86000  0.64230  1.0000 -0.5193432036
O   O41       1.0  0.91204  0.91408  0.30121  1.0000 -0.538984685
O   O42       1.0  0.92183  0.82533  0.35008  1.0000 -0.5315158852
O   O43       1.0  0.01590  0.07998  0.46791  1.0000 -0.828230894
O   O44       1.0  0.91321  0.13953  0.52500  1.0000 -0.5534139264
O   O45       1.0  0.96493  0.20087  0.44640  1.0000 -0.5315158852
O   O46       1.0  0.68627  0.42215  0.06727  1.0000 -0.4722999174
O   O47       1.0  0.64000  0.48410  0.14230  1.0000 -0.5193432036
O   O48       1.0  0.58592  0.41204  0.80121  1.0000 -0.538984685
O   O49       1.0  0.67467  0.42183  0.85008  1.0000 -0.538984685
O   O50       1.0  0.98410  0.92002  0.46791  1.0000 -0.828230894
O   O51       1.0  0.08679  0.86047  0.52500  1.0000 -0.5534139264
O   O52       1.0  0.03507  0.79913  0.44640  1.0000 -0.5315158852
O   O53       1.0  0.31373  0.57785  0.06727  1.0000 -0.4722999174
O   O54       1.0  0.36000  0.51590  0.14230  1.0000 -0.5193432036
O   O55       1.0  0.41408  0.58796  0.80121  1.0000 -0.538984685
O   O56       1.0  0.32533  0.57817  0.85008  1.0000 -0.5315158852
