# DDEC6 charges by PACMAN v1.1 (https://github.com/mtap-research/PACMAN-charge/)
data_2021[Al][nan]3[ASR]21
_chemical_formula_sum              "Al8 H24 C40 N16 O40"
_cell_length_a       11.701
_cell_length_b       16.78
_cell_length_c       12.222
_cell_angle_alpha    90
_cell_angle_beta     105.01
_cell_angle_gamma    90

_symmetry_space_group_name_H-M    "P 1"
_symmetry_Int_Tables_number       1

loop_
  _symmetry_equiv_pos_as_xyz
  'x, y, z'

loop_
  _atom_site_type_symbol
  _atom_site_label
  _atom_site_symmetry_multiplicity
  _atom_site_fract_x
  _atom_site_fract_y
  _atom_site_fract_z
  _atom_site_occupancy
  _atom_site_charge
Al  Al1       1.0  0.59260  0.54570  0.77420  1.0000 1.6228217111
Al  Al2       1.0  0.90740  0.04570  0.22580  1.0000 1.6228217111
Al  Al3       1.0  0.40740  0.45430  0.22580  1.0000 1.6228217111
Al  Al4       1.0  0.09260  0.95430  0.77420  1.0000 1.6228217111
Al  Al5       1.0  0.50000  0.50000  0.00000  1.0000 1.6228217111
Al  Al6       1.0  0.00000  0.00000  0.00000  1.0000 1.6228217111
Al  Al7       1.0  0.50000  0.50000  0.50000  1.0000 1.6363893772
Al  Al8       1.0  0.00000  0.00000  0.50000  1.0000 1.6363893772
H   H1        1.0  0.40207  0.51012  0.80322  1.0000 0.4262802552
H   H2        1.0  0.52369  0.42467  0.67177  1.0000 0.4240822966
H   H3        1.0  0.76977  0.78157  0.92125  1.0000 0.1718752558
H   H4        1.0  0.68327  0.85239  0.18966  1.0000 0.2908670108
H   H5        1.0  0.65780  0.69442  0.42144  1.0000 0.2908670108
H   H6        1.0  0.88355  0.72065  0.71997  1.0000 0.1718752558
H   H7        1.0  0.09793  0.01012  0.19678  1.0000 0.4262802552
H   H8        1.0  0.97631  0.92467  0.32823  1.0000 0.4240822966
H   H9        1.0  0.73023  0.28157  0.07875  1.0000 0.1718752558
H   H10       1.0  0.81673  0.35239  0.81034  1.0000 0.2908670108
H   H11       1.0  0.84220  0.19442  0.57856  1.0000 0.2908670108
H   H12       1.0  0.61645  0.22065  0.28003  1.0000 0.1718752558
H   H13       1.0  0.59793  0.48988  0.19678  1.0000 0.4262802552
H   H14       1.0  0.47631  0.57533  0.32823  1.0000 0.4240822966
H   H15       1.0  0.23023  0.21843  0.07875  1.0000 0.1718752558
H   H16       1.0  0.31673  0.14761  0.81034  1.0000 0.2908670108
H   H17       1.0  0.34220  0.30558  0.57856  1.0000 0.2908670108
H   H18       1.0  0.11645  0.27935  0.28003  1.0000 0.1718752558
H   H19       1.0  0.90207  0.98988  0.80322  1.0000 0.4262802552
H   H20       1.0  0.02369  0.07533  0.67177  1.0000 0.4240822966
H   H21       1.0  0.26977  0.71843  0.92125  1.0000 0.1718752558
H   H22       1.0  0.18327  0.64761  0.18966  1.0000 0.2908670108
H   H23       1.0  0.15780  0.80558  0.42144  1.0000 0.2908670108
H   H24       1.0  0.38355  0.77935  0.71997  1.0000 0.1718752558
C   C1        1.0  0.63940  0.63910  0.98200  1.0000 0.6029838945
C   C2        1.0  0.67520  0.71840  0.02600  1.0000 0.0272993578
C   C3        1.0  0.69600  0.60300  0.60200  1.0000 0.6110191072
C   C4        1.0  0.73990  0.78240  0.98500  1.0000 -0.2300734383
C   C5        1.0  0.75810  0.67650  0.58300  1.0000 0.0220643419
C   C6        1.0  0.74640  0.84420  0.06200  1.0000 0.0490675202
C   C7        1.0  0.84020  0.72780  0.64500  1.0000 -0.2300734383
C   C8        1.0  0.80500  0.92100  0.06900  1.0000 0.5831745441
C   C9        1.0  0.84700  0.79120  0.57800  1.0000 0.0272993578
C   C10       1.0  0.91900  0.86370  0.60100  1.0000 0.6110191072
C   C11       1.0  0.86060  0.13910  0.01800  1.0000 0.6029838945
C   C12       1.0  0.82480  0.21840  0.97400  1.0000 0.0272993578
C   C13       1.0  0.80400  0.10300  0.39800  1.0000 0.6110191072
C   C14       1.0  0.76010  0.28240  0.01500  1.0000 -0.2300734383
C   C15       1.0  0.74190  0.17650  0.41700  1.0000 0.0220643419
C   C16       1.0  0.75360  0.34420  0.93800  1.0000 0.0490675202
C   C17       1.0  0.65980  0.22780  0.35500  1.0000 -0.2300734383
C   C18       1.0  0.69500  0.42100  0.93100  1.0000 0.5831745441
C   C19       1.0  0.65300  0.29120  0.42200  1.0000 0.0272993578
C   C20       1.0  0.58100  0.36370  0.39900  1.0000 0.6110191072
C   C21       1.0  0.36060  0.36090  0.01800  1.0000 0.6029838945
C   C22       1.0  0.32480  0.28160  0.97400  1.0000 0.0272993578
C   C23       1.0  0.30400  0.39700  0.39800  1.0000 0.6110191072
C   C24       1.0  0.26010  0.21760  0.01500  1.0000 -0.2300734383
C   C25       1.0  0.24190  0.32350  0.41700  1.0000 0.0220643419
C   C26       1.0  0.25360  0.15580  0.93800  1.0000 0.0490675202
C   C27       1.0  0.15980  0.27220  0.35500  1.0000 -0.2300734383
C   C28       1.0  0.19500  0.07900  0.93100  1.0000 0.5831745441
C   C29       1.0  0.15300  0.20880  0.42200  1.0000 0.0272993578
C   C30       1.0  0.08100  0.13630  0.39900  1.0000 0.6110191072
C   C31       1.0  0.13940  0.86090  0.98200  1.0000 0.6029838945
C   C32       1.0  0.17520  0.78160  0.02600  1.0000 0.0272993578
C   C33       1.0  0.19600  0.89700  0.60200  1.0000 0.6110191072
C   C34       1.0  0.23990  0.71760  0.98500  1.0000 -0.2300734383
C   C35       1.0  0.25810  0.82350  0.58300  1.0000 0.0220643419
C   C36       1.0  0.24640  0.65580  0.06200  1.0000 0.0490675202
C   C37       1.0  0.34020  0.77220  0.64500  1.0000 -0.2300734383
C   C38       1.0  0.30500  0.57900  0.06900  1.0000 0.5831745441
C   C39       1.0  0.34700  0.70880  0.57800  1.0000 0.0272993578
C   C40       1.0  0.41900  0.63630  0.60100  1.0000 0.6110191072
N   N1        1.0  0.64140  0.74640  0.11500  1.0000 -0.2151909445
N   N2        1.0  0.69020  0.82270  0.13400  1.0000 -0.0545646262
N   N3        1.0  0.71290  0.71300  0.47600  1.0000 -0.0775738389
N   N4        1.0  0.77180  0.78230  0.47600  1.0000 -0.191315451
N   N5        1.0  0.85860  0.24640  0.88500  1.0000 -0.2148255084
N   N6        1.0  0.80980  0.32270  0.86600  1.0000 -0.0563860771
N   N7        1.0  0.78710  0.21300  0.52400  1.0000 -0.0775738389
N   N8        1.0  0.72820  0.28230  0.52400  1.0000 -0.191315451
N   N9        1.0  0.35860  0.25360  0.88500  1.0000 -0.2148255084
N   N10       1.0  0.30980  0.17730  0.86600  1.0000 -0.0563860771
N   N11       1.0  0.28710  0.28700  0.52400  1.0000 -0.0775738389
N   N12       1.0  0.22820  0.21770  0.52400  1.0000 -0.191315451
N   N13       1.0  0.14140  0.75360  0.11500  1.0000 -0.2151909445
N   N14       1.0  0.19020  0.67730  0.13400  1.0000 -0.0563860771
N   N15       1.0  0.21290  0.78700  0.47600  1.0000 -0.0775738389
N   N16       1.0  0.27180  0.71770  0.47600  1.0000 -0.191315451
O   O1        1.0  0.47870  0.51680  0.84850  1.0000 -1.0209001426
O   O2        1.0  0.63730  0.43610  0.00300  1.0000 -0.5594515576
O   O3        1.0  0.58780  0.59640  0.03150  1.0000 -0.526103956
O   O4        1.0  0.49600  0.63200  0.69140  1.0000 -0.5496946846
O   O5        1.0  0.53570  0.47720  0.65310  1.0000 -1.0209001426
O   O6        1.0  0.69850  0.46650  0.85200  1.0000 -0.5594515576
O   O7        1.0  0.65820  0.62340  0.88750  1.0000 -0.5594515576
O   O8        1.0  0.71820  0.58090  0.70920  1.0000 -0.595066068
O   O9        1.0  0.40510  0.58630  0.51800  1.0000 -0.5943068241
O   O10       1.0  0.62840  0.57160  0.51880  1.0000 -0.577089784
O   O11       1.0  0.02130  0.01680  0.15150  1.0000 -1.0209001426
O   O12       1.0  0.86270  0.93610  0.99700  1.0000 -0.5594515576
O   O13       1.0  0.91220  0.09640  0.96850  1.0000 -0.526103956
O   O14       1.0  0.00400  0.13200  0.30860  1.0000 -0.5496946846
O   O15       1.0  0.96430  0.97720  0.34690  1.0000 -1.0209001426
O   O16       1.0  0.80150  0.96650  0.14800  1.0000 -0.5594515576
O   O17       1.0  0.84180  0.12340  0.11250  1.0000 -0.5594515576
O   O18       1.0  0.78180  0.08090  0.29080  1.0000 -0.5943068241
O   O19       1.0  0.09490  0.08630  0.48200  1.0000 -0.5943068241
O   O20       1.0  0.87160  0.07160  0.48120  1.0000 -0.577089784
O   O21       1.0  0.52130  0.48320  0.15150  1.0000 -1.0209001426
O   O22       1.0  0.36270  0.56390  0.99700  1.0000 -0.5594515576
O   O23       1.0  0.41220  0.40360  0.96850  1.0000 -0.526103956
O   O24       1.0  0.50400  0.36800  0.30860  1.0000 -0.5496946846
O   O25       1.0  0.46430  0.52280  0.34690  1.0000 -1.0209001426
O   O26       1.0  0.30150  0.53350  0.14800  1.0000 -0.5594515576
O   O27       1.0  0.34180  0.37660  0.11250  1.0000 -0.5594515576
O   O28       1.0  0.28180  0.41910  0.29080  1.0000 -0.595066068
O   O29       1.0  0.59490  0.41370  0.48200  1.0000 -0.5943068241
O   O30       1.0  0.37160  0.42840  0.48120  1.0000 -0.577089784
O   O31       1.0  0.97870  0.98320  0.84850  1.0000 -1.0209001426
O   O32       1.0  0.13730  0.06390  0.00300  1.0000 -0.5594515576
O   O33       1.0  0.08780  0.90360  0.03150  1.0000 -0.526103956
O   O34       1.0  0.99600  0.86800  0.69140  1.0000 -0.5496946846
O   O35       1.0  0.03570  0.02280  0.65310  1.0000 -1.0209001426
O   O36       1.0  0.19850  0.03350  0.85200  1.0000 -0.5594515576
O   O37       1.0  0.15820  0.87660  0.88750  1.0000 -0.5594515576
O   O38       1.0  0.21820  0.91910  0.70920  1.0000 -0.595066068
O   O39       1.0  0.90510  0.91370  0.51800  1.0000 -0.5943068241
O   O40       1.0  0.12840  0.92840  0.51880  1.0000 -0.577089784
