# DDEC6 charges by PACMAN v1.1 (https://github.com/mtap-research/PACMAN-charge/)
data_2021[Nd][nan]3[ASR]1
_chemical_formula_sum              "Nd3 H20 C48 O24"
_cell_length_a       11.667
_cell_length_b       12.2513
_cell_length_c       13.6783
_cell_angle_alpha    114.914
_cell_angle_beta     110.85
_cell_angle_gamma    88.083

_symmetry_space_group_name_H-M    "P 1"
_symmetry_Int_Tables_number       1

loop_
  _symmetry_equiv_pos_as_xyz
  'x, y, z'

loop_
  _atom_site_type_symbol
  _atom_site_label
  _atom_site_symmetry_multiplicity
  _atom_site_fract_x
  _atom_site_fract_y
  _atom_site_fract_z
  _atom_site_occupancy
  _atom_site_charge
Nd  Nd1       1.0  0.57180  0.67085  0.82673  1.0000 2.0992347234
Nd  Nd2       1.0  0.42820  0.32915  0.17327  1.0000 2.0992347234
Nd  Nd3       1.0  0.50000  0.50000  0.00000  1.0000 2.0700651639
H   H1        1.0  0.11800  0.29300  0.17600  1.0000 0.361731463
H   H2        1.0  0.09450  0.95120  0.15490  1.0000 0.1279397355
H   H3        1.0  0.27100  0.67040  0.02840  1.0000 0.1170234912
H   H4        1.0  0.35760  0.99190  0.04340  1.0000 0.1482545816
H   H5        1.0  0.51190  0.60410  0.41560  1.0000 0.1383300557
H   H6        1.0  0.51570  0.94630  0.64110  1.0000 0.1279397355
H   H7        1.0  0.49650  0.87690  0.32370  1.0000 0.1279397355
H   H8        1.0  0.93230  0.77410  0.06760  1.0000 0.1383300557
H   H9        1.0  0.24160  0.63130  0.17280  1.0000 0.1279397355
H   H10       1.0  0.92040  0.49760  0.14970  1.0000 0.1383300557
H   H11       1.0  0.88200  0.70700  0.82400  1.0000 0.361731463
H   H12       1.0  0.90550  0.04880  0.84510  1.0000 0.1279397355
H   H13       1.0  0.72900  0.32960  0.97160  1.0000 0.1170234912
H   H14       1.0  0.64240  0.00810  0.95660  1.0000 0.1482545816
H   H15       1.0  0.48810  0.39590  0.58440  1.0000 0.1383300557
H   H16       1.0  0.48430  0.05370  0.35890  1.0000 0.1279397355
H   H17       1.0  0.50350  0.12310  0.67630  1.0000 0.1279397355
H   H18       1.0  0.06770  0.22590  0.93240  1.0000 0.1383300557
H   H19       1.0  0.75840  0.36870  0.82720  1.0000 0.1279397355
H   H20       1.0  0.07960  0.50240  0.85030  1.0000 0.1383300557
C   C1        1.0  0.76790  0.62510  0.06610  1.0000 0.6280271196
C   C2        1.0  0.15120  0.45030  0.19180  1.0000 0.6212953561
C   C3        1.0  0.41920  0.77070  0.97080  1.0000 0.6280271196
C   C4        1.0  0.20460  0.12110  0.13000  1.0000 0.6046964758
C   C5        1.0  0.50670  0.64580  0.23630  1.0000 0.6079076761
C   C6        1.0  0.52880  0.73030  0.63580  1.0000 0.5724438661
C   C7        1.0  0.15370  0.91880  0.12380  1.0000 -0.1417970686
C   C8        1.0  0.17120  0.79810  0.09800  1.0000 0.0720975538
C   C9        1.0  0.25910  0.75120  0.04800  1.0000 -0.1417970686
C   C10       1.0  0.32830  0.82310  0.02740  1.0000 -0.0051739263
C   C11       1.0  0.31060  0.94310  0.05610  1.0000 -0.0933414167
C   C12       1.0  0.22280  0.99130  0.10380  1.0000 -0.0231403663
C   C13       1.0  0.51040  0.68610  0.43340  1.0000 -0.1000104488
C   C14       1.0  0.50300  0.72730  0.35100  1.0000 -0.0297268918
C   C15       1.0  0.51540  0.76890  0.54210  1.0000 0.0094551807
C   C16       1.0  0.51170  0.89170  0.56740  1.0000 -0.1417970686
C   C17       1.0  0.50210  0.93500  0.48640  1.0000 0.0720975538
C   C18       1.0  0.50010  0.85040  0.37910  1.0000 -0.1417970686
C   C19       1.0  0.97240  0.71850  0.09280  1.0000 -0.1315789289
C   C20       1.0  0.09030  0.54920  0.16560  1.0000 -0.0412048614
C   C21       1.0  0.15700  0.63240  0.15510  1.0000 -0.1315789289
C   C22       1.0  0.09970  0.71800  0.11860  1.0000 0.0774318249
C   C23       1.0  0.90580  0.63630  0.10470  1.0000 -0.0231403663
C   C24       1.0  0.96530  0.55220  0.14140  1.0000 -0.1000104488
C   C25       1.0  0.23210  0.37490  0.93390  1.0000 0.6280271196
C   C26       1.0  0.84880  0.54970  0.80820  1.0000 0.6212953561
C   C27       1.0  0.58080  0.22930  0.02920  1.0000 0.6280271196
C   C28       1.0  0.79540  0.87890  0.87000  1.0000 0.6046964758
C   C29       1.0  0.49330  0.35420  0.76370  1.0000 0.6079076761
C   C30       1.0  0.47120  0.26970  0.36420  1.0000 0.5724438661
C   C31       1.0  0.84630  0.08120  0.87620  1.0000 -0.1417970686
C   C32       1.0  0.82880  0.20190  0.90200  1.0000 0.0720975538
C   C33       1.0  0.74090  0.24880  0.95200  1.0000 -0.1417970686
C   C34       1.0  0.67170  0.17690  0.97260  1.0000 -0.0051739263
C   C35       1.0  0.68940  0.05690  0.94390  1.0000 -0.0933414167
C   C36       1.0  0.77720  0.00870  0.89620  1.0000 -0.0231403663
C   C37       1.0  0.48960  0.31390  0.56660  1.0000 -0.1000104488
C   C38       1.0  0.49700  0.27270  0.64900  1.0000 -0.0297268918
C   C39       1.0  0.48460  0.23110  0.45790  1.0000 0.0094551807
C   C40       1.0  0.48830  0.10830  0.43260  1.0000 -0.1417970686
C   C41       1.0  0.49790  0.06500  0.51360  1.0000 0.0720975538
C   C42       1.0  0.49990  0.14960  0.62090  1.0000 -0.1417970686
C   C43       1.0  0.02760  0.28150  0.90720  1.0000 -0.1315789289
C   C44       1.0  0.90970  0.45080  0.83440  1.0000 -0.0412048614
C   C45       1.0  0.84300  0.36760  0.84490  1.0000 -0.1315789289
C   C46       1.0  0.90030  0.28200  0.88140  1.0000 0.0774318249
C   C47       1.0  0.09420  0.36370  0.89530  1.0000 -0.0231403663
C   C48       1.0  0.03470  0.44780  0.85860  1.0000 -0.1050312957
O   O1        1.0  0.71640  0.54720  0.07990  1.0000 -0.6316776043
O   O2        1.0  0.70830  0.68730  0.01820  1.0000 -0.64051821
O   O3        1.0  0.08030  0.37110  0.19060  1.0000 -0.4341176516
O   O4        1.0  0.26230  0.44700  0.20920  1.0000 -0.6028125948
O   O5        1.0  0.43220  0.65930  0.94220  1.0000 -0.7377618915
O   O6        1.0  0.47530  0.83400  0.94600  1.0000 -0.5721294648
O   O7        1.0  0.25840  0.17570  0.09630  1.0000 -0.6509626276
O   O8        1.0  0.13570  0.16920  0.18530  1.0000 -0.5163559384
O   O9        1.0  0.47690  0.53250  0.19200  1.0000 -0.7233756548
O   O10       1.0  0.52920  0.69090  0.17710  1.0000 -0.5721294648
O   O11       1.0  0.56190  0.62960  0.62690  1.0000 -0.6105410821
O   O12       1.0  0.50500  0.80290  0.72290  1.0000 -0.64051821
O   O13       1.0  0.28360  0.45280  0.92010  1.0000 -0.6316776043
O   O14       1.0  0.29170  0.31270  0.98180  1.0000 -0.64051821
O   O15       1.0  0.91970  0.62890  0.80940  1.0000 -0.4341176516
O   O16       1.0  0.73770  0.55300  0.79080  1.0000 -0.6028125948
O   O17       1.0  0.56780  0.34070  0.05780  1.0000 -0.7377618915
O   O18       1.0  0.52470  0.16600  0.05400  1.0000 -0.5721294648
O   O19       1.0  0.74160  0.82430  0.90370  1.0000 -0.6509626276
O   O20       1.0  0.86430  0.83080  0.81470  1.0000 -0.5163559384
O   O21       1.0  0.52310  0.46750  0.80800  1.0000 -0.7233756548
O   O22       1.0  0.47080  0.30910  0.82290  1.0000 -0.5721294648
O   O23       1.0  0.43810  0.37040  0.37310  1.0000 -0.6105410821
O   O24       1.0  0.49500  0.19710  0.27710  1.0000 -0.64051821
