# DDEC6 charges by PACMAN v1.1 (https://github.com/mtap-research/PACMAN-charge/)
data_2021[Ce][nan]3[ASR]2
_chemical_formula_sum              "Ce6 H126 C162 N18 O36"
_cell_length_a       27.9884
_cell_length_b       27.9884
_cell_length_c       27.9884
_cell_angle_alpha    117.804
_cell_angle_beta     117.804
_cell_angle_gamma    117.804

_symmetry_space_group_name_H-M    "P 1"
_symmetry_Int_Tables_number       1

loop_
  _symmetry_equiv_pos_as_xyz
  'x, y, z'

loop_
  _atom_site_type_symbol
  _atom_site_label
  _atom_site_symmetry_multiplicity
  _atom_site_fract_x
  _atom_site_fract_y
  _atom_site_fract_z
  _atom_site_occupancy
  _atom_site_charge
Ce  Ce1       1.0  0.40845  0.47535  0.89489  1.0000 1.8725194697
Ce  Ce2       1.0  0.47535  0.89489  0.40845  1.0000 1.8725194697
Ce  Ce3       1.0  0.89489  0.40845  0.47535  1.0000 1.8725194697
Ce  Ce4       1.0  0.59155  0.52465  0.10511  1.0000 1.8725194697
Ce  Ce5       1.0  0.52465  0.10511  0.59155  1.0000 1.8725194697
Ce  Ce6       1.0  0.10511  0.59155  0.52465  1.0000 1.8758003478
H   H1        1.0  0.16146  0.38368  0.78878  1.0000 0.1107466195
H   H2        1.0  0.91243  0.05891  0.50071  1.0000 0.1107466195
H   H3        1.0  0.79808  0.01437  0.47303  1.0000 0.1107466195
H   H4        1.0  0.86398  0.15315  0.59716  1.0000 0.103175013
H   H5        1.0  0.42188  0.61177  0.09597  1.0000 0.1107466195
H   H6        1.0  0.54425  0.58669  0.20760  1.0000 0.1204439407
H   H7        1.0  0.54732  0.63809  0.30387  1.0000 0.1107466195
H   H8        1.0  0.48910  0.67681  0.29720  1.0000 0.103175013
H   H9        1.0  0.83042  0.17279  0.74454  1.0000 0.103175013
H   H10       1.0  0.86591  0.35302  0.90324  1.0000 0.1204439407
H   H11       1.0  0.04411  0.48587  0.07193  1.0000 0.1256391172
H   H12       1.0  0.11407  0.46181  0.07665  1.0000 0.1107466195
H   H13       1.0  0.11607  0.43224  0.81639  1.0000 0.103175013
H   H14       1.0  0.99880  0.34013  0.74421  1.0000 0.1107466195
H   H15       1.0  0.43656  0.71197  0.19364  1.0000 0.1107466195
H   H16       1.0  0.42415  0.69823  0.23847  1.0000 0.1107466195
H   H17       1.0  0.96948  0.22974  0.84437  1.0000 0.1107466195
H   H18       1.0  0.07470  0.33350  0.97555  1.0000 0.1107466195
H   H19       1.0  0.27469  0.55939  0.99780  1.0000 0.103175013
H   H20       1.0  0.24824  0.50952  0.10355  1.0000 0.1204439407
H   H21       1.0  0.97248  0.27175  0.78343  1.0000 0.103175013
H   H22       1.0  0.38368  0.78878  0.16146  1.0000 0.1107466195
H   H23       1.0  0.05891  0.50071  0.91243  1.0000 0.1107466195
H   H24       1.0  0.01437  0.47303  0.79808  1.0000 0.1107466195
H   H25       1.0  0.15315  0.59716  0.86398  1.0000 0.103175013
H   H26       1.0  0.61177  0.09597  0.42188  1.0000 0.1107466195
H   H27       1.0  0.58669  0.20760  0.54425  1.0000 0.1204439407
H   H28       1.0  0.63809  0.30387  0.54732  1.0000 0.1204439407
H   H29       1.0  0.67681  0.29720  0.48910  1.0000 0.103175013
H   H30       1.0  0.17279  0.74454  0.83042  1.0000 0.103175013
H   H31       1.0  0.35302  0.90324  0.86591  1.0000 0.1204439407
H   H32       1.0  0.48587  0.07193  0.04411  1.0000 0.1256391172
H   H33       1.0  0.46181  0.07665  0.11407  1.0000 0.1107466195
H   H34       1.0  0.43224  0.81639  0.11607  1.0000 0.103175013
H   H35       1.0  0.34013  0.74421  0.99880  1.0000 0.1107466195
H   H36       1.0  0.71197  0.19364  0.43656  1.0000 0.1107466195
H   H37       1.0  0.69823  0.23847  0.42415  1.0000 0.1107466195
H   H38       1.0  0.22974  0.84437  0.96948  1.0000 0.1107466195
H   H39       1.0  0.33350  0.97555  0.07470  1.0000 0.1107466195
H   H40       1.0  0.55939  0.99780  0.27469  1.0000 0.103175013
H   H41       1.0  0.50952  0.10355  0.24824  1.0000 0.1204439407
H   H42       1.0  0.27175  0.78343  0.97248  1.0000 0.103175013
H   H43       1.0  0.78878  0.16146  0.38368  1.0000 0.1107466195
H   H44       1.0  0.50071  0.91243  0.05891  1.0000 0.1107466195
H   H45       1.0  0.47303  0.79808  0.01437  1.0000 0.1107466195
H   H46       1.0  0.59716  0.86398  0.15315  1.0000 0.103175013
H   H47       1.0  0.09597  0.42188  0.61177  1.0000 0.1107466195
H   H48       1.0  0.20760  0.54425  0.58669  1.0000 0.1204439407
H   H49       1.0  0.30387  0.54732  0.63809  1.0000 0.1204439407
H   H50       1.0  0.29720  0.48910  0.67681  1.0000 0.103175013
H   H51       1.0  0.74454  0.83042  0.17279  1.0000 0.103175013
H   H52       1.0  0.90324  0.86591  0.35302  1.0000 0.1204439407
H   H53       1.0  0.07193  0.04411  0.48587  1.0000 0.1256391172
H   H54       1.0  0.07665  0.11407  0.46181  1.0000 0.1107466195
H   H55       1.0  0.81639  0.11607  0.43224  1.0000 0.103175013
H   H56       1.0  0.74421  0.99880  0.34013  1.0000 0.1107466195
H   H57       1.0  0.19364  0.43656  0.71197  1.0000 0.1107466195
H   H58       1.0  0.23847  0.42415  0.69823  1.0000 0.1107466195
H   H59       1.0  0.84437  0.96948  0.22974  1.0000 0.1107466195
H   H60       1.0  0.97555  0.07470  0.33350  1.0000 0.1107466195
H   H61       1.0  0.99780  0.27469  0.55939  1.0000 0.103175013
H   H62       1.0  0.10355  0.24824  0.50952  1.0000 0.1204439407
H   H63       1.0  0.78343  0.97248  0.27175  1.0000 0.103175013
H   H64       1.0  0.83854  0.61632  0.21122  1.0000 0.1107466195
H   H65       1.0  0.08757  0.94109  0.49929  1.0000 0.1107466195
H   H66       1.0  0.20192  0.98563  0.52697  1.0000 0.1107466195
H   H67       1.0  0.13602  0.84685  0.40284  1.0000 0.103175013
H   H68       1.0  0.57812  0.38823  0.90403  1.0000 0.1107466195
H   H69       1.0  0.45575  0.41331  0.79240  1.0000 0.1204439407
H   H70       1.0  0.45268  0.36191  0.69613  1.0000 0.1204439407
H   H71       1.0  0.51090  0.32319  0.70280  1.0000 0.103175013
H   H72       1.0  0.16958  0.82721  0.25546  1.0000 0.103175013
H   H73       1.0  0.13409  0.64698  0.09676  1.0000 0.1204439407
H   H74       1.0  0.95589  0.51413  0.92807  1.0000 0.1256391172
H   H75       1.0  0.88593  0.53819  0.92335  1.0000 0.1107466195
H   H76       1.0  0.88393  0.56776  0.18361  1.0000 0.103175013
H   H77       1.0  0.00120  0.65987  0.25579  1.0000 0.1107466195
H   H78       1.0  0.56344  0.28803  0.80636  1.0000 0.1107466195
H   H79       1.0  0.57585  0.30177  0.76153  1.0000 0.1107466195
H   H80       1.0  0.03052  0.77026  0.15563  1.0000 0.1107466195
H   H81       1.0  0.92530  0.66650  0.02445  1.0000 0.1107466195
H   H82       1.0  0.72531  0.44061  0.00220  1.0000 0.103175013
H   H83       1.0  0.75176  0.49048  0.89645  1.0000 0.1204439407
H   H84       1.0  0.02752  0.72825  0.21657  1.0000 0.103175013
H   H85       1.0  0.61632  0.21122  0.83854  1.0000 0.1107466195
H   H86       1.0  0.94109  0.49929  0.08757  1.0000 0.1107466195
H   H87       1.0  0.98563  0.52697  0.20192  1.0000 0.1107466195
H   H88       1.0  0.84685  0.40284  0.13602  1.0000 0.103175013
H   H89       1.0  0.38823  0.90403  0.57812  1.0000 0.1107466195
H   H90       1.0  0.41331  0.79240  0.45575  1.0000 0.1204439407
H   H91       1.0  0.36191  0.69613  0.45268  1.0000 0.1107466195
H   H92       1.0  0.32319  0.70280  0.51090  1.0000 0.103175013
H   H93       1.0  0.82721  0.25546  0.16958  1.0000 0.103175013
H   H94       1.0  0.64698  0.09676  0.13409  1.0000 0.1204439407
H   H95       1.0  0.51413  0.92807  0.95589  1.0000 0.1256391172
H   H96       1.0  0.53819  0.92335  0.88593  1.0000 0.1107466195
H   H97       1.0  0.56776  0.18361  0.88393  1.0000 0.103175013
H   H98       1.0  0.65987  0.25579  0.00120  1.0000 0.1107466195
H   H99       1.0  0.28803  0.80636  0.56344  1.0000 0.1107466195
H   H100      1.0  0.30177  0.76153  0.57585  1.0000 0.1107466195
H   H101      1.0  0.77026  0.15563  0.03052  1.0000 0.1107466195
H   H102      1.0  0.66650  0.02445  0.92530  1.0000 0.1107466195
H   H103      1.0  0.44061  0.00220  0.72531  1.0000 0.103175013
H   H104      1.0  0.49048  0.89645  0.75176  1.0000 0.1204439407
H   H105      1.0  0.72825  0.21657  0.02752  1.0000 0.103175013
H   H106      1.0  0.21122  0.83854  0.61632  1.0000 0.1107466195
H   H107      1.0  0.49929  0.08757  0.94109  1.0000 0.1107466195
H   H108      1.0  0.52697  0.20192  0.98563  1.0000 0.1107466195
H   H109      1.0  0.40284  0.13602  0.84685  1.0000 0.103175013
H   H110      1.0  0.90403  0.57812  0.38823  1.0000 0.1107466195
H   H111      1.0  0.79240  0.45575  0.41331  1.0000 0.1204439407
H   H112      1.0  0.69613  0.45268  0.36191  1.0000 0.1204439407
H   H113      1.0  0.70280  0.51090  0.32319  1.0000 0.103175013
H   H114      1.0  0.25546  0.16958  0.82721  1.0000 0.103175013
H   H115      1.0  0.09676  0.13409  0.64698  1.0000 0.1204439407
H   H116      1.0  0.92807  0.95589  0.51413  1.0000 0.1256391172
H   H117      1.0  0.92335  0.88593  0.53819  1.0000 0.1107466195
H   H118      1.0  0.18361  0.88393  0.56776  1.0000 0.103175013
H   H119      1.0  0.25579  0.00120  0.65987  1.0000 0.1107466195
H   H120      1.0  0.80636  0.56344  0.28803  1.0000 0.1107466195
H   H121      1.0  0.76153  0.57585  0.30177  1.0000 0.1107466195
H   H122      1.0  0.15563  0.03052  0.77026  1.0000 0.1107466195
H   H123      1.0  0.02445  0.92530  0.66650  1.0000 0.1107466195
H   H124      1.0  0.00220  0.72531  0.44061  1.0000 0.103175013
H   H125      1.0  0.89645  0.75176  0.49048  1.0000 0.1204439407
H   H126      1.0  0.21657  0.02752  0.72825  1.0000 0.103175013
C   C1        1.0  0.12827  0.26134  0.67109  1.0000 0.5431070889
C   C2        1.0  0.08606  0.30731  0.72223  1.0000 -0.027914229
C   C3        1.0  0.04928  0.22706  0.64816  1.0000 -0.0495762842
C   C4        1.0  0.94010  0.11593  0.55317  1.0000 -0.110980554
C   C5        1.0  0.87254  0.09002  0.53654  1.0000 -0.1599449935
C   C6        1.0  0.91168  0.17186  0.61026  1.0000 -0.0722866213
C   C7        1.0  0.47133  0.55566  0.07201  1.0000 0.6105775202
C   C8        1.0  0.44741  0.61655  0.13824  1.0000 -0.0495762842
C   C9        1.0  0.48114  0.59306  0.14120  1.0000 -0.0722866213
C   C10       1.0  0.51966  0.60170  0.20384  1.0000 -0.0882373127
C   C11       1.0  0.52160  0.63250  0.26080  1.0000 -0.1599449935
C   C12       1.0  0.48707  0.65540  0.25713  1.0000 -0.0722866213
C   C13       1.0  0.71325  0.15916  0.69539  1.0000 0.6105775202
C   C14       1.0  0.87368  0.23683  0.81099  1.0000 -0.0435277358
C   C15       1.0  0.82993  0.24924  0.80663  1.0000 -0.0722866213
C   C16       1.0  0.89470  0.34335  0.90515  1.0000 -0.0882373127
C   C17       1.0  0.99961  0.42151  0.00438  1.0000 -0.1406154171
C   C18       1.0  0.04129  0.40782  0.00729  1.0000 -0.027914229
C   C19       1.0  0.06106  0.36859  0.78345  1.0000 -0.246167879
C   C20       1.0  0.40442  0.66278  0.18240  1.0000 -0.2310377452
C   C21       1.0  0.02911  0.30820  0.91599  1.0000 -0.2310377452
C   C22       1.0  0.11468  0.40786  0.87476  1.0000 0.0906542678
C   C23       1.0  0.23027  0.51343  0.98300  1.0000 -0.2397807353
C   C24       1.0  0.28044  0.55169  0.06767  1.0000 0.1107466195
C   C25       1.0  0.21410  0.48328  0.04492  1.0000 -0.2310377452
C   C26       1.0  0.09983  0.37826  0.93871  1.0000 0.1107466195
C   C27       1.0  0.05116  0.34251  0.85573  1.0000 -0.2397807353
C   C28       1.0  0.26134  0.67109  0.12827  1.0000 0.5431070889
C   C29       1.0  0.30731  0.72223  0.08606  1.0000 -0.027914229
C   C30       1.0  0.22706  0.64816  0.04928  1.0000 -0.0495762842
C   C31       1.0  0.11593  0.55317  0.94010  1.0000 -0.110980554
C   C32       1.0  0.09002  0.53654  0.87254  1.0000 -0.1599449935
C   C33       1.0  0.17186  0.61026  0.91168  1.0000 -0.0722866213
C   C34       1.0  0.55566  0.07201  0.47133  1.0000 0.6105775202
C   C35       1.0  0.61655  0.13824  0.44741  1.0000 -0.0495762842
C   C36       1.0  0.59306  0.14120  0.48114  1.0000 -0.0722866213
C   C37       1.0  0.60170  0.20384  0.51966  1.0000 -0.0882373127
C   C38       1.0  0.63250  0.26080  0.52160  1.0000 -0.1539006095
C   C39       1.0  0.65540  0.25713  0.48707  1.0000 -0.0722866213
C   C40       1.0  0.15916  0.69539  0.71325  1.0000 0.6105775202
C   C41       1.0  0.23683  0.81099  0.87368  1.0000 -0.0435277358
C   C42       1.0  0.24924  0.80663  0.82993  1.0000 -0.0722866213
C   C43       1.0  0.34335  0.90515  0.89470  1.0000 -0.0882373127
C   C44       1.0  0.42151  0.00438  0.99961  1.0000 -0.1406154171
C   C45       1.0  0.40782  0.00729  0.04129  1.0000 -0.027914229
C   C46       1.0  0.36859  0.78345  0.06106  1.0000 -0.246167879
C   C47       1.0  0.66278  0.18240  0.40442  1.0000 -0.2310377452
C   C48       1.0  0.30820  0.91599  0.02911  1.0000 -0.2310377452
C   C49       1.0  0.40786  0.87476  0.11468  1.0000 0.0906542678
C   C50       1.0  0.51343  0.98300  0.23027  1.0000 -0.2397807353
C   C51       1.0  0.55169  0.06767  0.28044  1.0000 0.1107466195
C   C52       1.0  0.48328  0.04492  0.21410  1.0000 -0.2310377452
C   C53       1.0  0.37826  0.93871  0.09983  1.0000 0.1107466195
C   C54       1.0  0.34251  0.85573  0.05116  1.0000 -0.2397807353
C   C55       1.0  0.67109  0.12827  0.26134  1.0000 0.5431070889
C   C56       1.0  0.72223  0.08606  0.30731  1.0000 -0.027914229
C   C57       1.0  0.64816  0.04928  0.22706  1.0000 -0.0495762842
C   C58       1.0  0.55317  0.94010  0.11593  1.0000 -0.110980554
C   C59       1.0  0.53654  0.87254  0.09002  1.0000 -0.1599449935
C   C60       1.0  0.61026  0.91168  0.17186  1.0000 -0.0722866213
C   C61       1.0  0.07201  0.47133  0.55566  1.0000 0.6105775202
C   C62       1.0  0.13824  0.44741  0.61655  1.0000 -0.0495762842
C   C63       1.0  0.14120  0.48114  0.59306  1.0000 -0.0722866213
C   C64       1.0  0.20384  0.51966  0.60170  1.0000 -0.0882373127
C   C65       1.0  0.26080  0.52160  0.63250  1.0000 -0.1539006095
C   C66       1.0  0.25713  0.48707  0.65540  1.0000 -0.0722866213
C   C67       1.0  0.69539  0.71325  0.15916  1.0000 0.6105775202
C   C68       1.0  0.81099  0.87368  0.23683  1.0000 -0.0435277358
C   C69       1.0  0.80663  0.82993  0.24924  1.0000 -0.0722866213
C   C70       1.0  0.90515  0.89470  0.34335  1.0000 -0.0882373127
C   C71       1.0  0.00438  0.99961  0.42151  1.0000 -0.1406154171
C   C72       1.0  0.00729  0.04129  0.40782  1.0000 -0.027914229
C   C73       1.0  0.78345  0.06106  0.36859  1.0000 -0.246167879
C   C74       1.0  0.18240  0.40442  0.66278  1.0000 -0.2310377452
C   C75       1.0  0.91599  0.02911  0.30820  1.0000 -0.2310377452
C   C76       1.0  0.87476  0.11468  0.40786  1.0000 0.0906542678
C   C77       1.0  0.98300  0.23027  0.51343  1.0000 -0.2397807353
C   C78       1.0  0.06767  0.28044  0.55169  1.0000 0.1107466195
C   C79       1.0  0.04492  0.21410  0.48328  1.0000 -0.2310377452
C   C80       1.0  0.93871  0.09983  0.37826  1.0000 0.1107466195
C   C81       1.0  0.85573  0.05116  0.34251  1.0000 -0.2397807353
C   C82       1.0  0.87173  0.73866  0.32891  1.0000 0.5431070889
C   C83       1.0  0.91394  0.69269  0.27777  1.0000 -0.027914229
C   C84       1.0  0.95072  0.77294  0.35184  1.0000 -0.0495762842
C   C85       1.0  0.05990  0.88407  0.44683  1.0000 -0.110980554
C   C86       1.0  0.12746  0.90998  0.46346  1.0000 -0.1599449935
C   C87       1.0  0.08832  0.82814  0.38974  1.0000 -0.0722866213
C   C88       1.0  0.52867  0.44434  0.92799  1.0000 0.6049701934
C   C89       1.0  0.55259  0.38345  0.86176  1.0000 -0.0495762842
C   C90       1.0  0.51886  0.40694  0.85880  1.0000 -0.0722866213
C   C91       1.0  0.48034  0.39830  0.79616  1.0000 -0.0882373127
C   C92       1.0  0.47840  0.36750  0.73920  1.0000 -0.1539006095
C   C93       1.0  0.51293  0.34460  0.74287  1.0000 -0.0722866213
C   C94       1.0  0.28675  0.84084  0.30461  1.0000 0.6105775202
C   C95       1.0  0.12632  0.76317  0.18901  1.0000 -0.0435277358
C   C96       1.0  0.17007  0.75076  0.19337  1.0000 -0.0722866213
C   C97       1.0  0.10530  0.65665  0.09485  1.0000 -0.0882373127
C   C98       1.0  0.00039  0.57849  0.99562  1.0000 -0.1406154171
C   C99       1.0  0.95871  0.59218  0.99271  1.0000 -0.027914229
C   C100      1.0  0.93894  0.63141  0.21655  1.0000 -0.246167879
C   C101      1.0  0.59558  0.33722  0.81760  1.0000 -0.2310377452
C   C102      1.0  0.97089  0.69180  0.08401  1.0000 -0.2310377452
C   C103      1.0  0.88532  0.59214  0.12524  1.0000 0.0906542678
C   C104      1.0  0.76973  0.48657  0.01700  1.0000 -0.2397807353
C   C105      1.0  0.71956  0.44831  0.93233  1.0000 0.1107466195
C   C106      1.0  0.78590  0.51672  0.95508  1.0000 -0.2310377452
C   C107      1.0  0.90017  0.62174  0.06129  1.0000 0.1107466195
C   C108      1.0  0.94884  0.65749  0.14427  1.0000 -0.2397807353
C   C109      1.0  0.73866  0.32891  0.87173  1.0000 0.5431070889
C   C110      1.0  0.69269  0.27777  0.91394  1.0000 -0.027914229
C   C111      1.0  0.77294  0.35184  0.95072  1.0000 -0.0495762842
C   C112      1.0  0.88407  0.44683  0.05990  1.0000 -0.110980554
C   C113      1.0  0.90998  0.46346  0.12746  1.0000 -0.1599449935
C   C114      1.0  0.82814  0.38974  0.08832  1.0000 -0.0722866213
C   C115      1.0  0.44434  0.92799  0.52867  1.0000 0.6049701934
C   C116      1.0  0.38345  0.86176  0.55259  1.0000 -0.0495762842
C   C117      1.0  0.40694  0.85880  0.51886  1.0000 -0.0722866213
C   C118      1.0  0.39830  0.79616  0.48034  1.0000 -0.0882373127
C   C119      1.0  0.36750  0.73920  0.47840  1.0000 -0.1599449935
C   C120      1.0  0.34460  0.74287  0.51293  1.0000 -0.0722866213
C   C121      1.0  0.84084  0.30461  0.28675  1.0000 0.6105775202
C   C122      1.0  0.76317  0.18901  0.12632  1.0000 -0.0435277358
C   C123      1.0  0.75076  0.19337  0.17007  1.0000 -0.0722866213
C   C124      1.0  0.65665  0.09485  0.10530  1.0000 -0.0882373127
C   C125      1.0  0.57849  0.99562  0.00039  1.0000 -0.1406154171
C   C126      1.0  0.59218  0.99271  0.95871  1.0000 -0.027914229
C   C127      1.0  0.63141  0.21655  0.93894  1.0000 -0.246167879
C   C128      1.0  0.33722  0.81760  0.59558  1.0000 -0.2310377452
C   C129      1.0  0.69180  0.08401  0.97089  1.0000 -0.2310377452
C   C130      1.0  0.59214  0.12524  0.88532  1.0000 0.0906542678
C   C131      1.0  0.48657  0.01700  0.76973  1.0000 -0.2397807353
C   C132      1.0  0.44831  0.93233  0.71956  1.0000 0.1107466195
C   C133      1.0  0.51672  0.95508  0.78590  1.0000 -0.2310377452
C   C134      1.0  0.62174  0.06129  0.90017  1.0000 0.1204439407
C   C135      1.0  0.65749  0.14427  0.94884  1.0000 -0.2397807353
C   C136      1.0  0.32891  0.87173  0.73866  1.0000 0.5431070889
C   C137      1.0  0.27777  0.91394  0.69269  1.0000 -0.027914229
C   C138      1.0  0.35184  0.95072  0.77294  1.0000 -0.0495762842
C   C139      1.0  0.44683  0.05990  0.88407  1.0000 -0.110980554
C   C140      1.0  0.46346  0.12746  0.90998  1.0000 -0.1599449935
C   C141      1.0  0.38974  0.08832  0.82814  1.0000 -0.0722866213
C   C142      1.0  0.92799  0.52867  0.44434  1.0000 0.6049701934
C   C143      1.0  0.86176  0.55259  0.38345  1.0000 -0.0495762842
C   C144      1.0  0.85880  0.51886  0.40694  1.0000 -0.0722866213
C   C145      1.0  0.79616  0.48034  0.39830  1.0000 -0.0882373127
C   C146      1.0  0.73920  0.47840  0.36750  1.0000 -0.1539006095
C   C147      1.0  0.74287  0.51293  0.34460  1.0000 -0.0722866213
C   C148      1.0  0.30461  0.28675  0.84084  1.0000 0.6105775202
C   C149      1.0  0.18901  0.12632  0.76317  1.0000 -0.0435277358
C   C150      1.0  0.19337  0.17007  0.75076  1.0000 -0.0722866213
C   C151      1.0  0.09485  0.10530  0.65665  1.0000 -0.0882373127
C   C152      1.0  0.99562  0.00039  0.57849  1.0000 -0.1406154171
C   C153      1.0  0.99271  0.95871  0.59218  1.0000 -0.027914229
C   C154      1.0  0.21655  0.93894  0.63141  1.0000 -0.246167879
C   C155      1.0  0.81760  0.59558  0.33722  1.0000 -0.2310377452
C   C156      1.0  0.08401  0.97089  0.69180  1.0000 -0.2310377452
C   C157      1.0  0.12524  0.88532  0.59214  1.0000 0.0906542678
C   C158      1.0  0.01700  0.76973  0.48657  1.0000 -0.246167879
C   C159      1.0  0.93233  0.71956  0.44831  1.0000 0.1107466195
C   C160      1.0  0.95508  0.78590  0.51672  1.0000 -0.2310377452
C   C161      1.0  0.06129  0.90017  0.62174  1.0000 0.1107466195
C   C162      1.0  0.14427  0.94884  0.65749  1.0000 -0.2397807353
N   N1        1.0  0.01820  0.27973  0.70214  1.0000 0.0779462198
N   N2        1.0  0.45082  0.64692  0.19626  1.0000 0.0779462198
N   N3        1.0  0.97860  0.31729  0.91121  1.0000 0.0779462198
N   N4        1.0  0.27973  0.70214  0.01820  1.0000 0.0779462198
N   N5        1.0  0.64692  0.19626  0.45082  1.0000 0.0779462198
N   N6        1.0  0.31729  0.91121  0.97860  1.0000 0.0779462198
N   N7        1.0  0.70214  0.01820  0.27973  1.0000 0.0779462198
N   N8        1.0  0.19626  0.45082  0.64692  1.0000 0.0779462198
N   N9        1.0  0.91121  0.97860  0.31729  1.0000 0.0779462198
N   N10       1.0  0.98180  0.72027  0.29786  1.0000 0.0779462198
N   N11       1.0  0.54918  0.35308  0.80374  1.0000 0.0779462198
N   N12       1.0  0.02140  0.68271  0.08879  1.0000 0.0779462198
N   N13       1.0  0.72027  0.29786  0.98180  1.0000 0.0779462198
N   N14       1.0  0.35308  0.80374  0.54918  1.0000 0.0779462198
N   N15       1.0  0.68271  0.08879  0.02140  1.0000 0.0779462198
N   N16       1.0  0.29786  0.98180  0.72027  1.0000 0.0779462198
N   N17       1.0  0.80374  0.54918  0.35308  1.0000 0.0779462198
N   N18       1.0  0.08879  0.02140  0.68271  1.0000 0.0779462198
O   O1        1.0  0.22713  0.36441  0.76256  1.0000 -0.6906526571
O   O2        1.0  0.08745  0.18480  0.59825  1.0000 -0.5786495045
O   O3        1.0  0.42576  0.54000  0.01054  1.0000 -0.5992778575
O   O4        1.0  0.50996  0.54260  0.08124  1.0000 -0.6906526571
O   O5        1.0  0.66640  0.08597  0.61203  1.0000 -0.6502124841
O   O6        1.0  0.67187  0.16582  0.69681  1.0000 -0.6502124841
O   O7        1.0  0.36441  0.76256  0.22713  1.0000 -0.6906526571
O   O8        1.0  0.18480  0.59825  0.08745  1.0000 -0.5786495045
O   O9        1.0  0.54000  0.01054  0.42576  1.0000 -0.5992778575
O   O10       1.0  0.54260  0.08124  0.50996  1.0000 -0.6906526571
O   O11       1.0  0.08597  0.61203  0.66640  1.0000 -0.6552370424
O   O12       1.0  0.16582  0.69681  0.67187  1.0000 -0.6502124841
O   O13       1.0  0.76256  0.22713  0.36441  1.0000 -0.6906526571
O   O14       1.0  0.59825  0.08745  0.18480  1.0000 -0.5786495045
O   O15       1.0  0.01054  0.42576  0.54000  1.0000 -0.5992778575
O   O16       1.0  0.08124  0.50996  0.54260  1.0000 -0.6906526571
O   O17       1.0  0.61203  0.66640  0.08597  1.0000 -0.6502124841
O   O18       1.0  0.69681  0.67187  0.16582  1.0000 -0.6502124841
O   O19       1.0  0.77287  0.63559  0.23744  1.0000 -0.6906526571
O   O20       1.0  0.91255  0.81520  0.40175  1.0000 -0.5786495045
O   O21       1.0  0.57424  0.46000  0.98946  1.0000 -0.5992778575
O   O22       1.0  0.49004  0.45740  0.91876  1.0000 -0.6906526571
O   O23       1.0  0.33360  0.91403  0.38797  1.0000 -0.6552370424
O   O24       1.0  0.32813  0.83418  0.30319  1.0000 -0.6502124841
O   O25       1.0  0.63559  0.23744  0.77287  1.0000 -0.6906526571
O   O26       1.0  0.81520  0.40175  0.91255  1.0000 -0.5786495045
O   O27       1.0  0.46000  0.98946  0.57424  1.0000 -0.5992778575
O   O28       1.0  0.45740  0.91876  0.49004  1.0000 -0.6906526571
O   O29       1.0  0.91403  0.38797  0.33360  1.0000 -0.6502124841
O   O30       1.0  0.83418  0.30319  0.32813  1.0000 -0.6502124841
O   O31       1.0  0.23744  0.77287  0.63559  1.0000 -0.6906526571
O   O32       1.0  0.40175  0.91255  0.81520  1.0000 -0.5786495045
O   O33       1.0  0.98946  0.57424  0.46000  1.0000 -0.5992778575
O   O34       1.0  0.91876  0.49004  0.45740  1.0000 -0.6906526571
O   O35       1.0  0.38797  0.33360  0.91403  1.0000 -0.6502124841
O   O36       1.0  0.30319  0.32813  0.83418  1.0000 -0.6502124841
