# DDEC6 charges by PACMAN v1.1 (https://github.com/mtap-research/PACMAN-charge/)
data_2021[Tm][nan]3[ASR]3
_chemical_formula_sum              "Tm6 H48 C112 N6 O46"
_cell_length_a       9.256
_cell_length_b       15.8648
_cell_length_c       28.25
_cell_angle_alpha    96.574
_cell_angle_beta     90.095
_cell_angle_gamma    104.682

_symmetry_space_group_name_H-M    "P 1"
_symmetry_Int_Tables_number       1

loop_
  _symmetry_equiv_pos_as_xyz
  'x, y, z'

loop_
  _atom_site_type_symbol
  _atom_site_label
  _atom_site_symmetry_multiplicity
  _atom_site_fract_x
  _atom_site_fract_y
  _atom_site_fract_z
  _atom_site_occupancy
  _atom_site_charge
Tm  Tm1       1.0  0.10688  0.46225  0.28084  1.0000 2.0701415607
Tm  Tm2       1.0  0.62818  0.51042  0.21695  1.0000 2.0701415607
Tm  Tm3       1.0  0.59694  0.00545  0.24509  1.0000 2.0244708726
Tm  Tm4       1.0  0.89312  0.53775  0.71916  1.0000 2.0701415607
Tm  Tm5       1.0  0.37182  0.48958  0.78305  1.0000 2.0701415607
Tm  Tm6       1.0  0.40306  0.99455  0.75491  1.0000 2.0244708726
H   H1        1.0  0.60114  0.76870  0.27146  1.0000 0.1484166973
H   H2        1.0  0.75953  0.86984  0.40398  1.0000 0.1290000328
H   H3        1.0  0.62822  0.74293  0.43274  1.0000 0.1195517171
H   H4        1.0  0.36626  0.65444  0.44623  1.0000 0.1290000328
H   H5        1.0  0.30645  0.39375  0.44361  1.0000 0.1290000328
H   H6        1.0  0.56475  0.26540  0.27293  1.0000 0.1484166973
H   H7        1.0  0.65263  0.23391  0.40722  1.0000 0.1290000328
H   H8        1.0  0.53230  0.34105  0.43483  1.0000 0.11058194
H   H9        1.0  0.29677  0.42392  0.52236  1.0000 0.1195517171
H   H10       1.0  0.18014  0.42953  0.59457  1.0000 0.1290000328
H   H11       1.0  0.03637  0.63390  0.56173  1.0000 0.1290000328
H   H12       1.0  0.15573  0.63012  0.49029  1.0000 0.1195517171
H   H13       1.0  0.92062  0.25460  0.05578  1.0000 0.1195517171
H   H14       1.0  0.90684  0.11731  0.07615  1.0000 0.1195517171
H   H15       1.0  0.83919  0.20097  0.21275  1.0000 0.1484166973
H   H16       1.0  0.74592  0.34786  0.04780  1.0000 0.1290000328
H   H17       1.0  0.92460  0.60773  0.05869  1.0000 0.1290000328
H   H18       1.0  0.20938  0.66133  0.07582  1.0000 0.11058194
H   H19       1.0  0.39220  0.77783  0.11332  1.0000 0.1357520887
H   H20       1.0  0.21872  0.72670  0.23943  1.0000 0.1484166973
H   H21       1.0  0.56280  0.37804  0.00527  1.0000 0.1195517171
H   H22       1.0  0.43888  0.38139  0.93558  1.0000 0.1290000328
H   H23       1.0  0.74830  0.59909  0.91148  1.0000 0.1290000328
H   H24       1.0  0.87501  0.59289  0.98121  1.0000 0.11058194
H   H25       1.0  0.39886  0.23130  0.72854  1.0000 0.1484166973
H   H26       1.0  0.24047  0.13016  0.59602  1.0000 0.1290000328
H   H27       1.0  0.37178  0.25707  0.56726  1.0000 0.1195517171
H   H28       1.0  0.63374  0.34556  0.55377  1.0000 0.1290000328
H   H29       1.0  0.69355  0.60625  0.55639  1.0000 0.1290000328
H   H30       1.0  0.43525  0.73460  0.72707  1.0000 0.1484166973
H   H31       1.0  0.34737  0.76609  0.59278  1.0000 0.1290000328
H   H32       1.0  0.46770  0.65895  0.56517  1.0000 0.11058194
H   H33       1.0  0.70323  0.57608  0.47764  1.0000 0.1195517171
H   H34       1.0  0.81986  0.57047  0.40543  1.0000 0.1290000328
H   H35       1.0  0.96363  0.36610  0.43827  1.0000 0.1290000328
H   H36       1.0  0.84427  0.36988  0.50971  1.0000 0.1195517171
H   H37       1.0  0.07938  0.74540  0.94422  1.0000 0.1195517171
H   H38       1.0  0.09316  0.88269  0.92385  1.0000 0.1195517171
H   H39       1.0  0.16081  0.79903  0.78725  1.0000 0.1484166973
H   H40       1.0  0.25408  0.65214  0.95220  1.0000 0.1290000328
H   H41       1.0  0.07540  0.39227  0.94131  1.0000 0.1290000328
H   H42       1.0  0.79062  0.33867  0.92418  1.0000 0.11058194
H   H43       1.0  0.60780  0.22217  0.88668  1.0000 0.1357520887
H   H44       1.0  0.78128  0.27330  0.76057  1.0000 0.1484166973
H   H45       1.0  0.43720  0.62196  0.99473  1.0000 0.1195517171
H   H46       1.0  0.56112  0.61861  0.06442  1.0000 0.1290000328
H   H47       1.0  0.25170  0.40091  0.08852  1.0000 0.1290000328
H   H48       1.0  0.12499  0.40711  0.01879  1.0000 0.11058194
C   C1        1.0  0.43220  0.61440  0.28660  1.0000 0.6648599574
C   C2        1.0  0.52620  0.68640  0.32140  1.0000 -0.0361288718
C   C3        1.0  0.60630  0.76360  0.30380  1.0000 -0.0891750344
C   C4        1.0  0.69290  0.83200  0.33460  1.0000 0.0035780274
C   C5        1.0  0.70120  0.82410  0.38320  1.0000 -0.0821656638
C   C6        1.0  0.62200  0.74790  0.40040  1.0000 -0.1428276928
C   C7        1.0  0.53300  0.67840  0.37000  1.0000 0.0193440735
C   C8        1.0  0.78400  0.91420  0.31710  1.0000 0.6089216688
C   C9        1.0  0.38050  0.60110  0.43255  1.0000 -0.2405200644
C   C10       1.0  0.46200  0.59670  0.39100  1.0000 0.2380912968
C   C11       1.0  0.43040  0.44840  0.38995  1.0000 0.2380912968
C   C12       1.0  0.34560  0.44630  0.43120  1.0000 -0.2310355238
C   C13       1.0  0.32120  0.52460  0.45304  1.0000 0.1195517171
C   C14       1.0  0.48030  0.36990  0.37030  1.0000 0.0306539026
C   C15       1.0  0.48360  0.34400  0.32070  1.0000 -0.0529425402
C   C16       1.0  0.55810  0.28100  0.30540  1.0000 -0.0821656638
C   C17       1.0  0.62350  0.24040  0.33780  1.0000 0.0059121819
C   C18       1.0  0.61210  0.26230  0.38560  1.0000 -0.0891750344
C   C19       1.0  0.54010  0.32690  0.40220  1.0000 -0.1342060647
C   C20       1.0  0.71790  0.17700  0.32140  1.0000 0.6089216688
C   C21       1.0  0.24080  0.52720  0.49886  1.0000 0.0633037158
C   C22       1.0  0.24590  0.46690  0.53035  1.0000 -0.1516607112
C   C23       1.0  0.17570  0.47020  0.57370  1.0000 -0.0821656638
C   C24       1.0  0.09930  0.53330  0.58613  1.0000 -0.0183211823
C   C25       1.0  0.09040  0.59240  0.55420  1.0000 -0.0821656638
C   C26       1.0  0.16120  0.58970  0.51120  1.0000 -0.1428276928
C   C27       1.0  0.02650  0.53850  0.63280  1.0000 0.5583611994
C   C28       1.0  0.40260  0.38030  0.28552  1.0000 0.6699947783
C   C29       1.0  0.83240  0.36210  0.20650  1.0000 0.6753513285
C   C30       1.0  0.85980  0.29520  0.16830  1.0000 -0.0576128519
C   C31       1.0  0.88090  0.31170  0.12075  1.0000 0.0306539026
C   C32       1.0  0.90150  0.24360  0.08710  1.0000 -0.1516607112
C   C33       1.0  0.89430  0.16150  0.09920  1.0000 -0.0891750344
C   C34       1.0  0.86760  0.14430  0.14660  1.0000 0.0059121819
C   C35       1.0  0.85320  0.21160  0.18120  1.0000 -0.1007512479
C   C36       1.0  0.85160  0.05160  0.15960  1.0000 0.5878043541
C   C37       1.0  0.88880  0.39860  0.10406  1.0000 0.2326730707
C   C38       1.0  0.80690  0.39970  0.06320  1.0000 -0.2405200644
C   C39       1.0  0.81710  0.47980  0.04520  1.0000 0.1195517171
C   C40       1.0  0.91280  0.55330  0.06956  1.0000 -0.2196851007
C   C41       1.0  0.99160  0.54630  0.11030  1.0000 0.2218187519
C   C42       1.0  0.10180  0.62330  0.13480  1.0000 0.0306539026
C   C43       1.0  0.21010  0.67430  0.10880  1.0000 -0.1428276928
C   C44       1.0  0.31980  0.74470  0.13120  1.0000 -0.0891750344
C   C45       1.0  0.32110  0.76520  0.18000  1.0000 0.0193440735
C   C46       1.0  0.21550  0.71400  0.20640  1.0000 -0.0891750344
C   C47       1.0  0.10640  0.64500  0.18491  1.0000 -0.0529425402
C   C48       1.0  0.98690  0.59760  0.21486  1.0000 0.6699947783
C   C49       1.0  0.42930  0.84630  0.20380  1.0000 0.5583611994
C   C50       1.0  0.73380  0.48410  0.00110  1.0000 0.0633037158
C   C51       1.0  0.60180  0.42210  0.98630  1.0000 -0.1516607112
C   C52       1.0  0.52700  0.42390  0.94450  1.0000 -0.0891750344
C   C53       1.0  0.58260  0.48890  0.91545  1.0000 -0.0183211823
C   C54       1.0  0.71220  0.55370  0.92990  1.0000 -0.0891750344
C   C55       1.0  0.78720  0.55020  0.97210  1.0000 -0.1557020626
C   C56       1.0  0.50630  0.48930  0.86910  1.0000 0.5583611994
C   C57       1.0  0.56780  0.38560  0.71340  1.0000 0.6648599574
C   C58       1.0  0.47380  0.31360  0.67860  1.0000 -0.0361288718
C   C59       1.0  0.39370  0.23640  0.69620  1.0000 -0.0891750344
C   C60       1.0  0.30710  0.16800  0.66540  1.0000 0.0035780274
C   C61       1.0  0.29880  0.17590  0.61680  1.0000 -0.0821656638
C   C62       1.0  0.37800  0.25210  0.59960  1.0000 -0.1428276928
C   C63       1.0  0.46700  0.32160  0.63000  1.0000 0.0193440735
C   C64       1.0  0.21600  0.08580  0.68290  1.0000 0.6089216688
C   C65       1.0  0.61950  0.39890  0.56745  1.0000 -0.2405200644
C   C66       1.0  0.53800  0.40330  0.60900  1.0000 0.2380912968
C   C67       1.0  0.56960  0.55160  0.61005  1.0000 0.2380912968
C   C68       1.0  0.65440  0.55370  0.56880  1.0000 -0.2310355238
C   C69       1.0  0.67880  0.47540  0.54696  1.0000 0.1195517171
C   C70       1.0  0.51970  0.63010  0.62970  1.0000 0.0306539026
C   C71       1.0  0.51640  0.65600  0.67930  1.0000 -0.0529425402
C   C72       1.0  0.44190  0.71900  0.69460  1.0000 -0.0821656638
C   C73       1.0  0.37650  0.75960  0.66220  1.0000 0.0035780274
C   C74       1.0  0.38790  0.73770  0.61440  1.0000 -0.0891750344
C   C75       1.0  0.45990  0.67310  0.59780  1.0000 -0.1342060647
C   C76       1.0  0.28210  0.82300  0.67860  1.0000 0.6089216688
C   C77       1.0  0.75920  0.47280  0.50114  1.0000 0.0633037158
C   C78       1.0  0.75410  0.53310  0.46965  1.0000 -0.1516607112
C   C79       1.0  0.82430  0.52980  0.42630  1.0000 -0.0821656638
C   C80       1.0  0.90070  0.46670  0.41387  1.0000 -0.0183211823
C   C81       1.0  0.90960  0.40760  0.44580  1.0000 -0.0821656638
C   C82       1.0  0.83880  0.41030  0.48880  1.0000 -0.1428276928
C   C83       1.0  0.97350  0.46150  0.36720  1.0000 0.5583611994
C   C84       1.0  0.59740  0.61970  0.71448  1.0000 0.6699947783
C   C85       1.0  0.16760  0.63790  0.79350  1.0000 0.6753513285
C   C86       1.0  0.14020  0.70480  0.83170  1.0000 -0.0576128519
C   C87       1.0  0.11910  0.68830  0.87925  1.0000 0.0306539026
C   C88       1.0  0.09850  0.75640  0.91290  1.0000 -0.1516607112
C   C89       1.0  0.10570  0.83850  0.90080  1.0000 -0.0891750344
C   C90       1.0  0.13240  0.85570  0.85340  1.0000 0.0059121819
C   C91       1.0  0.14680  0.78840  0.81880  1.0000 -0.1007512479
C   C92       1.0  0.14840  0.94840  0.84040  1.0000 0.5878043541
C   C93       1.0  0.11120  0.60140  0.89594  1.0000 0.2326730707
C   C94       1.0  0.19310  0.60030  0.93680  1.0000 -0.2405200644
C   C95       1.0  0.18290  0.52020  0.95480  1.0000 0.1195517171
C   C96       1.0  0.08720  0.44670  0.93044  1.0000 -0.2196851007
C   C97       1.0  0.00840  0.45370  0.88970  1.0000 0.2218187519
C   C98       1.0  0.89820  0.37670  0.86520  1.0000 0.0306539026
C   C99       1.0  0.78990  0.32570  0.89120  1.0000 -0.1428276928
C   C100      1.0  0.68020  0.25530  0.86880  1.0000 -0.0891750344
C   C101      1.0  0.67890  0.23480  0.82000  1.0000 0.0193440735
C   C102      1.0  0.78450  0.28600  0.79360  1.0000 -0.0891750344
C   C103      1.0  0.89360  0.35500  0.81509  1.0000 -0.0529425402
C   C104      1.0  0.01310  0.40240  0.78514  1.0000 0.6699947783
C   C105      1.0  0.57070  0.15370  0.79620  1.0000 0.5583611994
C   C106      1.0  0.26620  0.51590  0.99890  1.0000 0.0633037158
C   C107      1.0  0.39820  0.57790  0.01370  1.0000 -0.1516607112
C   C108      1.0  0.47300  0.57610  0.05550  1.0000 -0.0891750344
C   C109      1.0  0.41740  0.51110  0.08455  1.0000 -0.0183211823
C   C110      1.0  0.28780  0.44630  0.07010  1.0000 -0.0891750344
C   C111      1.0  0.21280  0.44980  0.02790  1.0000 -0.1557020626
C   C112      1.0  0.49370  0.51070  0.13090  1.0000 0.5583611994
N   N1        1.0  0.48780  0.52200  0.37023  1.0000 -0.3118041686
N   N2        1.0  0.97960  0.46850  0.12757  1.0000 -0.3008708885
N   N3        1.0  0.38740  0.03050  0.31380  1.0000 0.7207487294
N   N4        1.0  0.51220  0.47800  0.62977  1.0000 -0.3118041686
N   N5        1.0  0.02040  0.53150  0.87243  1.0000 -0.3008708885
N   N6        1.0  0.61260  0.96950  0.68620  1.0000 0.7207487294
O   O1        1.0  0.27070  0.38460  0.29448  1.0000 -0.6672289005
O   O2        1.0  0.46600  0.40180  0.24813  1.0000 -0.6672289005
O   O3        1.0  0.30510  0.57650  0.29921  1.0000 -0.6621477536
O   O4        1.0  0.48750  0.59750  0.24685  1.0000 -0.6915066919
O   O5        1.0  0.74010  0.93230  0.27630  1.0000 -0.7005147866
O   O6        1.0  0.89710  0.95910  0.34120  1.0000 -0.3799044719
O   O7        1.0  0.80260  0.16360  0.35280  1.0000 -0.4460142484
O   O8        1.0  0.70030  0.14200  0.27964  1.0000 -0.6512283614
O   O9        1.0  0.96080  0.59550  0.64596  1.0000 -0.5825739435
O   O10       1.0  0.03160  0.47960  0.66028  1.0000 -0.6256085268
O   O11       1.0  0.89940  0.37030  0.24684  1.0000 -0.6915066919
O   O12       1.0  0.74470  0.40660  0.19705  1.0000 -0.6672289005
O   O13       1.0  0.01990  0.56230  0.24893  1.0000 -0.675737255
O   O14       1.0  0.85340  0.59870  0.20483  1.0000 -0.6672289005
O   O15       1.0  0.79670  0.03720  0.19965  1.0000 -0.6420733861
O   O16       1.0  0.89860  0.99990  0.13240  1.0000 -0.3507266572
O   O17       1.0  0.39160  0.42910  0.85499  1.0000 -0.6120654574
O   O18       1.0  0.55720  0.55030  0.84358  1.0000 -0.6120654574
O   O19       1.0  0.40090  0.87660  0.24381  1.0000 -0.5825739435
O   O20       1.0  0.54510  0.88140  0.18320  1.0000 -0.5825739435
O   O21       1.0  0.50850  0.00050  0.32510  1.0000 -0.5879312686
O   O22       1.0  0.37400  0.04950  0.27130  1.0000 -0.5019238374
O   O23       1.0  0.28460  0.03880  0.34420  1.0000 -0.3008708885
O   O24       1.0  0.72930  0.61540  0.70552  1.0000 -0.6672289005
O   O25       1.0  0.53400  0.59820  0.75187  1.0000 -0.6672289005
O   O26       1.0  0.69490  0.42350  0.70079  1.0000 -0.6621477536
O   O27       1.0  0.51250  0.40250  0.75315  1.0000 -0.6915066919
O   O28       1.0  0.25990  0.06770  0.72370  1.0000 -0.7005147866
O   O29       1.0  0.10290  0.04090  0.65880  1.0000 -0.3799044719
O   O30       1.0  0.19740  0.83640  0.64720  1.0000 -0.4460142484
O   O31       1.0  0.29970  0.85800  0.72036  1.0000 -0.6512283614
O   O32       1.0  0.03920  0.40450  0.35404  1.0000 -0.5825739435
O   O33       1.0  0.96840  0.52040  0.33972  1.0000 -0.6256085268
O   O34       1.0  0.10060  0.62970  0.75316  1.0000 -0.6915066919
O   O35       1.0  0.25530  0.59340  0.80295  1.0000 -0.6672289005
O   O36       1.0  0.98010  0.43770  0.75107  1.0000 -0.675737255
O   O37       1.0  0.14660  0.40130  0.79517  1.0000 -0.6672289005
O   O38       1.0  0.20330  0.96280  0.80035  1.0000 -0.6420733861
O   O39       1.0  0.10140  0.00010  0.86760  1.0000 -0.3507266572
O   O40       1.0  0.60840  0.57090  0.14501  1.0000 -0.6120654574
O   O41       1.0  0.44280  0.44970  0.15642  1.0000 -0.6120654574
O   O42       1.0  0.59910  0.12340  0.75619  1.0000 -0.5825739435
O   O43       1.0  0.45490  0.11860  0.81680  1.0000 -0.5825739435
O   O44       1.0  0.49150  0.99950  0.67490  1.0000 -0.5879312686
O   O45       1.0  0.62600  0.95050  0.72870  1.0000 -0.5019238374
O   O46       1.0  0.71540  0.96120  0.65580  1.0000 -0.3008708885
