# DDEC6 charges by PACMAN v1.1 (https://github.com/mtap-research/PACMAN-charge/)
data_2021[Co][nan]3[ASR]9
_chemical_formula_sum              "Co4 H40 C64 N16 O16"
_cell_length_a       10.212
_cell_length_b       10.2342
_cell_length_c       18.9467
_cell_angle_alpha    90
_cell_angle_beta     97.3846
_cell_angle_gamma    90

_symmetry_space_group_name_H-M    "P 1"
_symmetry_Int_Tables_number       1

loop_
  _symmetry_equiv_pos_as_xyz
  'x, y, z'

loop_
  _atom_site_type_symbol
  _atom_site_label
  _atom_site_symmetry_multiplicity
  _atom_site_fract_x
  _atom_site_fract_y
  _atom_site_fract_z
  _atom_site_occupancy
  _atom_site_charge
Co  Co1       1.0  0.18638  0.10064  0.55557  1.0000 0.861656218
Co  Co2       1.0  0.81362  0.60064  0.94443  1.0000 0.861656218
Co  Co3       1.0  0.81362  0.89936  0.44443  1.0000 0.861656218
Co  Co4       1.0  0.18638  0.39936  0.05557  1.0000 0.861656218
H   H1        1.0  0.08709  0.68911  0.34469  1.0000 0.1411637023
H   H2        1.0  0.36330  0.91077  0.46194  1.0000 0.1411637023
H   H3        1.0  0.47124  0.66734  0.30993  1.0000 0.1411637023
H   H4        1.0  0.03622  0.12982  0.40417  1.0000 0.1103680973
H   H5        1.0  0.02891  0.25652  0.30269  1.0000 0.1411637023
H   H6        1.0  0.38020  0.70890  0.16978  1.0000 0.1687232248
H   H7        1.0  0.26247  0.69587  0.10572  1.0000 0.1793836049
H   H8        1.0  0.24264  0.78132  0.17429  1.0000 0.1605941049
H   H9        1.0  0.33487  0.33529  0.49815  1.0000 0.1103680973
H   H10       1.0  0.33410  0.46775  0.39990  1.0000 0.1305958472
H   H11       1.0  0.91291  0.18911  0.15531  1.0000 0.1411637023
H   H12       1.0  0.63670  0.41077  0.03806  1.0000 0.1411637023
H   H13       1.0  0.52876  0.16734  0.19007  1.0000 0.1411637023
H   H14       1.0  0.96378  0.62982  0.09583  1.0000 0.1103680973
H   H15       1.0  0.97109  0.75652  0.19731  1.0000 0.1411637023
H   H16       1.0  0.61980  0.20890  0.33022  1.0000 0.1687232248
H   H17       1.0  0.73753  0.19587  0.39428  1.0000 0.1793836049
H   H18       1.0  0.75736  0.28132  0.32571  1.0000 0.1605941049
H   H19       1.0  0.66513  0.83529  0.00185  1.0000 0.1103680973
H   H20       1.0  0.66590  0.96775  0.10010  1.0000 0.1305958472
H   H21       1.0  0.91291  0.31089  0.65531  1.0000 0.1411637023
H   H22       1.0  0.63670  0.08923  0.53806  1.0000 0.1411637023
H   H23       1.0  0.52876  0.33266  0.69007  1.0000 0.1411637023
H   H24       1.0  0.96378  0.87018  0.59583  1.0000 0.1103680973
H   H25       1.0  0.97109  0.74348  0.69731  1.0000 0.1411637023
H   H26       1.0  0.61980  0.29110  0.83022  1.0000 0.1687232248
H   H27       1.0  0.73753  0.30413  0.89428  1.0000 0.1793836049
H   H28       1.0  0.75736  0.21868  0.82571  1.0000 0.1605941049
H   H29       1.0  0.66513  0.66471  0.50185  1.0000 0.1103680973
H   H30       1.0  0.66590  0.53225  0.60010  1.0000 0.1305958472
H   H31       1.0  0.08709  0.81089  0.84469  1.0000 0.1411637023
H   H32       1.0  0.36330  0.58923  0.96194  1.0000 0.1411637023
H   H33       1.0  0.47124  0.83266  0.80993  1.0000 0.1411637023
H   H34       1.0  0.03622  0.37018  0.90417  1.0000 0.1103680973
H   H35       1.0  0.02891  0.24348  0.80269  1.0000 0.1411637023
H   H36       1.0  0.38020  0.79110  0.66978  1.0000 0.1687232248
H   H37       1.0  0.26247  0.80413  0.60572  1.0000 0.1793836049
H   H38       1.0  0.24264  0.71868  0.67429  1.0000 0.1605941049
H   H39       1.0  0.33487  0.16471  0.99815  1.0000 0.1103680973
H   H40       1.0  0.33410  0.03225  0.89990  1.0000 0.1305958472
C   C1        1.0  0.21060  0.80530  0.41040  1.0000 -0.003992126
C   C2        1.0  0.27410  0.66560  0.31870  1.0000 0.1605941049
C   C3        1.0  0.17630  0.71590  0.35620  1.0000 -0.2017552339
C   C4        1.0  0.34040  0.84760  0.42570  1.0000 -0.1305853807
C   C5        1.0  0.57940  0.83990  0.40570  1.0000 0.5204220108
C   C6        1.0  0.10510  0.85780  0.45160  1.0000 0.5797562293
C   C7        1.0  0.23440  0.58510  0.19200  1.0000 0.3521912388
C   C8        1.0  0.18610  0.44740  0.27190  1.0000 0.2148701093
C   C9        1.0  0.43760  0.79660  0.38730  1.0000 0.0163549568
C   C10       1.0  0.40500  0.70410  0.33470  1.0000 -0.2017552339
C   C11       1.0  0.18240  0.37510  0.33930  1.0000 0.0709905225
C   C12       1.0  0.09870  0.19840  0.40320  1.0000 0.1023980371
C   C13       1.0  0.09350  0.27400  0.34230  1.0000 -0.1733860083
C   C14       1.0  0.28420  0.70290  0.15750  1.0000 -0.5223871031
C   C15       1.0  0.27230  0.31840  0.45760  1.0000 0.0875772528
C   C16       1.0  0.27270  0.39790  0.39920  1.0000 -0.1733860083
C   C17       1.0  0.78940  0.30530  0.08960  1.0000 -0.003992126
C   C18       1.0  0.72590  0.16560  0.18130  1.0000 0.1605941049
C   C19       1.0  0.82370  0.21590  0.14380  1.0000 -0.2017552339
C   C20       1.0  0.65960  0.34760  0.07430  1.0000 -0.1305853807
C   C21       1.0  0.42060  0.33990  0.09430  1.0000 0.5204220108
C   C22       1.0  0.89490  0.35780  0.04840  1.0000 0.5797562293
C   C23       1.0  0.76560  0.08510  0.30800  1.0000 0.3521912388
C   C24       1.0  0.81390  0.94740  0.22810  1.0000 0.2148701093
C   C25       1.0  0.56240  0.29660  0.11270  1.0000 0.0163549568
C   C26       1.0  0.59500  0.20410  0.16530  1.0000 -0.2017552339
C   C27       1.0  0.81760  0.87510  0.16070  1.0000 0.0709905225
C   C28       1.0  0.90130  0.69840  0.09680  1.0000 0.1023980371
C   C29       1.0  0.90650  0.77400  0.15770  1.0000 -0.1733860083
C   C30       1.0  0.71580  0.20290  0.34250  1.0000 -0.5223871031
C   C31       1.0  0.72770  0.81840  0.04240  1.0000 0.0875772528
C   C32       1.0  0.72730  0.89790  0.10080  1.0000 -0.1733860083
C   C33       1.0  0.78940  0.19470  0.58960  1.0000 -0.003992126
C   C34       1.0  0.72590  0.33440  0.68130  1.0000 0.1605941049
C   C35       1.0  0.82370  0.28410  0.64380  1.0000 -0.2017552339
C   C36       1.0  0.65960  0.15240  0.57430  1.0000 -0.1305853807
C   C37       1.0  0.42060  0.16010  0.59430  1.0000 0.5204220108
C   C38       1.0  0.89490  0.14220  0.54840  1.0000 0.5797562293
C   C39       1.0  0.76560  0.41490  0.80800  1.0000 0.3521912388
C   C40       1.0  0.81390  0.55260  0.72810  1.0000 0.2148701093
C   C41       1.0  0.56240  0.20340  0.61270  1.0000 0.0163549568
C   C42       1.0  0.59500  0.29590  0.66530  1.0000 -0.2017552339
C   C43       1.0  0.81760  0.62490  0.66070  1.0000 0.0709905225
C   C44       1.0  0.90130  0.80160  0.59680  1.0000 0.1023980371
C   C45       1.0  0.90650  0.72600  0.65770  1.0000 -0.1733860083
C   C46       1.0  0.71580  0.29710  0.84250  1.0000 -0.5223871031
C   C47       1.0  0.72770  0.68160  0.54240  1.0000 0.0875772528
C   C48       1.0  0.72730  0.60210  0.60080  1.0000 -0.1733860083
C   C49       1.0  0.21060  0.69470  0.91040  1.0000 -0.003992126
C   C50       1.0  0.27410  0.83440  0.81870  1.0000 0.1605941049
C   C51       1.0  0.17630  0.78410  0.85620  1.0000 -0.2017552339
C   C52       1.0  0.34040  0.65240  0.92570  1.0000 -0.1305853807
C   C53       1.0  0.57940  0.66010  0.90570  1.0000 0.5204220108
C   C54       1.0  0.10510  0.64220  0.95160  1.0000 0.5797562293
C   C55       1.0  0.23440  0.91490  0.69200  1.0000 0.3521912388
C   C56       1.0  0.18610  0.05260  0.77190  1.0000 0.2148701093
C   C57       1.0  0.43760  0.70340  0.88730  1.0000 0.0163549568
C   C58       1.0  0.40500  0.79590  0.83470  1.0000 -0.2017552339
C   C59       1.0  0.18240  0.12490  0.83930  1.0000 0.0709905225
C   C60       1.0  0.09870  0.30160  0.90320  1.0000 0.1023980371
C   C61       1.0  0.09350  0.22600  0.84230  1.0000 -0.1733860083
C   C62       1.0  0.28420  0.79710  0.65750  1.0000 -0.5223871031
C   C63       1.0  0.27230  0.18160  0.95760  1.0000 0.0875772528
C   C64       1.0  0.27270  0.10210  0.89920  1.0000 -0.1733860083
N   N1        1.0  0.18740  0.21700  0.46066  1.0000 -0.2383424648
N   N2        1.0  0.23840  0.56900  0.26426  1.0000 -0.1305853807
N   N3        1.0  0.18230  0.48200  0.15997  1.0000 -0.2550952145
N   N4        1.0  0.15100  0.39360  0.21016  1.0000 -0.2296020173
N   N5        1.0  0.81260  0.71700  0.03934  1.0000 -0.2383424648
N   N6        1.0  0.76160  0.06900  0.23574  1.0000 -0.1305853807
N   N7        1.0  0.81770  0.98200  0.34003  1.0000 -0.2550952145
N   N8        1.0  0.84900  0.89360  0.28984  1.0000 -0.2296020173
N   N9        1.0  0.81260  0.78300  0.53934  1.0000 -0.2383424648
N   N10       1.0  0.76160  0.43100  0.73574  1.0000 -0.1305853807
N   N11       1.0  0.81770  0.51800  0.84003  1.0000 -0.2550952145
N   N12       1.0  0.84900  0.60640  0.78984  1.0000 -0.2296020173
N   N13       1.0  0.18740  0.28300  0.96066  1.0000 -0.2383424648
N   N14       1.0  0.23840  0.93100  0.76426  1.0000 -0.1305853807
N   N15       1.0  0.18230  0.01800  0.65997  1.0000 -0.2550952145
N   N16       1.0  0.15100  0.10640  0.71016  1.0000 -0.2296020173
O   O1        1.0  0.13790  0.93330  0.50251  1.0000 -0.5597704657
O   O2        1.0  0.66880  0.76510  0.38932  1.0000 -0.5363719173
O   O3        1.0  0.98970  0.81860  0.43200  1.0000 -0.5277996965
O   O4        1.0  0.60460  0.94410  0.43785  1.0000 -0.5066842147
O   O5        1.0  0.86210  0.43330  0.99749  1.0000 -0.5597704657
O   O6        1.0  0.33120  0.26510  0.11068  1.0000 -0.5363719173
O   O7        1.0  0.01030  0.31860  0.06800  1.0000 -0.5277996965
O   O8        1.0  0.39540  0.44410  0.06215  1.0000 -0.5066842147
O   O9        1.0  0.86210  0.06670  0.49749  1.0000 -0.5597704657
O   O10       1.0  0.33120  0.23490  0.61068  1.0000 -0.5363719173
O   O11       1.0  0.01030  0.18140  0.56800  1.0000 -0.5277996965
O   O12       1.0  0.39540  0.05590  0.56215  1.0000 -0.5066842147
O   O13       1.0  0.13790  0.56670  0.00251  1.0000 -0.5597704657
O   O14       1.0  0.66880  0.73490  0.88932  1.0000 -0.5363719173
O   O15       1.0  0.98970  0.68140  0.93200  1.0000 -0.5277996965
O   O16       1.0  0.60460  0.55590  0.93785  1.0000 -0.5066842147
