# DDEC6 charges by PACMAN v1.1 (https://github.com/mtap-research/PACMAN-charge/)
data_2021[Al][nan]3[ASR]4
_chemical_formula_sum              "Al8 H24 C40 N16 O40"
_cell_length_a       12.275
_cell_length_b       14.639
_cell_length_c       14.172
_cell_angle_alpha    90
_cell_angle_beta     101.585
_cell_angle_gamma    90

_symmetry_space_group_name_H-M    "P 1"
_symmetry_Int_Tables_number       1

loop_
  _symmetry_equiv_pos_as_xyz
  'x, y, z'

loop_
  _atom_site_type_symbol
  _atom_site_label
  _atom_site_symmetry_multiplicity
  _atom_site_fract_x
  _atom_site_fract_y
  _atom_site_fract_z
  _atom_site_occupancy
  _atom_site_charge
Al  Al1       1.0  0.76332  0.43826  0.55858  1.0000 1.6142858473
Al  Al2       1.0  0.23668  0.93826  0.94142  1.0000 1.6154538997
Al  Al3       1.0  0.23668  0.56174  0.44142  1.0000 1.6154538997
Al  Al4       1.0  0.76332  0.06174  0.05858  1.0000 1.6154538997
Al  Al5       1.0  0.50000  0.50000  0.50000  1.0000 1.6319810954
Al  Al6       1.0  0.50000  0.00000  0.00000  1.0000 1.6319810954
Al  Al7       1.0  0.00000  0.50000  0.50000  1.0000 1.6319810954
Al  Al8       1.0  0.00000  0.00000  0.00000  1.0000 1.6319810954
H   H1        1.0  0.67175  0.57729  0.50068  1.0000 0.4304379543
H   H2        1.0  0.81269  0.48537  0.41083  1.0000 0.4304379543
H   H3        1.0  0.78410  0.86662  0.27699  1.0000 0.2792704311
H   H4        1.0  0.40925  0.26289  0.85997  1.0000 0.2792704311
H   H5        1.0  0.08377  0.79382  0.25181  1.0000 0.172140157
H   H6        1.0  0.71331  0.27482  0.81408  1.0000 0.172140157
H   H7        1.0  0.32825  0.07729  0.99932  1.0000 0.4304379543
H   H8        1.0  0.18731  0.98537  0.08917  1.0000 0.4304379543
H   H9        1.0  0.21590  0.36662  0.22301  1.0000 0.2792704311
H   H10       1.0  0.59075  0.76289  0.64003  1.0000 0.2792704311
H   H11       1.0  0.91623  0.29382  0.24819  1.0000 0.172140157
H   H12       1.0  0.28669  0.77482  0.68592  1.0000 0.172140157
H   H13       1.0  0.32825  0.42271  0.49932  1.0000 0.4304379543
H   H14       1.0  0.18731  0.51463  0.58917  1.0000 0.4304379543
H   H15       1.0  0.21590  0.13338  0.72301  1.0000 0.2792704311
H   H16       1.0  0.59075  0.73711  0.14003  1.0000 0.2792704311
H   H17       1.0  0.91623  0.20618  0.74819  1.0000 0.172140157
H   H18       1.0  0.28669  0.72518  0.18592  1.0000 0.172140157
H   H19       1.0  0.67175  0.92271  0.00068  1.0000 0.4304379543
H   H20       1.0  0.81269  0.01463  0.91083  1.0000 0.4304379543
H   H21       1.0  0.78410  0.63338  0.77699  1.0000 0.2792704311
H   H22       1.0  0.40925  0.23711  0.35997  1.0000 0.2792704311
H   H23       1.0  0.08377  0.70618  0.75181  1.0000 0.172140157
H   H24       1.0  0.71331  0.22518  0.31408  1.0000 0.172140157
C   C1        1.0  0.59361  0.16709  0.93329  1.0000 0.5969320071
C   C2        1.0  0.01427  0.79676  0.26992  1.0000 -0.2352715971
C   C3        1.0  0.02929  0.66207  0.38882  1.0000 0.6160936681
C   C4        1.0  0.91651  0.92849  0.16389  1.0000 0.5969320071
C   C5        1.0  0.59186  0.39983  0.67092  1.0000 0.6149944273
C   C6        1.0  0.56692  0.34476  0.75101  1.0000 0.027430148
C   C7        1.0  0.56911  0.24345  0.86483  1.0000 0.027430148
C   C8        1.0  0.97432  0.74110  0.33525  1.0000 0.027430148
C   C9        1.0  0.63703  0.28480  0.81101  1.0000 -0.233075392
C   C10       1.0  0.92883  0.85688  0.23807  1.0000 0.0208575466
C   C11       1.0  0.40639  0.66709  0.56671  1.0000 0.5969320071
C   C12       1.0  0.98573  0.29676  0.23008  1.0000 -0.2352715971
C   C13       1.0  0.97071  0.16207  0.11118  1.0000 0.6160936681
C   C14       1.0  0.08349  0.42849  0.33611  1.0000 0.5969320071
C   C15       1.0  0.40814  0.89983  0.82908  1.0000 0.6149944273
C   C16       1.0  0.43308  0.84476  0.74899  1.0000 0.027430148
C   C17       1.0  0.43089  0.74345  0.63517  1.0000 0.027430148
C   C18       1.0  0.02568  0.24110  0.16475  1.0000 0.027430148
C   C19       1.0  0.36297  0.78480  0.68899  1.0000 -0.233075392
C   C20       1.0  0.07117  0.35688  0.26193  1.0000 0.0208575466
C   C21       1.0  0.40639  0.83291  0.06671  1.0000 0.5969320071
C   C22       1.0  0.98573  0.20324  0.73008  1.0000 -0.233075392
C   C23       1.0  0.97071  0.33793  0.61118  1.0000 0.6160936681
C   C24       1.0  0.08349  0.07151  0.83611  1.0000 0.5969320071
C   C25       1.0  0.40814  0.60017  0.32908  1.0000 0.6160936681
C   C26       1.0  0.43308  0.65524  0.24899  1.0000 0.027430148
C   C27       1.0  0.43089  0.75655  0.13517  1.0000 0.027430148
C   C28       1.0  0.02568  0.25890  0.66475  1.0000 0.027430148
C   C29       1.0  0.36297  0.71520  0.18899  1.0000 -0.233075392
C   C30       1.0  0.07117  0.14312  0.76193  1.0000 0.0208575466
C   C31       1.0  0.59361  0.33291  0.43329  1.0000 0.5969320071
C   C32       1.0  0.01427  0.70324  0.76992  1.0000 -0.233075392
C   C33       1.0  0.02929  0.83793  0.88882  1.0000 0.6160936681
C   C34       1.0  0.91651  0.57151  0.66389  1.0000 0.5969320071
C   C35       1.0  0.59186  0.10017  0.17092  1.0000 0.6149944273
C   C36       1.0  0.56692  0.15524  0.25101  1.0000 0.027430148
C   C37       1.0  0.56911  0.25655  0.36483  1.0000 0.027430148
C   C38       1.0  0.97432  0.75890  0.83525  1.0000 0.027430148
C   C39       1.0  0.63703  0.21520  0.31101  1.0000 -0.233075392
C   C40       1.0  0.92883  0.64312  0.73807  1.0000 0.0208575466
N   N1        1.0  0.87123  0.76571  0.34331  1.0000 -0.188280044
N   N2        1.0  0.84645  0.83664  0.28457  1.0000 -0.0547400879
N   N3        1.0  0.46658  0.27912  0.83645  1.0000 -0.0613940141
N   N4        1.0  0.46332  0.34215  0.76814  1.0000 -0.188280044
N   N5        1.0  0.12877  0.26571  0.15669  1.0000 -0.188280044
N   N6        1.0  0.15355  0.33664  0.21543  1.0000 -0.0613940141
N   N7        1.0  0.53342  0.77912  0.66355  1.0000 -0.0613940141
N   N8        1.0  0.53668  0.84215  0.73186  1.0000 -0.188280044
N   N9        1.0  0.12877  0.23429  0.65669  1.0000 -0.188280044
N   N10       1.0  0.15355  0.16336  0.71543  1.0000 -0.0613940141
N   N11       1.0  0.53342  0.72088  0.16355  1.0000 -0.0613940141
N   N12       1.0  0.53668  0.65785  0.23186  1.0000 -0.188280044
N   N13       1.0  0.87123  0.73429  0.84331  1.0000 -0.188280044
N   N14       1.0  0.84645  0.66336  0.78457  1.0000 -0.0613940141
N   N15       1.0  0.46658  0.22088  0.33645  1.0000 -0.0613940141
N   N16       1.0  0.46332  0.15785  0.26814  1.0000 -0.188280044
O   O1        1.0  0.65000  0.51852  0.51623  1.0000 -1.0191403421
O   O2        1.0  0.68754  0.38971  0.65339  1.0000 -0.5679212553
O   O3        1.0  0.84989  0.47656  0.47492  1.0000 -1.0191403421
O   O4        1.0  0.13091  0.65286  0.38878  1.0000 -0.5596154722
O   O5        1.0  0.83196  0.97887  0.15639  1.0000 -0.5870771053
O   O6        1.0  0.69460  0.15421  0.97009  1.0000 -0.5596154722
O   O7        1.0  0.97003  0.60947  0.42696  1.0000 -0.5679212553
O   O8        1.0  0.51548  0.44881  0.62498  1.0000 -0.5679212553
O   O9        1.0  0.51257  0.12051  0.94716  1.0000 -0.5820904913
O   O10       1.0  0.98974  0.93224  0.11408  1.0000 -0.5479668322
O   O11       1.0  0.35000  0.01852  0.98377  1.0000 -1.0136358532
O   O12       1.0  0.31246  0.88971  0.84661  1.0000 -0.5679212553
O   O13       1.0  0.15011  0.97656  0.02508  1.0000 -1.0191403421
O   O14       1.0  0.86909  0.15286  0.11122  1.0000 -0.5596154722
O   O15       1.0  0.16804  0.47887  0.34361  1.0000 -0.5870771053
O   O16       1.0  0.30540  0.65421  0.52991  1.0000 -0.5596154722
O   O17       1.0  0.02997  0.10947  0.07304  1.0000 -0.5679212553
O   O18       1.0  0.48452  0.94881  0.87502  1.0000 -0.5679212553
O   O19       1.0  0.48743  0.62051  0.55284  1.0000 -0.5820904913
O   O20       1.0  0.01026  0.43224  0.38592  1.0000 -0.5479668322
O   O21       1.0  0.35000  0.48148  0.48377  1.0000 -1.0136358532
O   O22       1.0  0.31246  0.61029  0.34661  1.0000 -0.5679212553
O   O23       1.0  0.15011  0.52344  0.52508  1.0000 -1.0191403421
O   O24       1.0  0.86909  0.34714  0.61122  1.0000 -0.5596154722
O   O25       1.0  0.16804  0.02113  0.84361  1.0000 -0.5870771053
O   O26       1.0  0.30540  0.84579  0.02991  1.0000 -0.5596154722
O   O27       1.0  0.02997  0.39053  0.57304  1.0000 -0.5679212553
O   O28       1.0  0.48452  0.55119  0.37502  1.0000 -0.5679212553
O   O29       1.0  0.48743  0.87949  0.05284  1.0000 -0.5820904913
O   O30       1.0  0.01026  0.06776  0.88592  1.0000 -0.5479668322
O   O31       1.0  0.65000  0.98148  0.01623  1.0000 -1.0136358532
O   O32       1.0  0.68754  0.11029  0.15339  1.0000 -0.5679212553
O   O33       1.0  0.84989  0.02344  0.97492  1.0000 -1.0191403421
O   O34       1.0  0.13091  0.84714  0.88878  1.0000 -0.5596154722
O   O35       1.0  0.83196  0.52113  0.65639  1.0000 -0.5870771053
O   O36       1.0  0.69460  0.34579  0.47009  1.0000 -0.5596154722
O   O37       1.0  0.97003  0.89053  0.92696  1.0000 -0.5679212553
O   O38       1.0  0.51548  0.05119  0.12498  1.0000 -0.5679212553
O   O39       1.0  0.51257  0.37949  0.44716  1.0000 -0.5820904913
O   O40       1.0  0.98974  0.56776  0.61408  1.0000 -0.5479668322
