# DDEC6 charges by PACMAN v1.1 (https://github.com/mtap-research/PACMAN-charge/)
data_2021[Al][nan]3[ASR]6
_chemical_formula_sum              "Al8 H24 C40 N16 O40"
_cell_length_a       12.299
_cell_length_b       14.722
_cell_length_c       14.116
_cell_angle_alpha    90
_cell_angle_beta     101.887
_cell_angle_gamma    90

_symmetry_space_group_name_H-M    "P 1"
_symmetry_Int_Tables_number       1

loop_
  _symmetry_equiv_pos_as_xyz
  'x, y, z'

loop_
  _atom_site_type_symbol
  _atom_site_label
  _atom_site_symmetry_multiplicity
  _atom_site_fract_x
  _atom_site_fract_y
  _atom_site_fract_z
  _atom_site_occupancy
  _atom_site_charge
Al  Al1       1.0  0.23627  0.43861  0.44120  1.0000 1.6138044919
Al  Al2       1.0  0.76373  0.93861  0.05880  1.0000 1.6138044919
Al  Al3       1.0  0.76373  0.56139  0.55880  1.0000 1.6138044919
Al  Al4       1.0  0.23627  0.06139  0.94120  1.0000 1.6138044919
Al  Al5       1.0  0.50000  0.50000  0.50000  1.0000 1.6311598148
Al  Al6       1.0  0.50000  0.00000  0.00000  1.0000 1.6311598148
Al  Al7       1.0  0.00000  0.50000  0.50000  1.0000 1.6311598148
Al  Al8       1.0  0.00000  0.00000  0.00000  1.0000 1.6311598148
H   H1        1.0  0.32850  0.57655  0.50029  1.0000 0.4309306803
H   H2        1.0  0.18823  0.48675  0.58987  1.0000 0.4309306803
H   H3        1.0  0.28621  0.27450  0.18433  1.0000 0.1716969449
H   H4        1.0  0.59073  0.26148  0.14096  1.0000 0.2790782626
H   H5        1.0  0.08303  0.20716  0.25136  1.0000 0.1716969449
H   H6        1.0  0.78553  0.13217  0.27888  1.0000 0.2790782626
H   H7        1.0  0.67150  0.07655  0.99971  1.0000 0.4309306803
H   H8        1.0  0.81177  0.98675  0.91013  1.0000 0.4309306803
H   H9        1.0  0.71379  0.77450  0.31567  1.0000 0.1716969449
H   H10       1.0  0.40927  0.76148  0.35904  1.0000 0.2790782626
H   H11       1.0  0.91697  0.70716  0.24864  1.0000 0.1716969449
H   H12       1.0  0.21447  0.63217  0.22112  1.0000 0.2790782626
H   H13       1.0  0.67150  0.42345  0.49971  1.0000 0.4309306803
H   H14       1.0  0.81177  0.51325  0.41013  1.0000 0.4309306803
H   H15       1.0  0.71379  0.72550  0.81567  1.0000 0.1716969449
H   H16       1.0  0.40927  0.73852  0.85904  1.0000 0.2790782626
H   H17       1.0  0.91697  0.79284  0.74864  1.0000 0.1716969449
H   H18       1.0  0.21447  0.86783  0.72112  1.0000 0.2790782626
H   H19       1.0  0.32850  0.92345  0.00029  1.0000 0.4309306803
H   H20       1.0  0.18823  0.01325  0.08987  1.0000 0.4309306803
H   H21       1.0  0.28621  0.22550  0.68433  1.0000 0.1716969449
H   H22       1.0  0.59073  0.23852  0.64096  1.0000 0.2790782626
H   H23       1.0  0.08303  0.29284  0.75136  1.0000 0.1716969449
H   H24       1.0  0.78553  0.36783  0.77888  1.0000 0.2790782626
C   C1        1.0  0.40713  0.40014  0.32806  1.0000 0.6147319402
C   C2        1.0  0.43263  0.34426  0.24847  1.0000 0.0305080828
C   C3        1.0  0.02895  0.33837  0.38895  1.0000 0.6154713358
C   C4        1.0  0.36253  0.28421  0.18813  1.0000 -0.2319600109
C   C5        1.0  0.97429  0.25890  0.33586  1.0000 0.0305080828
C   C6        1.0  0.43094  0.24242  0.13539  1.0000 0.0305080828
C   C7        1.0  0.01409  0.20357  0.27006  1.0000 -0.2319600109
C   C8        1.0  0.40628  0.16623  0.06641  1.0000 0.5982880991
C   C9        1.0  0.92951  0.14268  0.23891  1.0000 0.0183260923
C   C10       1.0  0.91705  0.07070  0.16514  1.0000 0.5982880991
C   C11       1.0  0.59287  0.90014  0.17194  1.0000 0.6154713358
C   C12       1.0  0.56737  0.84426  0.25153  1.0000 0.0305080828
C   C13       1.0  0.97105  0.83837  0.11105  1.0000 0.6154713358
C   C14       1.0  0.63747  0.78421  0.31187  1.0000 -0.2319600109
C   C15       1.0  0.02571  0.75890  0.16414  1.0000 0.0305080828
C   C16       1.0  0.56906  0.74242  0.36461  1.0000 0.0305080828
C   C17       1.0  0.98591  0.70357  0.22994  1.0000 -0.2319600109
C   C18       1.0  0.59372  0.66623  0.43359  1.0000 0.5982880991
C   C19       1.0  0.07049  0.64268  0.26109  1.0000 0.0183260923
C   C20       1.0  0.08295  0.57070  0.33486  1.0000 0.5982880991
C   C21       1.0  0.59287  0.59986  0.67194  1.0000 0.6154713358
C   C22       1.0  0.56737  0.65574  0.75153  1.0000 0.0305080828
C   C23       1.0  0.97105  0.66163  0.61105  1.0000 0.6154713358
C   C24       1.0  0.63747  0.71579  0.81187  1.0000 -0.2319600109
C   C25       1.0  0.02571  0.74110  0.66414  1.0000 0.0305080828
C   C26       1.0  0.56906  0.75758  0.86461  1.0000 0.0305080828
C   C27       1.0  0.98591  0.79643  0.72994  1.0000 -0.2319600109
C   C28       1.0  0.59372  0.83377  0.93359  1.0000 0.5982880991
C   C29       1.0  0.07049  0.85732  0.76109  1.0000 0.0183260923
C   C30       1.0  0.08295  0.92930  0.83486  1.0000 0.5982880991
C   C31       1.0  0.40713  0.09986  0.82806  1.0000 0.6147319402
C   C32       1.0  0.43263  0.15574  0.74847  1.0000 0.0305080828
C   C33       1.0  0.02895  0.16163  0.88895  1.0000 0.6154713358
C   C34       1.0  0.36253  0.21579  0.68813  1.0000 -0.2319600109
C   C35       1.0  0.97429  0.24110  0.83586  1.0000 0.0305080828
C   C36       1.0  0.43094  0.25758  0.63539  1.0000 0.0305080828
C   C37       1.0  0.01409  0.29643  0.77006  1.0000 -0.2319600109
C   C38       1.0  0.40628  0.33377  0.56641  1.0000 0.5982880991
C   C39       1.0  0.92951  0.35732  0.73891  1.0000 0.0183260923
C   C40       1.0  0.91705  0.42930  0.66514  1.0000 0.5982880991
N   N1        1.0  0.53663  0.34149  0.23234  1.0000 -0.1935889199
N   N2        1.0  0.53342  0.27793  0.16409  1.0000 -0.0633695705
N   N3        1.0  0.87196  0.23372  0.34478  1.0000 -0.1959086706
N   N4        1.0  0.84741  0.16249  0.28605  1.0000 -0.0633695705
N   N5        1.0  0.46337  0.84149  0.26766  1.0000 -0.1935889199
N   N6        1.0  0.46658  0.77793  0.33591  1.0000 -0.0633695705
N   N7        1.0  0.12804  0.73372  0.15522  1.0000 -0.1935889199
N   N8        1.0  0.15259  0.66249  0.21395  1.0000 -0.0633695705
N   N9        1.0  0.46337  0.65851  0.76766  1.0000 -0.1935889199
N   N10       1.0  0.46658  0.72207  0.83591  1.0000 -0.0633695705
N   N11       1.0  0.12804  0.76628  0.65522  1.0000 -0.1959086706
N   N12       1.0  0.15259  0.83751  0.71395  1.0000 -0.0633695705
N   N13       1.0  0.53663  0.15851  0.73234  1.0000 -0.1935889199
N   N14       1.0  0.53342  0.22207  0.66409  1.0000 -0.0633695705
N   N15       1.0  0.87196  0.26628  0.84478  1.0000 -0.1935889199
N   N16       1.0  0.84741  0.33751  0.78605  1.0000 -0.0633695705
O   O1        1.0  0.35002  0.51825  0.48414  1.0000 -1.0121819053
O   O2        1.0  0.48316  0.45045  0.37319  1.0000 -0.5719508056
O   O3        1.0  0.51241  0.62033  0.44814  1.0000 -0.5862081749
O   O4        1.0  0.15059  0.47733  0.52560  1.0000 -1.0169164215
O   O5        1.0  0.31197  0.38988  0.34575  1.0000 -0.5606826816
O   O6        1.0  0.16799  0.52123  0.34257  1.0000 -0.5862081749
O   O7        1.0  0.13010  0.34820  0.38801  1.0000 -0.5606826816
O   O8        1.0  0.30530  0.34694  0.53012  1.0000 -0.5606826816
O   O9        1.0  0.00897  0.56541  0.38396  1.0000 -0.5504973803
O   O10       1.0  0.96979  0.38996  0.42812  1.0000 -0.5606826816
O   O11       1.0  0.64998  0.01825  0.01586  1.0000 -1.0121819053
O   O12       1.0  0.51684  0.95045  0.12681  1.0000 -0.5719508056
O   O13       1.0  0.48759  0.12033  0.05186  1.0000 -0.5862081749
O   O14       1.0  0.84941  0.97733  0.97440  1.0000 -1.0169164215
O   O15       1.0  0.68803  0.88988  0.15425  1.0000 -0.5606826816
O   O16       1.0  0.83201  0.02123  0.15743  1.0000 -0.5849486862
O   O17       1.0  0.86990  0.84820  0.11199  1.0000 -0.5606826816
O   O18       1.0  0.69470  0.84694  0.96988  1.0000 -0.5606826816
O   O19       1.0  0.99103  0.06541  0.11604  1.0000 -0.5504973803
O   O20       1.0  0.03021  0.88996  0.07188  1.0000 -0.5606826816
O   O21       1.0  0.64998  0.48175  0.51586  1.0000 -1.0121819053
O   O22       1.0  0.51684  0.54955  0.62681  1.0000 -0.5719508056
O   O23       1.0  0.48759  0.37967  0.55186  1.0000 -0.5862081749
O   O24       1.0  0.84941  0.52267  0.47440  1.0000 -1.0169164215
O   O25       1.0  0.68803  0.61012  0.65425  1.0000 -0.5606826816
O   O26       1.0  0.83201  0.47877  0.65743  1.0000 -0.5862081749
O   O27       1.0  0.86990  0.65180  0.61199  1.0000 -0.5606826816
O   O28       1.0  0.69470  0.65306  0.46988  1.0000 -0.5606826816
O   O29       1.0  0.99103  0.43459  0.61604  1.0000 -0.5504973803
O   O30       1.0  0.03021  0.61004  0.57188  1.0000 -0.5606826816
O   O31       1.0  0.35002  0.98175  0.98414  1.0000 -1.0121819053
O   O32       1.0  0.48316  0.04955  0.87319  1.0000 -0.5719508056
O   O33       1.0  0.51241  0.87967  0.94814  1.0000 -0.5862081749
O   O34       1.0  0.15059  0.02267  0.02560  1.0000 -1.0169164215
O   O35       1.0  0.31197  0.11012  0.84575  1.0000 -0.5606826816
O   O36       1.0  0.16799  0.97877  0.84257  1.0000 -0.5862081749
O   O37       1.0  0.13010  0.15180  0.88801  1.0000 -0.5606826816
O   O38       1.0  0.30530  0.15306  0.03012  1.0000 -0.5606826816
O   O39       1.0  0.00897  0.93459  0.88396  1.0000 -0.5504973803
O   O40       1.0  0.96979  0.11004  0.92812  1.0000 -0.5606826816
