# DDEC6 charges by PACMAN v1.1 (https://github.com/mtap-research/PACMAN-charge/)
data_2021[Zr][reo]3[ASR]1
_chemical_formula_sum              "Zr36 H48 C144 S24 O144"
_cell_length_a       27.4952
_cell_length_b       27.4952
_cell_length_c       27.4952
_cell_angle_alpha    60
_cell_angle_beta     60
_cell_angle_gamma    60

_symmetry_space_group_name_H-M    "P 1"
_symmetry_Int_Tables_number       1

loop_
  _symmetry_equiv_pos_as_xyz
  'x, y, z'

loop_
  _atom_site_type_symbol
  _atom_site_label
  _atom_site_symmetry_multiplicity
  _atom_site_fract_x
  _atom_site_fract_y
  _atom_site_fract_z
  _atom_site_occupancy
  _atom_site_charge
Zr  Zr1       1.0  0.88786  0.54642  0.01930  1.0000 1.7972836016
Zr  Zr2       1.0  0.01930  0.54642  0.88786  1.0000 1.7918144795
Zr  Zr3       1.0  0.54642  0.88786  0.54642  1.0000 1.7918144795
Zr  Zr4       1.0  0.54642  0.01930  0.54642  1.0000 1.7918144795
Zr  Zr5       1.0  0.54642  0.01930  0.88786  1.0000 1.7918144795
Zr  Zr6       1.0  0.54642  0.88786  0.01930  1.0000 1.7972836016
Zr  Zr7       1.0  0.88786  0.54642  0.54642  1.0000 1.7972836016
Zr  Zr8       1.0  0.01930  0.54642  0.54642  1.0000 1.7972836016
Zr  Zr9       1.0  0.01930  0.88786  0.54642  1.0000 1.7918144795
Zr  Zr10      1.0  0.88786  0.01930  0.54642  1.0000 1.7972836016
Zr  Zr11      1.0  0.54642  0.54642  0.88786  1.0000 1.7918144795
Zr  Zr12      1.0  0.54642  0.54642  0.01930  1.0000 1.7918144795
Zr  Zr13      1.0  0.11214  0.45358  0.98070  1.0000 1.7972836016
Zr  Zr14      1.0  0.98070  0.45358  0.11214  1.0000 1.7972836016
Zr  Zr15      1.0  0.45358  0.98070  0.45358  1.0000 1.7918144795
Zr  Zr16      1.0  0.45358  0.11214  0.45358  1.0000 1.7918144795
Zr  Zr17      1.0  0.45358  0.45358  0.11214  1.0000 1.7972836016
Zr  Zr18      1.0  0.45358  0.45358  0.98070  1.0000 1.7918144795
Zr  Zr19      1.0  0.11214  0.98070  0.45358  1.0000 1.7918144795
Zr  Zr20      1.0  0.98070  0.11214  0.45358  1.0000 1.7972836016
Zr  Zr21      1.0  0.98070  0.45358  0.45358  1.0000 1.7972836016
Zr  Zr22      1.0  0.11214  0.45358  0.45358  1.0000 1.7918144795
Zr  Zr23      1.0  0.45358  0.98070  0.11214  1.0000 1.7972836016
Zr  Zr24      1.0  0.45358  0.11214  0.98070  1.0000 1.7918144795
Zr  Zr25      1.0  0.00000  0.59312  0.00000  1.0000 1.8758188496
Zr  Zr26      1.0  0.00000  0.40688  0.00000  1.0000 1.8734451343
Zr  Zr27      1.0  0.59312  0.00000  0.40688  1.0000 1.8758188496
Zr  Zr28      1.0  0.40688  0.00000  0.59312  1.0000 1.8734451343
Zr  Zr29      1.0  0.59312  0.00000  0.00000  1.0000 1.8758188496
Zr  Zr30      1.0  0.40688  0.00000  0.00000  1.0000 1.8758188496
Zr  Zr31      1.0  0.00000  0.40688  0.59312  1.0000 1.8734451343
Zr  Zr32      1.0  0.00000  0.59312  0.40688  1.0000 1.8734451343
Zr  Zr33      1.0  0.00000  0.00000  0.59312  1.0000 1.8734451343
Zr  Zr34      1.0  0.00000  0.00000  0.40688  1.0000 1.8734451343
Zr  Zr35      1.0  0.40688  0.59312  0.00000  1.0000 1.8758188496
Zr  Zr36      1.0  0.59312  0.40688  0.00000  1.0000 1.8758188496
H   H1        1.0  0.98278  0.78362  0.86916  1.0000 0.0837402455
H   H2        1.0  0.86916  0.36444  0.98278  1.0000 0.0837402455
H   H3        1.0  0.78362  0.98278  0.36444  1.0000 0.0837402455
H   H4        1.0  0.36444  0.86916  0.78362  1.0000 0.0837402455
H   H5        1.0  0.78362  0.86916  0.98278  1.0000 0.0837402455
H   H6        1.0  0.36444  0.98278  0.86916  1.0000 0.0837402455
H   H7        1.0  0.98278  0.36444  0.78362  1.0000 0.0837402455
H   H8        1.0  0.86916  0.78362  0.36444  1.0000 0.0837402455
H   H9        1.0  0.86916  0.98278  0.78362  1.0000 0.0837402455
H   H10       1.0  0.98278  0.86916  0.36444  1.0000 0.0837402455
H   H11       1.0  0.36444  0.78362  0.98278  1.0000 0.0837402455
H   H12       1.0  0.78362  0.36444  0.86916  1.0000 0.0837402455
H   H13       1.0  0.01722  0.63556  0.13084  1.0000 0.0837402455
H   H14       1.0  0.13084  0.21638  0.01722  1.0000 0.0837402455
H   H15       1.0  0.21638  0.13084  0.63556  1.0000 0.0837402455
H   H16       1.0  0.63556  0.01722  0.21638  1.0000 0.0837402455
H   H17       1.0  0.21638  0.63556  0.01722  1.0000 0.0837402455
H   H18       1.0  0.63556  0.21638  0.13084  1.0000 0.0837402455
H   H19       1.0  0.01722  0.13084  0.21638  1.0000 0.0837402455
H   H20       1.0  0.13084  0.01722  0.63556  1.0000 0.0837402455
H   H21       1.0  0.13084  0.63556  0.21638  1.0000 0.0837402455
H   H22       1.0  0.01722  0.21638  0.63556  1.0000 0.0837402455
H   H23       1.0  0.63556  0.13084  0.01722  1.0000 0.0837402455
H   H24       1.0  0.21638  0.01722  0.13084  1.0000 0.0837402455
H   H25       1.0  0.01722  0.21638  0.13084  1.0000 0.0837402455
H   H26       1.0  0.13084  0.63556  0.01722  1.0000 0.0837402455
H   H27       1.0  0.21638  0.01722  0.63556  1.0000 0.0837402455
H   H28       1.0  0.63556  0.13084  0.21638  1.0000 0.0837402455
H   H29       1.0  0.21638  0.13084  0.01722  1.0000 0.0837402455
H   H30       1.0  0.63556  0.01722  0.13084  1.0000 0.0837402455
H   H31       1.0  0.01722  0.63556  0.21638  1.0000 0.0837402455
H   H32       1.0  0.13084  0.21638  0.63556  1.0000 0.0837402455
H   H33       1.0  0.13084  0.01722  0.21638  1.0000 0.0837402455
H   H34       1.0  0.01722  0.13084  0.63556  1.0000 0.0837402455
H   H35       1.0  0.63556  0.21638  0.01722  1.0000 0.0837402455
H   H36       1.0  0.21638  0.63556  0.13084  1.0000 0.0837402455
H   H37       1.0  0.98278  0.36444  0.86916  1.0000 0.0837402455
H   H38       1.0  0.86916  0.78362  0.98278  1.0000 0.0837402455
H   H39       1.0  0.78362  0.86916  0.36444  1.0000 0.0837402455
H   H40       1.0  0.36444  0.98278  0.78362  1.0000 0.0837402455
H   H41       1.0  0.78362  0.36444  0.98278  1.0000 0.0837402455
H   H42       1.0  0.36444  0.78362  0.86916  1.0000 0.0837402455
H   H43       1.0  0.98278  0.86916  0.78362  1.0000 0.0837402455
H   H44       1.0  0.86916  0.98278  0.36444  1.0000 0.0837402455
H   H45       1.0  0.86916  0.36444  0.78362  1.0000 0.0837402455
H   H46       1.0  0.98278  0.78362  0.36444  1.0000 0.0837402455
H   H47       1.0  0.36444  0.86916  0.98278  1.0000 0.0837402455
H   H48       1.0  0.78362  0.98278  0.86916  1.0000 0.0837402455
C   C1        1.0  0.02232  0.67714  0.86724  1.0000 0.5913860609
C   C2        1.0  0.99733  0.73465  0.82369  1.0000 -0.2331418288
C   C3        1.0  0.00061  0.77953  0.82885  1.0000 -0.1674440976
C   C4        1.0  0.86724  0.43330  0.02232  1.0000 0.5913860609
C   C5        1.0  0.82369  0.44433  0.99733  1.0000 -0.2331418288
C   C6        1.0  0.82885  0.39101  0.00061  1.0000 -0.1674440976
C   C7        1.0  0.67714  0.02232  0.43330  1.0000 0.5913860609
C   C8        1.0  0.73465  0.99733  0.44433  1.0000 -0.2331418288
C   C9        1.0  0.77953  0.00061  0.39101  1.0000 -0.1674440976
C   C10       1.0  0.43330  0.86724  0.67714  1.0000 0.5913860609
C   C11       1.0  0.44433  0.82369  0.73465  1.0000 -0.2331418288
C   C12       1.0  0.39101  0.82885  0.77953  1.0000 -0.1674440976
C   C13       1.0  0.67714  0.86724  0.02232  1.0000 0.5913860609
C   C14       1.0  0.73465  0.82369  0.99733  1.0000 -0.2331418288
C   C15       1.0  0.77953  0.82885  0.00061  1.0000 -0.1674440976
C   C16       1.0  0.43330  0.02232  0.86724  1.0000 0.5913860609
C   C17       1.0  0.44433  0.99733  0.82369  1.0000 -0.2331418288
C   C18       1.0  0.39101  0.00061  0.82885  1.0000 -0.1674440976
C   C19       1.0  0.02232  0.43330  0.67714  1.0000 0.5913860609
C   C20       1.0  0.99733  0.44433  0.73465  1.0000 -0.2331418288
C   C21       1.0  0.00061  0.39101  0.77953  1.0000 -0.1674440976
C   C22       1.0  0.86724  0.67714  0.43330  1.0000 0.5913860609
C   C23       1.0  0.82369  0.73465  0.44433  1.0000 -0.2331418288
C   C24       1.0  0.82885  0.77953  0.39101  1.0000 -0.1674440976
C   C25       1.0  0.86724  0.02232  0.67714  1.0000 0.5913860609
C   C26       1.0  0.82369  0.99733  0.73465  1.0000 -0.2331418288
C   C27       1.0  0.82885  0.00061  0.77953  1.0000 -0.1674440976
C   C28       1.0  0.02232  0.86724  0.43330  1.0000 0.5913860609
C   C29       1.0  0.99733  0.82369  0.44433  1.0000 -0.2331418288
C   C30       1.0  0.00061  0.82885  0.39101  1.0000 -0.1674440976
C   C31       1.0  0.43330  0.67714  0.02232  1.0000 0.5913860609
C   C32       1.0  0.44433  0.73465  0.99733  1.0000 -0.2331418288
C   C33       1.0  0.39101  0.77953  0.00061  1.0000 -0.1674440976
C   C34       1.0  0.67714  0.43330  0.86724  1.0000 0.5913860609
C   C35       1.0  0.73465  0.44433  0.82369  1.0000 -0.2331418288
C   C36       1.0  0.77953  0.39101  0.82885  1.0000 -0.1674440976
C   C37       1.0  0.97768  0.56670  0.13276  1.0000 0.5913860609
C   C38       1.0  0.00267  0.55567  0.17631  1.0000 -0.2331418288
C   C39       1.0  0.99939  0.60899  0.17115  1.0000 -0.1674440976
C   C40       1.0  0.13276  0.32286  0.97768  1.0000 0.5913860609
C   C41       1.0  0.17631  0.26535  0.00267  1.0000 -0.2331418288
C   C42       1.0  0.17115  0.22047  0.99939  1.0000 -0.1674440976
C   C43       1.0  0.32286  0.13276  0.56670  1.0000 0.5913860609
C   C44       1.0  0.26535  0.17631  0.55567  1.0000 -0.2331418288
C   C45       1.0  0.22047  0.17115  0.60899  1.0000 -0.1674440976
C   C46       1.0  0.56670  0.97768  0.32286  1.0000 0.5913860609
C   C47       1.0  0.55567  0.00267  0.26535  1.0000 -0.2331418288
C   C48       1.0  0.60899  0.99939  0.22047  1.0000 -0.1674440976
C   C49       1.0  0.32286  0.56670  0.97768  1.0000 0.5913860609
C   C50       1.0  0.26535  0.55567  0.00267  1.0000 -0.2331418288
C   C51       1.0  0.22047  0.60899  0.99939  1.0000 -0.1674440976
C   C52       1.0  0.56670  0.32286  0.13276  1.0000 0.5913860609
C   C53       1.0  0.55567  0.26535  0.17631  1.0000 -0.2360524227
C   C54       1.0  0.60899  0.22047  0.17115  1.0000 -0.1674440976
C   C55       1.0  0.97768  0.13276  0.32286  1.0000 0.5913860609
C   C56       1.0  0.00267  0.17631  0.26535  1.0000 -0.2360524227
C   C57       1.0  0.99939  0.17115  0.22047  1.0000 -0.1674440976
C   C58       1.0  0.13276  0.97768  0.56670  1.0000 0.5913860609
C   C59       1.0  0.17631  0.00267  0.55567  1.0000 -0.2331418288
C   C60       1.0  0.17115  0.99939  0.60899  1.0000 -0.1674440976
C   C61       1.0  0.13276  0.56670  0.32286  1.0000 0.5913860609
C   C62       1.0  0.17631  0.55567  0.26535  1.0000 -0.2331418288
C   C63       1.0  0.17115  0.60899  0.22047  1.0000 -0.1674440976
C   C64       1.0  0.97768  0.32286  0.56670  1.0000 0.5913860609
C   C65       1.0  0.00267  0.26535  0.55567  1.0000 -0.2331418288
C   C66       1.0  0.99939  0.22047  0.60899  1.0000 -0.1674440976
C   C67       1.0  0.56670  0.13276  0.97768  1.0000 0.5913860609
C   C68       1.0  0.55567  0.17631  0.00267  1.0000 -0.2331418288
C   C69       1.0  0.60899  0.17115  0.99939  1.0000 -0.1674440976
C   C70       1.0  0.32286  0.97768  0.13276  1.0000 0.5913860609
C   C71       1.0  0.26535  0.00267  0.17631  1.0000 -0.2331418288
C   C72       1.0  0.22047  0.99939  0.17115  1.0000 -0.1674440976
C   C73       1.0  0.97768  0.32286  0.13276  1.0000 0.5913860609
C   C74       1.0  0.00267  0.26535  0.17631  1.0000 -0.2331418288
C   C75       1.0  0.99939  0.22047  0.17115  1.0000 -0.1674440976
C   C76       1.0  0.13276  0.56670  0.97768  1.0000 0.5913860609
C   C77       1.0  0.17631  0.55567  0.00267  1.0000 -0.2331418288
C   C78       1.0  0.17115  0.60899  0.99939  1.0000 -0.1674440976
C   C79       1.0  0.32286  0.97768  0.56670  1.0000 0.5913860609
C   C80       1.0  0.26535  0.00267  0.55567  1.0000 -0.2331418288
C   C81       1.0  0.22047  0.99939  0.60899  1.0000 -0.1674440976
C   C82       1.0  0.56670  0.13276  0.32286  1.0000 0.5913860609
C   C83       1.0  0.55567  0.17631  0.26535  1.0000 -0.2331418288
C   C84       1.0  0.60899  0.17115  0.22047  1.0000 -0.1674440976
C   C85       1.0  0.32286  0.13276  0.97768  1.0000 0.5913860609
C   C86       1.0  0.26535  0.17631  0.00267  1.0000 -0.2331418288
C   C87       1.0  0.22047  0.17115  0.99939  1.0000 -0.1674440976
C   C88       1.0  0.56670  0.97768  0.13276  1.0000 0.5913860609
C   C89       1.0  0.55567  0.00267  0.17631  1.0000 -0.2331418288
C   C90       1.0  0.60899  0.99939  0.17115  1.0000 -0.1674440976
C   C91       1.0  0.97768  0.56670  0.32286  1.0000 0.5913860609
C   C92       1.0  0.00267  0.55567  0.26535  1.0000 -0.2331418288
C   C93       1.0  0.99939  0.60899  0.22047  1.0000 -0.1674440976
C   C94       1.0  0.13276  0.32286  0.56670  1.0000 0.5913860609
C   C95       1.0  0.17631  0.26535  0.55567  1.0000 -0.2331418288
C   C96       1.0  0.17115  0.22047  0.60899  1.0000 -0.1674440976
C   C97       1.0  0.13276  0.97768  0.32286  1.0000 0.5913860609
C   C98       1.0  0.17631  0.00267  0.26535  1.0000 -0.2331418288
C   C99       1.0  0.17115  0.99939  0.22047  1.0000 -0.1674440976
C   C100      1.0  0.97768  0.13276  0.56670  1.0000 0.5913860609
C   C101      1.0  0.00267  0.17631  0.55567  1.0000 -0.2331418288
C   C102      1.0  0.99939  0.17115  0.60899  1.0000 -0.1674440976
C   C103      1.0  0.56670  0.32286  0.97768  1.0000 0.5913860609
C   C104      1.0  0.55567  0.26535  0.00267  1.0000 -0.2331418288
C   C105      1.0  0.60899  0.22047  0.99939  1.0000 -0.1674440976
C   C106      1.0  0.32286  0.56670  0.13276  1.0000 0.5913860609
C   C107      1.0  0.26535  0.55567  0.17631  1.0000 -0.2331418288
C   C108      1.0  0.22047  0.60899  0.17115  1.0000 -0.1674440976
C   C109      1.0  0.02232  0.43330  0.86724  1.0000 0.5913860609
C   C110      1.0  0.99733  0.44433  0.82369  1.0000 -0.2331418288
C   C111      1.0  0.00061  0.39101  0.82885  1.0000 -0.1674440976
C   C112      1.0  0.86724  0.67714  0.02232  1.0000 0.5913860609
C   C113      1.0  0.82369  0.73465  0.99733  1.0000 -0.2331418288
C   C114      1.0  0.82885  0.77953  0.00061  1.0000 -0.1674440976
C   C115      1.0  0.67714  0.86724  0.43330  1.0000 0.5913860609
C   C116      1.0  0.73465  0.82369  0.44433  1.0000 -0.2331418288
C   C117      1.0  0.77953  0.82885  0.39101  1.0000 -0.1674440976
C   C118      1.0  0.43330  0.02232  0.67714  1.0000 0.5913860609
C   C119      1.0  0.44433  0.99733  0.73465  1.0000 -0.2331418288
C   C120      1.0  0.39101  0.00061  0.77953  1.0000 -0.1674440976
C   C121      1.0  0.67714  0.43330  0.02232  1.0000 0.5913860609
C   C122      1.0  0.73465  0.44433  0.99733  1.0000 -0.2331418288
C   C123      1.0  0.77953  0.39101  0.00061  1.0000 -0.1674440976
C   C124      1.0  0.43330  0.67714  0.86724  1.0000 0.5913860609
C   C125      1.0  0.44433  0.73465  0.82369  1.0000 -0.2331418288
C   C126      1.0  0.39101  0.77953  0.82885  1.0000 -0.1674440976
C   C127      1.0  0.02232  0.86724  0.67714  1.0000 0.5913860609
C   C128      1.0  0.99733  0.82369  0.73465  1.0000 -0.2331418288
C   C129      1.0  0.00061  0.82885  0.77953  1.0000 -0.1674440976
C   C130      1.0  0.86724  0.02232  0.43330  1.0000 0.5913860609
C   C131      1.0  0.82369  0.99733  0.44433  1.0000 -0.2331418288
C   C132      1.0  0.82885  0.00061  0.39101  1.0000 -0.1674440976
C   C133      1.0  0.86724  0.43330  0.67714  1.0000 0.5913860609
C   C134      1.0  0.82369  0.44433  0.73465  1.0000 -0.2331418288
C   C135      1.0  0.82885  0.39101  0.77953  1.0000 -0.1674440976
C   C136      1.0  0.02232  0.67714  0.43330  1.0000 0.5913860609
C   C137      1.0  0.99733  0.73465  0.44433  1.0000 -0.2331418288
C   C138      1.0  0.00061  0.77953  0.39101  1.0000 -0.1674440976
C   C139      1.0  0.43330  0.86724  0.02232  1.0000 0.5913860609
C   C140      1.0  0.44433  0.82369  0.99733  1.0000 -0.2331418288
C   C141      1.0  0.39101  0.82885  0.00061  1.0000 -0.1674440976
C   C142      1.0  0.67714  0.02232  0.86724  1.0000 0.5913860609
C   C143      1.0  0.73465  0.99733  0.82369  1.0000 -0.2331418288
C   C144      1.0  0.77953  0.00061  0.82885  1.0000 -0.1674440976
S   S1        1.0  0.99448  0.75470  0.75470  1.0000 0.0868526997
S   S2        1.0  0.75470  0.49612  0.99448  1.0000 0.0868526997
S   S3        1.0  0.75470  0.99448  0.49612  1.0000 0.0868526997
S   S4        1.0  0.49612  0.75470  0.75470  1.0000 0.0868526997
S   S5        1.0  0.75470  0.75470  0.99448  1.0000 0.0868526997
S   S6        1.0  0.49612  0.99448  0.75470  1.0000 0.0868526997
S   S7        1.0  0.99448  0.49612  0.75470  1.0000 0.0868526997
S   S8        1.0  0.75470  0.75470  0.49612  1.0000 0.0868526997
S   S9        1.0  0.75470  0.99448  0.75470  1.0000 0.0868526997
S   S10       1.0  0.99448  0.75470  0.49612  1.0000 0.0868526997
S   S11       1.0  0.49612  0.75470  0.99448  1.0000 0.0868526997
S   S12       1.0  0.75470  0.49612  0.75470  1.0000 0.0868526997
S   S13       1.0  0.00552  0.50388  0.24530  1.0000 0.0837402455
S   S14       1.0  0.24530  0.24530  0.00552  1.0000 0.0837402455
S   S15       1.0  0.24530  0.24530  0.50388  1.0000 0.0868526997
S   S16       1.0  0.50388  0.00552  0.24530  1.0000 0.0868526997
S   S17       1.0  0.24530  0.50388  0.00552  1.0000 0.0868526997
S   S18       1.0  0.50388  0.24530  0.24530  1.0000 0.0868526997
S   S19       1.0  0.00552  0.24530  0.24530  1.0000 0.0868526997
S   S20       1.0  0.24530  0.00552  0.50388  1.0000 0.0868526997
S   S21       1.0  0.24530  0.50388  0.24530  1.0000 0.0837402455
S   S22       1.0  0.00552  0.24530  0.50388  1.0000 0.0868526997
S   S23       1.0  0.50388  0.24530  0.00552  1.0000 0.0868526997
S   S24       1.0  0.24530  0.00552  0.24530  1.0000 0.0868526997
O   O1        1.0  0.00449  0.67077  0.92165  1.0000 -0.5724093085
O   O2        1.0  0.03237  0.62499  0.87215  1.0000 -0.6539739707
O   O3        1.0  0.92165  0.40309  0.00449  1.0000 -0.5724093085
O   O4        1.0  0.87215  0.47049  0.03237  1.0000 -0.6539739707
O   O5        1.0  0.67077  0.00449  0.40309  1.0000 -0.5724093085
O   O6        1.0  0.62499  0.03237  0.47049  1.0000 -0.6539739707
O   O7        1.0  0.40309  0.92165  0.67077  1.0000 -0.5724093085
O   O8        1.0  0.47049  0.87215  0.62499  1.0000 -0.6539739707
O   O9        1.0  0.67077  0.92165  0.00449  1.0000 -0.5724093085
O   O10       1.0  0.62499  0.87215  0.03237  1.0000 -0.6539739707
O   O11       1.0  0.40309  0.00449  0.92165  1.0000 -0.5724093085
O   O12       1.0  0.47049  0.03237  0.87215  1.0000 -0.6579284448
O   O13       1.0  0.00449  0.40309  0.67077  1.0000 -0.5724093085
O   O14       1.0  0.03237  0.47049  0.62499  1.0000 -0.6579284448
O   O15       1.0  0.92165  0.67077  0.40309  1.0000 -0.5724093085
O   O16       1.0  0.87215  0.62499  0.47049  1.0000 -0.6579284448
O   O17       1.0  0.92165  0.00449  0.67077  1.0000 -0.5724093085
O   O18       1.0  0.87215  0.03237  0.62499  1.0000 -0.6579284448
O   O19       1.0  0.00449  0.92165  0.40309  1.0000 -0.5724093085
O   O20       1.0  0.03237  0.87215  0.47049  1.0000 -0.6539739707
O   O21       1.0  0.40309  0.67077  0.00449  1.0000 -0.5724093085
O   O22       1.0  0.47049  0.62499  0.03237  1.0000 -0.6539739707
O   O23       1.0  0.67077  0.40309  0.92165  1.0000 -0.5724093085
O   O24       1.0  0.62499  0.47049  0.87215  1.0000 -0.6579284448
O   O25       1.0  0.99551  0.59691  0.07835  1.0000 -0.5724093085
O   O26       1.0  0.96763  0.52951  0.12785  1.0000 -0.6579284448
O   O27       1.0  0.07835  0.32923  0.99551  1.0000 -0.5724093085
O   O28       1.0  0.12785  0.37501  0.96763  1.0000 -0.6579284448
O   O29       1.0  0.32923  0.07835  0.59691  1.0000 -0.5724093085
O   O30       1.0  0.37501  0.12785  0.52951  1.0000 -0.6539739707
O   O31       1.0  0.59691  0.99551  0.32923  1.0000 -0.5724093085
O   O32       1.0  0.52951  0.96763  0.37501  1.0000 -0.6539739707
O   O33       1.0  0.32923  0.59691  0.99551  1.0000 -0.5724093085
O   O34       1.0  0.37501  0.52951  0.96763  1.0000 -0.6579284448
O   O35       1.0  0.59691  0.32923  0.07835  1.0000 -0.5724093085
O   O36       1.0  0.52951  0.37501  0.12785  1.0000 -0.6539739707
O   O37       1.0  0.99551  0.07835  0.32923  1.0000 -0.5724093085
O   O38       1.0  0.96763  0.12785  0.37501  1.0000 -0.6539739707
O   O39       1.0  0.07835  0.99551  0.59691  1.0000 -0.5724093085
O   O40       1.0  0.12785  0.96763  0.52951  1.0000 -0.6539739707
O   O41       1.0  0.07835  0.59691  0.32923  1.0000 -0.5724093085
O   O42       1.0  0.12785  0.52951  0.37501  1.0000 -0.6539739707
O   O43       1.0  0.99551  0.32923  0.59691  1.0000 -0.5724093085
O   O44       1.0  0.96763  0.37501  0.52951  1.0000 -0.6539739707
O   O45       1.0  0.59691  0.07835  0.99551  1.0000 -0.5724093085
O   O46       1.0  0.52951  0.12785  0.96763  1.0000 -0.6579284448
O   O47       1.0  0.32923  0.99551  0.07835  1.0000 -0.5724093085
O   O48       1.0  0.37501  0.96763  0.12785  1.0000 -0.6539739707
O   O49       1.0  0.99551  0.32923  0.07835  1.0000 -0.5724093085
O   O50       1.0  0.96763  0.37501  0.12785  1.0000 -0.6579284448
O   O51       1.0  0.07835  0.59691  0.99551  1.0000 -0.5724093085
O   O52       1.0  0.12785  0.52951  0.96763  1.0000 -0.6579284448
O   O53       1.0  0.32923  0.99551  0.59691  1.0000 -0.5724093085
O   O54       1.0  0.37501  0.96763  0.52951  1.0000 -0.6539739707
O   O55       1.0  0.59691  0.07835  0.32923  1.0000 -0.5724093085
O   O56       1.0  0.52951  0.12785  0.37501  1.0000 -0.6539739707
O   O57       1.0  0.32923  0.07835  0.99551  1.0000 -0.5724093085
O   O58       1.0  0.37501  0.12785  0.96763  1.0000 -0.6579284448
O   O59       1.0  0.59691  0.99551  0.07835  1.0000 -0.5724093085
O   O60       1.0  0.52951  0.96763  0.12785  1.0000 -0.6579284448
O   O61       1.0  0.99551  0.59691  0.32923  1.0000 -0.5724093085
O   O62       1.0  0.96763  0.52951  0.37501  1.0000 -0.6539739707
O   O63       1.0  0.07835  0.32923  0.59691  1.0000 -0.5724093085
O   O64       1.0  0.12785  0.37501  0.52951  1.0000 -0.6539739707
O   O65       1.0  0.07835  0.99551  0.32923  1.0000 -0.5724093085
O   O66       1.0  0.12785  0.96763  0.37501  1.0000 -0.6539739707
O   O67       1.0  0.99551  0.07835  0.59691  1.0000 -0.5724093085
O   O68       1.0  0.96763  0.12785  0.52951  1.0000 -0.6579284448
O   O69       1.0  0.59691  0.32923  0.99551  1.0000 -0.5724093085
O   O70       1.0  0.52951  0.37501  0.96763  1.0000 -0.6579284448
O   O71       1.0  0.32923  0.59691  0.07835  1.0000 -0.5724093085
O   O72       1.0  0.37501  0.52951  0.12785  1.0000 -0.6539739707
O   O73       1.0  0.00449  0.40309  0.92165  1.0000 -0.5724093085
O   O74       1.0  0.03237  0.47049  0.87215  1.0000 -0.6539739707
O   O75       1.0  0.92165  0.67077  0.00449  1.0000 -0.5724093085
O   O76       1.0  0.87215  0.62499  0.03237  1.0000 -0.6539739707
O   O77       1.0  0.67077  0.92165  0.40309  1.0000 -0.5724093085
O   O78       1.0  0.62499  0.87215  0.47049  1.0000 -0.6539739707
O   O79       1.0  0.40309  0.00449  0.67077  1.0000 -0.5724093085
O   O80       1.0  0.47049  0.03237  0.62499  1.0000 -0.6539739707
O   O81       1.0  0.67077  0.40309  0.00449  1.0000 -0.5724093085
O   O82       1.0  0.62499  0.47049  0.03237  1.0000 -0.6539739707
O   O83       1.0  0.40309  0.67077  0.92165  1.0000 -0.5724093085
O   O84       1.0  0.47049  0.62499  0.87215  1.0000 -0.6539739707
O   O85       1.0  0.00449  0.92165  0.67077  1.0000 -0.5724093085
O   O86       1.0  0.03237  0.87215  0.62499  1.0000 -0.6539739707
O   O87       1.0  0.92165  0.00449  0.40309  1.0000 -0.5724093085
O   O88       1.0  0.87215  0.03237  0.47049  1.0000 -0.6539739707
O   O89       1.0  0.92165  0.40309  0.67077  1.0000 -0.5724093085
O   O90       1.0  0.87215  0.47049  0.62499  1.0000 -0.6539739707
O   O91       1.0  0.00449  0.67077  0.40309  1.0000 -0.5724093085
O   O92       1.0  0.03237  0.62499  0.47049  1.0000 -0.6579284448
O   O93       1.0  0.40309  0.92165  0.00449  1.0000 -0.5724093085
O   O94       1.0  0.47049  0.87215  0.03237  1.0000 -0.6539739707
O   O95       1.0  0.67077  0.00449  0.92165  1.0000 -0.5724093085
O   O96       1.0  0.62499  0.03237  0.87215  1.0000 -0.6579284448
O   O97       1.0  0.98027  0.53961  0.98027  1.0000 -0.1809420322
O   O98       1.0  0.98027  0.49985  0.98027  1.0000 -0.1809420322
O   O99       1.0  0.53961  0.98027  0.49985  1.0000 -0.1809420322
O   O100      1.0  0.49985  0.98027  0.53961  1.0000 -0.1809420322
O   O101      1.0  0.53961  0.98027  0.98027  1.0000 -0.1809420322
O   O102      1.0  0.49985  0.98027  0.98027  1.0000 -0.1809420322
O   O103      1.0  0.98027  0.49985  0.53961  1.0000 -0.1809420322
O   O104      1.0  0.98027  0.53961  0.49985  1.0000 -0.1809420322
O   O105      1.0  0.98027  0.98027  0.53961  1.0000 -0.1809420322
O   O106      1.0  0.98027  0.98027  0.49985  1.0000 -0.1809420322
O   O107      1.0  0.49985  0.53961  0.98027  1.0000 -0.1809420322
O   O108      1.0  0.53961  0.49985  0.98027  1.0000 -0.1809420322
O   O109      1.0  0.01973  0.50015  0.01973  1.0000 -0.1859965687
O   O110      1.0  0.01973  0.46039  0.01973  1.0000 -0.1859965687
O   O111      1.0  0.46039  0.01973  0.50015  1.0000 -0.1809420322
O   O112      1.0  0.50015  0.01973  0.46039  1.0000 -0.1809420322
O   O113      1.0  0.46039  0.50015  0.01973  1.0000 -0.1809420322
O   O114      1.0  0.50015  0.46039  0.01973  1.0000 -0.1809420322
O   O115      1.0  0.01973  0.01973  0.46039  1.0000 -0.1809420322
O   O116      1.0  0.01973  0.01973  0.50015  1.0000 -0.1809420322
O   O117      1.0  0.01973  0.50015  0.46039  1.0000 -0.1809420322
O   O118      1.0  0.01973  0.46039  0.50015  1.0000 -0.1809420322
O   O119      1.0  0.50015  0.01973  0.01973  1.0000 -0.1809420322
O   O120      1.0  0.46039  0.01973  0.01973  1.0000 -0.1809420322
O   O121      1.0  0.05490  0.53826  0.94510  1.0000 -0.72949893
O   O122      1.0  0.94510  0.46174  0.05490  1.0000 -0.72949893
O   O123      1.0  0.53826  0.05490  0.46174  1.0000 -0.7356092324
O   O124      1.0  0.46174  0.94510  0.53826  1.0000 -0.72949893
O   O125      1.0  0.53826  0.94510  0.05490  1.0000 -0.72949893
O   O126      1.0  0.46174  0.05490  0.94510  1.0000 -0.72949893
O   O127      1.0  0.05490  0.46174  0.53826  1.0000 -0.72949893
O   O128      1.0  0.94510  0.53826  0.46174  1.0000 -0.72949893
O   O129      1.0  0.94510  0.05490  0.53826  1.0000 -0.72949893
O   O130      1.0  0.05490  0.94510  0.46174  1.0000 -0.72949893
O   O131      1.0  0.46174  0.53826  0.05490  1.0000 -0.72949893
O   O132      1.0  0.53826  0.46174  0.94510  1.0000 -0.72949893
O   O133      1.0  0.94510  0.53826  0.05490  1.0000 -0.72949893
O   O134      1.0  0.05490  0.46174  0.94510  1.0000 -0.72949893
O   O135      1.0  0.46174  0.05490  0.53826  1.0000 -0.72949893
O   O136      1.0  0.53826  0.94510  0.46174  1.0000 -0.72949893
O   O137      1.0  0.46174  0.53826  0.94510  1.0000 -0.72949893
O   O138      1.0  0.53826  0.46174  0.05490  1.0000 -0.72949893
O   O139      1.0  0.94510  0.05490  0.46174  1.0000 -0.72949893
O   O140      1.0  0.05490  0.94510  0.53826  1.0000 -0.7356092324
O   O141      1.0  0.05490  0.53826  0.46174  1.0000 -0.72949893
O   O142      1.0  0.94510  0.46174  0.53826  1.0000 -0.72949893
O   O143      1.0  0.53826  0.05490  0.94510  1.0000 -0.72949893
O   O144      1.0  0.46174  0.94510  0.05490  1.0000 -0.72949893
