# DDEC6 charges by PACMAN v1.1 (https://github.com/mtap-research/PACMAN-charge/)
data_2021[Cd][fsc]3[ASR]2
_chemical_formula_sum              "Cd1 H14 C24 N12 O8"
_cell_length_a       7.884
_cell_length_b       10.4652
_cell_length_c       13.038
_cell_angle_alpha    107.014
_cell_angle_beta     97.852
_cell_angle_gamma    100.198

_symmetry_space_group_name_H-M    "P 1"
_symmetry_Int_Tables_number       1

loop_
  _symmetry_equiv_pos_as_xyz
  'x, y, z'

loop_
  _atom_site_type_symbol
  _atom_site_label
  _atom_site_symmetry_multiplicity
  _atom_site_fract_x
  _atom_site_fract_y
  _atom_site_fract_z
  _atom_site_occupancy
  _atom_site_charge
Cd  Cd1       1.0  0.50000  0.50000  0.50000  1.0000 0.8149171148
H   H1        1.0  0.07536  0.46115  0.35484  1.0000 0.1290804889
H   H2        1.0  0.35237  0.80093  0.56138  1.0000 0.120160823
H   H3        1.0  0.73049  0.01077  0.55087  1.0000 0.1386161898
H   H4        1.0  0.91358  0.12290  0.27195  1.0000 0.3548004304
H   H5        1.0  0.35637  0.21125  0.25850  1.0000 0.1290804889
H   H6        1.0  0.70902  0.53293  0.30156  1.0000 0.1115721923
H   H7        1.0  0.25583  0.08423  0.03414  1.0000 0.1478964252
H   H8        1.0  0.92464  0.53885  0.64516  1.0000 0.1290804889
H   H9        1.0  0.64763  0.19907  0.43862  1.0000 0.120160823
H   H10       1.0  0.26951  0.98923  0.44913  1.0000 0.1386161898
H   H11       1.0  0.08642  0.87710  0.72805  1.0000 0.3548004304
H   H12       1.0  0.64363  0.78875  0.74150  1.0000 0.1290804889
H   H13       1.0  0.29098  0.46707  0.69844  1.0000 0.1115721923
H   H14       1.0  0.74417  0.91577  0.96586  1.0000 0.1478964252
C   C1        1.0  0.90040  0.88680  0.51872  1.0000 -0.0491902034
C   C2        1.0  0.80080  0.76640  0.54483  1.0000 0.5610603665
C   C3        1.0  0.05980  0.88440  0.48539  1.0000 0.0997795176
C   C4        1.0  0.11310  0.55370  0.39610  1.0000 0.1478964252
C   C5        1.0  0.26390  0.73470  0.50800  1.0000 0.1115721923
C   C6        1.0  0.83880  0.00570  0.53130  1.0000 -0.2003251638
C   C7        1.0  0.44750  0.27440  0.24960  1.0000 0.120160823
C   C8        1.0  0.63780  0.44480  0.27110  1.0000 0.1386161898
C   C9        1.0  0.66450  0.06870  0.06810  1.0000 -0.0732229675
C   C10       1.0  0.51940  0.11750  0.08440  1.0000 0.1115721923
C   C11       1.0  0.35390  0.04980  0.01910  1.0000 -0.1801693167
C   C12       1.0  0.84290  0.12450  0.13940  1.0000 0.5610603665
C   C13       1.0  0.09960  0.11320  0.48128  1.0000 -0.0491902034
C   C14       1.0  0.19920  0.23360  0.45517  1.0000 0.5610603665
C   C15       1.0  0.94020  0.11560  0.51461  1.0000 0.0997795176
C   C16       1.0  0.88690  0.44630  0.60390  1.0000 0.1478964252
C   C17       1.0  0.73610  0.26530  0.49200  1.0000 0.1115721923
C   C18       1.0  0.16120  0.99430  0.46870  1.0000 -0.2003251638
C   C19       1.0  0.55250  0.72560  0.75040  1.0000 0.120160823
C   C20       1.0  0.36220  0.55520  0.72890  1.0000 0.1290804889
C   C21       1.0  0.33550  0.93130  0.93190  1.0000 -0.0732229675
C   C22       1.0  0.48060  0.88250  0.91560  1.0000 0.1115721923
C   C23       1.0  0.64610  0.95020  0.98090  1.0000 -0.1801693167
C   C24       1.0  0.15710  0.87550  0.86060  1.0000 0.5610603665
N   N1        1.0  0.12060  0.75817  0.46478  1.0000 0.1290804889
N   N2        1.0  0.26900  0.60591  0.46723  1.0000 -0.3039748843
N   N3        1.0  0.50130  0.39985  0.31478  1.0000 -0.3113109793
N   N4        1.0  0.02180  0.64113  0.38993  1.0000 -0.2214779581
N   N5        1.0  0.53360  0.24510  0.17010  1.0000 0.1386161898
N   N6        1.0  0.66270  0.35400  0.18170  1.0000 -0.2214779581
N   N7        1.0  0.87940  0.24183  0.53522  1.0000 0.1290804889
N   N8        1.0  0.73100  0.39409  0.53277  1.0000 -0.3039748843
N   N9        1.0  0.49870  0.60015  0.68522  1.0000 -0.3113109793
N   N10       1.0  0.97820  0.35887  0.61007  1.0000 -0.2214779581
N   N11       1.0  0.46640  0.75490  0.82990  1.0000 0.1386161898
N   N12       1.0  0.33730  0.64600  0.81830  1.0000 -0.2250005032
O   O1        1.0  0.65564  0.70320  0.48291  1.0000 -0.5589615628
O   O2        1.0  0.86850  0.74247  0.62711  1.0000 -0.5654689993
O   O3        1.0  0.83830  0.15280  0.24236  1.0000 -0.4906946893
O   O4        1.0  0.97680  0.14080  0.10657  1.0000 -0.4785302605
O   O5        1.0  0.34436  0.29680  0.51709  1.0000 -0.5589615628
O   O6        1.0  0.13150  0.25753  0.37289  1.0000 -0.5589615628
O   O7        1.0  0.16170  0.84720  0.75764  1.0000 -0.4906946893
O   O8        1.0  0.02320  0.85920  0.89343  1.0000 -0.4785302605
