# DDEC6 charges by PACMAN v1.1 (https://github.com/mtap-research/PACMAN-charge/)
data_2021[U][pcu]3[ASR]1
_chemical_formula_sum              "U16 H80 C104 N16 O48"
_cell_length_a       7.1582
_cell_length_b       32.8137
_cell_length_c       17.4503
_cell_angle_alpha    90
_cell_angle_beta     104.678
_cell_angle_gamma    90

_symmetry_space_group_name_H-M    "P 1"
_symmetry_Int_Tables_number       1

loop_
  _symmetry_equiv_pos_as_xyz
  'x, y, z'

loop_
  _atom_site_type_symbol
  _atom_site_label
  _atom_site_symmetry_multiplicity
  _atom_site_fract_x
  _atom_site_fract_y
  _atom_site_fract_z
  _atom_site_occupancy
  _atom_site_charge
U   U1        1.0  0.07855  0.64936  0.62236  1.0000 2.1670842852
U   U2        1.0  0.23379  0.62238  0.86346  1.0000 2.3617302463
U   U3        1.0  0.98702  0.55474  0.47729  1.0000 2.4649863924
U   U4        1.0  0.13555  0.54313  0.69768  1.0000 2.5213491406
U   U5        1.0  0.92145  0.14936  0.87764  1.0000 2.1851769175
U   U6        1.0  0.76621  0.12238  0.63654  1.0000 2.369634458
U   U7        1.0  0.01298  0.05474  0.02271  1.0000 2.4677973475
U   U8        1.0  0.86445  0.04313  0.80232  1.0000 2.526680776
U   U9        1.0  0.92145  0.35064  0.37764  1.0000 2.1781376089
U   U10       1.0  0.76621  0.37762  0.13654  1.0000 2.3617302463
U   U11       1.0  0.01298  0.44526  0.52271  1.0000 2.4649863924
U   U12       1.0  0.86445  0.45687  0.30232  1.0000 2.526680776
U   U13       1.0  0.07855  0.85064  0.12236  1.0000 2.1645162786
U   U14       1.0  0.23379  0.87762  0.36346  1.0000 2.3617302463
U   U15       1.0  0.98702  0.94526  0.97729  1.0000 2.4677973475
U   U16       1.0  0.13555  0.95687  0.19768  1.0000 2.5213491406
H   H1        1.0  0.46379  0.75544  0.14990  1.0000 0.1304908428
H   H2        1.0  0.64002  0.78431  0.19211  1.0000 0.1413659613
H   H3        1.0  0.68097  0.73914  0.16585  1.0000 0.1198200195
H   H4        1.0  0.07754  0.75147  0.90690  1.0000 0.1198200195
H   H5        1.0  0.59010  0.79076  0.34147  1.0000 0.1304908428
H   H6        1.0  0.60213  0.56944  0.12484  1.0000 0.1198200195
H   H7        1.0  0.06591  0.86976  0.83303  1.0000 0.1095412317
H   H8        1.0  0.11879  0.77920  0.68336  1.0000 0.1095412317
H   H9        1.0  0.42621  0.68680  0.13101  1.0000 0.1095412317
H   H10       1.0  0.72276  0.63165  0.33226  1.0000 0.1095412317
H   H11       1.0  0.69333  0.73390  0.51092  1.0000 0.1304908428
H   H12       1.0  0.54057  0.76985  0.48207  1.0000 0.1304908428
H   H13       1.0  0.46683  0.72422  0.48827  1.0000 0.1304908428
H   H14       1.0  0.98253  0.90815  0.53349  1.0000 0.1304908428
H   H15       1.0  0.81826  0.81089  0.58868  1.0000 0.1198200195
H   H16       1.0  0.84816  0.83159  0.50960  1.0000 0.1413659613
H   H17       1.0  0.01220  0.80264  0.56143  1.0000 0.1304908428
H   H18       1.0  0.29820  0.96663  0.64381  1.0000 0.1198200195
H   H19       1.0  0.07514  0.97924  0.61690  1.0000 0.1198200195
H   H20       1.0  0.17959  0.97398  0.70897  1.0000 0.1095412317
H   H21       1.0  0.53621  0.25544  0.35010  1.0000 0.1304908428
H   H22       1.0  0.35998  0.28431  0.30789  1.0000 0.1413659613
H   H23       1.0  0.31903  0.23914  0.33415  1.0000 0.1198200195
H   H24       1.0  0.92246  0.25147  0.59310  1.0000 0.1198200195
H   H25       1.0  0.40990  0.29076  0.15853  1.0000 0.1304908428
H   H26       1.0  0.39787  0.06944  0.37516  1.0000 0.1198200195
H   H27       1.0  0.93409  0.36976  0.66697  1.0000 0.1095412317
H   H28       1.0  0.88121  0.27920  0.81664  1.0000 0.1095412317
H   H29       1.0  0.57379  0.18680  0.36899  1.0000 0.1095412317
H   H30       1.0  0.27724  0.13165  0.16774  1.0000 0.1095412317
H   H31       1.0  0.30667  0.23390  0.98908  1.0000 0.1304908428
H   H32       1.0  0.45943  0.26985  0.01793  1.0000 0.1304908428
H   H33       1.0  0.53317  0.22422  0.01173  1.0000 0.1304908428
H   H34       1.0  0.01747  0.40815  0.96651  1.0000 0.1304908428
H   H35       1.0  0.18174  0.31089  0.91132  1.0000 0.1198200195
H   H36       1.0  0.15184  0.33159  0.99040  1.0000 0.1413659613
H   H37       1.0  0.98780  0.30264  0.93857  1.0000 0.1304908428
H   H38       1.0  0.70180  0.46663  0.85619  1.0000 0.1198200195
H   H39       1.0  0.92486  0.47924  0.88310  1.0000 0.1198200195
H   H40       1.0  0.82041  0.47398  0.79103  1.0000 0.1095412317
H   H41       1.0  0.53621  0.24456  0.85010  1.0000 0.1304908428
H   H42       1.0  0.35998  0.21569  0.80789  1.0000 0.1413659613
H   H43       1.0  0.31903  0.26086  0.83415  1.0000 0.1198200195
H   H44       1.0  0.92246  0.24853  0.09310  1.0000 0.1198200195
H   H45       1.0  0.40990  0.20924  0.65853  1.0000 0.1304908428
H   H46       1.0  0.39787  0.43056  0.87516  1.0000 0.1198200195
H   H47       1.0  0.93409  0.13024  0.16697  1.0000 0.1095412317
H   H48       1.0  0.88121  0.22080  0.31664  1.0000 0.1095412317
H   H49       1.0  0.57379  0.31320  0.86899  1.0000 0.1095412317
H   H50       1.0  0.27724  0.36835  0.66774  1.0000 0.1095412317
H   H51       1.0  0.30667  0.26610  0.48908  1.0000 0.1304908428
H   H52       1.0  0.45943  0.23015  0.51793  1.0000 0.1304908428
H   H53       1.0  0.53317  0.27578  0.51173  1.0000 0.1304908428
H   H54       1.0  0.01747  0.09185  0.46651  1.0000 0.1304908428
H   H55       1.0  0.18174  0.18911  0.41132  1.0000 0.1198200195
H   H56       1.0  0.15184  0.16841  0.49040  1.0000 0.1413659613
H   H57       1.0  0.98780  0.19736  0.43857  1.0000 0.1304908428
H   H58       1.0  0.70180  0.03337  0.35619  1.0000 0.1198200195
H   H59       1.0  0.92486  0.02076  0.38310  1.0000 0.1198200195
H   H60       1.0  0.82041  0.02602  0.29103  1.0000 0.1095412317
H   H61       1.0  0.46379  0.74456  0.64990  1.0000 0.1304908428
H   H62       1.0  0.64002  0.71569  0.69211  1.0000 0.1413659613
H   H63       1.0  0.68097  0.76086  0.66585  1.0000 0.1198200195
H   H64       1.0  0.07754  0.74853  0.40690  1.0000 0.1198200195
H   H65       1.0  0.59010  0.70924  0.84147  1.0000 0.1304908428
H   H66       1.0  0.60213  0.93056  0.62484  1.0000 0.1198200195
H   H67       1.0  0.06591  0.63024  0.33303  1.0000 0.1095412317
H   H68       1.0  0.11879  0.72080  0.18336  1.0000 0.1095412317
H   H69       1.0  0.42621  0.81320  0.63101  1.0000 0.1095412317
H   H70       1.0  0.72276  0.86835  0.83226  1.0000 0.1095412317
H   H71       1.0  0.69333  0.76610  0.01092  1.0000 0.1304908428
H   H72       1.0  0.54057  0.73015  0.98207  1.0000 0.1304908428
H   H73       1.0  0.46683  0.77578  0.98827  1.0000 0.1304908428
H   H74       1.0  0.98253  0.59185  0.03349  1.0000 0.1304908428
H   H75       1.0  0.81826  0.68911  0.08868  1.0000 0.1198200195
H   H76       1.0  0.84816  0.66841  0.00960  1.0000 0.1413659613
H   H77       1.0  0.01220  0.69736  0.06143  1.0000 0.1304908428
H   H78       1.0  0.29820  0.53337  0.14381  1.0000 0.1198200195
H   H79       1.0  0.07514  0.52076  0.11690  1.0000 0.1198200195
H   H80       1.0  0.17959  0.52602  0.20897  1.0000 0.1095412317
C   C1        1.0  0.59250  0.75620  0.18660  1.0000 -0.5392770161
C   C2        1.0  0.12520  0.71490  0.77600  1.0000 0.5972494568
C   C3        1.0  0.07860  0.77110  0.86690  1.0000 -0.1436309636
C   C4        1.0  0.58140  0.74040  0.26560  1.0000 0.1619765248
C   C5        1.0  0.03970  0.82640  0.95930  1.0000 0.5654384579
C   C6        1.0  0.40570  0.62630  0.02930  1.0000 0.5073474731
C   C7        1.0  0.58330  0.76200  0.33510  1.0000 -0.4105512713
C   C8        1.0  0.59660  0.59370  0.15380  1.0000 -0.128630475
C   C9        1.0  0.06910  0.84150  0.82150  1.0000 -0.2077111815
C   C10       1.0  0.57320  0.73350  0.39310  1.0000 0.233318084
C   C11       1.0  0.57340  0.66450  0.23790  1.0000 0.1198200195
C   C12       1.0  0.09840  0.75930  0.79150  1.0000 -0.0370800448
C   C13       1.0  0.10220  0.78770  0.73320  1.0000 -0.2186324661
C   C14       1.0  0.68380  0.59560  0.23560  1.0000 -0.0479762567
C   C15       1.0  0.49050  0.66350  0.15750  1.0000 -0.2186324661
C   C16       1.0  0.06100  0.81240  0.88030  1.0000 -0.0204432884
C   C17       1.0  0.50230  0.62800  0.11590  1.0000 -0.0204432884
C   C18       1.0  0.66810  0.63060  0.27670  1.0000 -0.2077111815
C   C19       1.0  0.08150  0.82920  0.74840  1.0000 0.1304908428
C   C20       1.0  0.79400  0.56020  0.27750  1.0000 0.6168560769
C   C21       1.0  0.56800  0.74100  0.47540  1.0000 -0.5286695872
C   C22       1.0  0.02430  0.89770  0.58580  1.0000 -0.3917868127
C   C23       1.0  0.00360  0.85820  0.60950  1.0000 0.1479193355
C   C24       1.0  0.91310  0.82290  0.56350  1.0000 -0.5392770161
C   C25       1.0  0.17260  0.96370  0.65560  1.0000 -0.4787203585
C   C26       1.0  0.11490  0.91880  0.65090  1.0000 0.233318084
C   C27       1.0  0.40750  0.25620  0.31340  1.0000 -0.5392770161
C   C28       1.0  0.87480  0.21490  0.72400  1.0000 0.5972494568
C   C29       1.0  0.92140  0.27110  0.63310  1.0000 -0.1436309636
C   C30       1.0  0.41860  0.24040  0.23440  1.0000 0.1619765248
C   C31       1.0  0.96030  0.32640  0.54070  1.0000 0.5647862042
C   C32       1.0  0.59430  0.12630  0.47070  1.0000 0.5073474731
C   C33       1.0  0.41670  0.26200  0.16490  1.0000 -0.4105512713
C   C34       1.0  0.40340  0.09370  0.34620  1.0000 -0.128630475
C   C35       1.0  0.93090  0.34150  0.67850  1.0000 -0.2077111815
C   C36       1.0  0.42680  0.23350  0.10690  1.0000 0.233318084
C   C37       1.0  0.42660  0.16450  0.26210  1.0000 0.1198200195
C   C38       1.0  0.90160  0.25930  0.70850  1.0000 -0.0370800448
C   C39       1.0  0.89780  0.28770  0.76680  1.0000 -0.2186324661
C   C40       1.0  0.31620  0.09560  0.26440  1.0000 -0.0479762567
C   C41       1.0  0.50950  0.16350  0.34250  1.0000 -0.2186324661
C   C42       1.0  0.93900  0.31240  0.61970  1.0000 -0.0204432884
C   C43       1.0  0.49770  0.12800  0.38410  1.0000 -0.0204432884
C   C44       1.0  0.33190  0.13060  0.22330  1.0000 -0.2077111815
C   C45       1.0  0.91850  0.32920  0.75160  1.0000 0.1304908428
C   C46       1.0  0.20600  0.06020  0.22250  1.0000 0.6168560769
C   C47       1.0  0.43200  0.24100  0.02460  1.0000 -0.5286695872
C   C48       1.0  0.97570  0.39770  0.91420  1.0000 -0.3917868127
C   C49       1.0  0.99640  0.35820  0.89050  1.0000 0.1479193355
C   C50       1.0  0.08690  0.32290  0.93650  1.0000 -0.5392770161
C   C51       1.0  0.82740  0.46370  0.84440  1.0000 -0.4787203585
C   C52       1.0  0.88510  0.41880  0.84910  1.0000 0.233318084
C   C53       1.0  0.40750  0.24380  0.81340  1.0000 -0.5392770161
C   C54       1.0  0.87480  0.28510  0.22400  1.0000 0.5972494568
C   C55       1.0  0.92140  0.22890  0.13310  1.0000 -0.1436309636
C   C56       1.0  0.41860  0.25960  0.73440  1.0000 0.1619765248
C   C57       1.0  0.96030  0.17360  0.04070  1.0000 0.5647862042
C   C58       1.0  0.59430  0.37370  0.97070  1.0000 0.5073474731
C   C59       1.0  0.41670  0.23800  0.66490  1.0000 -0.4105512713
C   C60       1.0  0.40340  0.40630  0.84620  1.0000 -0.128630475
C   C61       1.0  0.93090  0.15850  0.17850  1.0000 -0.2077111815
C   C62       1.0  0.42680  0.26650  0.60690  1.0000 0.233318084
C   C63       1.0  0.42660  0.33550  0.76210  1.0000 0.1198200195
C   C64       1.0  0.90160  0.24070  0.20850  1.0000 -0.0370800448
C   C65       1.0  0.89780  0.21230  0.26680  1.0000 -0.2186324661
C   C66       1.0  0.31620  0.40440  0.76440  1.0000 -0.0479762567
C   C67       1.0  0.50950  0.33650  0.84250  1.0000 -0.2186324661
C   C68       1.0  0.93900  0.18760  0.11970  1.0000 -0.0204432884
C   C69       1.0  0.49770  0.37200  0.88410  1.0000 -0.0204432884
C   C70       1.0  0.33190  0.36940  0.72330  1.0000 -0.2077111815
C   C71       1.0  0.91850  0.17080  0.25160  1.0000 0.1304908428
C   C72       1.0  0.20600  0.43980  0.72250  1.0000 0.6168560769
C   C73       1.0  0.43200  0.25900  0.52460  1.0000 -0.5286695872
C   C74       1.0  0.97570  0.10230  0.41420  1.0000 -0.3917868127
C   C75       1.0  0.99640  0.14180  0.39050  1.0000 0.1479193355
C   C76       1.0  0.08690  0.17710  0.43650  1.0000 -0.5392770161
C   C77       1.0  0.82740  0.03630  0.34440  1.0000 -0.4787203585
C   C78       1.0  0.88510  0.08120  0.34910  1.0000 0.233318084
C   C79       1.0  0.59250  0.74380  0.68660  1.0000 -0.5392770161
C   C80       1.0  0.12520  0.78510  0.27600  1.0000 0.5972494568
C   C81       1.0  0.07860  0.72890  0.36690  1.0000 -0.1436309636
C   C82       1.0  0.58140  0.75960  0.76560  1.0000 0.1619765248
C   C83       1.0  0.03970  0.67360  0.45930  1.0000 0.5647862042
C   C84       1.0  0.40570  0.87370  0.52930  1.0000 0.5073474731
C   C85       1.0  0.58330  0.73800  0.83510  1.0000 -0.4105512713
C   C86       1.0  0.59660  0.90630  0.65380  1.0000 -0.128630475
C   C87       1.0  0.06910  0.65850  0.32150  1.0000 -0.2077111815
C   C88       1.0  0.57320  0.76650  0.89310  1.0000 0.233318084
C   C89       1.0  0.57340  0.83550  0.73790  1.0000 0.1198200195
C   C90       1.0  0.09840  0.74070  0.29150  1.0000 -0.0370800448
C   C91       1.0  0.10220  0.71230  0.23320  1.0000 -0.2186324661
C   C92       1.0  0.68380  0.90440  0.73560  1.0000 -0.0479762567
C   C93       1.0  0.49050  0.83650  0.65750  1.0000 -0.2186324661
C   C94       1.0  0.06100  0.68760  0.38030  1.0000 -0.0204432884
C   C95       1.0  0.50230  0.87200  0.61590  1.0000 -0.0204432884
C   C96       1.0  0.66810  0.86940  0.77670  1.0000 -0.2077111815
C   C97       1.0  0.08150  0.67080  0.24840  1.0000 0.1304908428
C   C98       1.0  0.79400  0.93980  0.77750  1.0000 0.6168560769
C   C99       1.0  0.56800  0.75900  0.97540  1.0000 -0.5286695872
C   C100      1.0  0.02430  0.60230  0.08580  1.0000 -0.3917868127
C   C101      1.0  0.00360  0.64180  0.10950  1.0000 0.1479193355
C   C102      1.0  0.91310  0.67710  0.06350  1.0000 -0.5392770161
C   C103      1.0  0.17260  0.53630  0.15560  1.0000 -0.4787203585
C   C104      1.0  0.11490  0.58120  0.15090  1.0000 0.233318084
N   N1        1.0  0.07990  0.85950  0.68930  1.0000 0.0279736836
N   N2        1.0  0.56600  0.69960  0.28510  1.0000 0.0187069244
N   N3        1.0  0.56230  0.69520  0.36350  1.0000 -0.3499419678
N   N4        1.0  0.15020  0.89710  0.71580  1.0000 -0.3416582186
N   N5        1.0  0.92010  0.35950  0.81070  1.0000 0.0279736836
N   N6        1.0  0.43400  0.19960  0.21490  1.0000 0.0187069244
N   N7        1.0  0.43770  0.19520  0.13650  1.0000 -0.3499419678
N   N8        1.0  0.84980  0.39710  0.78420  1.0000 -0.3416582186
N   N9        1.0  0.92010  0.14050  0.31070  1.0000 0.0279736836
N   N10       1.0  0.43400  0.30040  0.71490  1.0000 0.0187069244
N   N11       1.0  0.43770  0.30480  0.63650  1.0000 -0.3499419678
N   N12       1.0  0.84980  0.10290  0.28420  1.0000 -0.3416582186
N   N13       1.0  0.07990  0.64050  0.18930  1.0000 0.0279736836
N   N14       1.0  0.56600  0.80040  0.78510  1.0000 0.0187069244
N   N15       1.0  0.56230  0.80480  0.86350  1.0000 -0.3499419678
N   N16       1.0  0.15020  0.60290  0.21580  1.0000 -0.3416582186
O   O1        1.0  0.01020  0.86370  0.97070  1.0000 -0.7212220196
O   O2        1.0  0.13740  0.70510  0.70780  1.0000 -0.6596513306
O   O3        1.0  0.12720  0.68960  0.83080  1.0000 -0.6596513306
O   O4        1.0  0.40260  0.59260  0.99200  1.0000 -0.6344595467
O   O5        1.0  0.26620  0.55300  0.83510  1.0000 -1.1765133057
O   O6        1.0  0.33720  0.65850  0.99330  1.0000 -0.6483860974
O   O7        1.0  0.76870  0.52480  0.24910  1.0000 -0.6119350706
O   O8        1.0  0.05200  0.80070  0.01370  1.0000 -0.6224671667
O   O9        1.0  0.91560  0.56820  0.34270  1.0000 -0.6698199425
O   O10       1.0  0.03770  0.58480  0.59240  1.0000 -1.3864003931
O   O11       1.0  0.11230  0.61290  0.73470  1.0000 -1.3469318265
O   O12       1.0  0.95880  0.49250  0.42260  1.0000 -1.3801290308
O   O13       1.0  0.98980  0.36370  0.52930  1.0000 -0.7212220196
O   O14       1.0  0.86260  0.20510  0.79220  1.0000 -0.6596513306
O   O15       1.0  0.87280  0.18960  0.66920  1.0000 -0.6596513306
O   O16       1.0  0.59740  0.09260  0.50800  1.0000 -0.6350138699
O   O17       1.0  0.73380  0.05300  0.66490  1.0000 -1.1765133057
O   O18       1.0  0.66280  0.15850  0.50670  1.0000 -0.6483860974
O   O19       1.0  0.23130  0.02480  0.25090  1.0000 -0.6119350706
O   O20       1.0  0.94800  0.30070  0.48630  1.0000 -0.6224671667
O   O21       1.0  0.08440  0.06820  0.15730  1.0000 -0.6698199425
O   O22       1.0  0.96230  0.08480  0.90760  1.0000 -1.4139839922
O   O23       1.0  0.88770  0.11290  0.76530  1.0000 -1.3443106924
O   O24       1.0  0.04120  0.99250  0.07740  1.0000 -1.3864003931
O   O25       1.0  0.98980  0.13630  0.02930  1.0000 -0.7212220196
O   O26       1.0  0.86260  0.29490  0.29220  1.0000 -0.6596513306
O   O27       1.0  0.87280  0.31040  0.16920  1.0000 -0.6596513306
O   O28       1.0  0.59740  0.40740  0.00800  1.0000 -0.6344595467
O   O29       1.0  0.73380  0.44700  0.16490  1.0000 -1.1765133057
O   O30       1.0  0.66280  0.34150  0.00670  1.0000 -0.6483860974
O   O31       1.0  0.23130  0.47520  0.75090  1.0000 -0.6119350706
O   O32       1.0  0.94800  0.19930  0.98630  1.0000 -0.6224671667
O   O33       1.0  0.08440  0.43180  0.65730  1.0000 -0.6698199425
O   O34       1.0  0.96230  0.41520  0.40760  1.0000 -1.3801290308
O   O35       1.0  0.88770  0.38710  0.26530  1.0000 -1.3469318265
O   O36       1.0  0.04120  0.50750  0.57740  1.0000 -1.3801290308
O   O37       1.0  0.01020  0.63630  0.47070  1.0000 -0.7212220196
O   O38       1.0  0.13740  0.79490  0.20780  1.0000 -0.6596513306
O   O39       1.0  0.12720  0.81040  0.33080  1.0000 -0.6596513306
O   O40       1.0  0.40260  0.90740  0.49200  1.0000 -0.6344595467
O   O41       1.0  0.26620  0.94700  0.33510  1.0000 -1.1765133057
O   O42       1.0  0.33720  0.84150  0.49330  1.0000 -0.6483860974
O   O43       1.0  0.76870  0.97520  0.74910  1.0000 -0.6119350706
O   O44       1.0  0.05200  0.69930  0.51370  1.0000 -0.6224671667
O   O45       1.0  0.91560  0.93180  0.84270  1.0000 -0.6698199425
O   O46       1.0  0.03770  0.91520  0.09240  1.0000 -1.3801290308
O   O47       1.0  0.11230  0.88710  0.23470  1.0000 -1.3469318265
O   O48       1.0  0.95880  0.00750  0.92260  1.0000 -1.3697670017
