# DDEC6 charges by PACMAN v1.1 (https://github.com/mtap-research/PACMAN-charge/)
data_2021[Co][pcu]3[ASR]4
_chemical_formula_sum              "Co6 H56 C100 S12 N8 O24"
_cell_length_a       10.852
_cell_length_b       25.406
_cell_length_c       12.801
_cell_angle_alpha    90
_cell_angle_beta     109.74
_cell_angle_gamma    90

_symmetry_space_group_name_H-M    "P 1"
_symmetry_Int_Tables_number       1

loop_
  _symmetry_equiv_pos_as_xyz
  'x, y, z'

loop_
  _atom_site_type_symbol
  _atom_site_label
  _atom_site_symmetry_multiplicity
  _atom_site_fract_x
  _atom_site_fract_y
  _atom_site_fract_z
  _atom_site_occupancy
  _atom_site_charge
Co  Co1       1.0  0.26230  0.54206  0.61366  1.0000 0.8523136218
Co  Co2       1.0  0.73770  0.04206  0.88634  1.0000 0.8523136218
Co  Co3       1.0  0.73770  0.45794  0.38634  1.0000 0.8523136218
Co  Co4       1.0  0.26230  0.95794  0.11366  1.0000 0.8523136218
Co  Co5       1.0  0.50000  0.50000  0.50000  1.0000 1.0888257165
Co  Co6       1.0  0.50000  0.00000  0.00000  1.0000 1.0888257165
H   H1        1.0  0.96866  0.56644  0.50289  1.0000 0.121800444
H   H2        1.0  0.79349  0.59645  0.55366  1.0000 0.1293308107
H   H3        1.0  0.83351  0.62460  0.73707  1.0000 0.121800444
H   H4        1.0  0.04755  0.62149  0.86445  1.0000 0.1293308107
H   H5        1.0  0.25036  0.61644  0.97313  1.0000 0.1293308107
H   H6        1.0  0.46628  0.59999  0.08152  1.0000 0.1118783934
H   H7        1.0  0.60723  0.55888  0.00247  1.0000 0.1293308107
H   H8        1.0  0.52624  0.53461  0.81476  1.0000 0.1118783934
H   H9        1.0  0.93156  0.53894  0.26976  1.0000 0.141254285
H   H10       1.0  0.83134  0.52189  0.06899  1.0000 0.1118783934
H   H11       1.0  0.67322  0.67509  0.54375  1.0000 0.1293308107
H   H12       1.0  0.70958  0.76601  0.61533  1.0000 0.1293308107
H   H13       1.0  0.36372  0.81132  0.73461  1.0000 0.1293308107
H   H14       1.0  0.40506  0.90078  0.81544  1.0000 0.141254285
H   H15       1.0  0.03134  0.06644  0.99711  1.0000 0.121800444
H   H16       1.0  0.20651  0.09645  0.94634  1.0000 0.1293308107
H   H17       1.0  0.16649  0.12460  0.76293  1.0000 0.121800444
H   H18       1.0  0.95245  0.12149  0.63555  1.0000 0.1293308107
H   H19       1.0  0.74964  0.11644  0.52687  1.0000 0.1293308107
H   H20       1.0  0.53372  0.09999  0.41848  1.0000 0.1118783934
H   H21       1.0  0.39277  0.05888  0.49753  1.0000 0.1293308107
H   H22       1.0  0.47376  0.03461  0.68524  1.0000 0.1118783934
H   H23       1.0  0.06844  0.03894  0.23024  1.0000 0.141254285
H   H24       1.0  0.16866  0.02189  0.43101  1.0000 0.1118783934
H   H25       1.0  0.32678  0.17509  0.95625  1.0000 0.1293308107
H   H26       1.0  0.29042  0.26601  0.88467  1.0000 0.1293308107
H   H27       1.0  0.63628  0.31132  0.76539  1.0000 0.1293308107
H   H28       1.0  0.59494  0.40078  0.68456  1.0000 0.141254285
H   H29       1.0  0.03134  0.43356  0.49711  1.0000 0.121800444
H   H30       1.0  0.20651  0.40355  0.44634  1.0000 0.1293308107
H   H31       1.0  0.16649  0.37540  0.26293  1.0000 0.121800444
H   H32       1.0  0.95245  0.37851  0.13555  1.0000 0.1293308107
H   H33       1.0  0.74964  0.38356  0.02687  1.0000 0.1293308107
H   H34       1.0  0.53372  0.40001  0.91848  1.0000 0.1118783934
H   H35       1.0  0.39277  0.44112  0.99753  1.0000 0.1293308107
H   H36       1.0  0.47376  0.46539  0.18524  1.0000 0.1118783934
H   H37       1.0  0.06844  0.46106  0.73024  1.0000 0.141254285
H   H38       1.0  0.16866  0.47811  0.93101  1.0000 0.1118783934
H   H39       1.0  0.32678  0.32491  0.45625  1.0000 0.1293308107
H   H40       1.0  0.29042  0.23399  0.38467  1.0000 0.1293308107
H   H41       1.0  0.63628  0.18868  0.26539  1.0000 0.1293308107
H   H42       1.0  0.59494  0.09922  0.18456  1.0000 0.141254285
H   H43       1.0  0.96866  0.93356  0.00289  1.0000 0.121800444
H   H44       1.0  0.79349  0.90355  0.05366  1.0000 0.1293308107
H   H45       1.0  0.83351  0.87540  0.23707  1.0000 0.121800444
H   H46       1.0  0.04755  0.87851  0.36445  1.0000 0.1293308107
H   H47       1.0  0.25036  0.88356  0.47313  1.0000 0.1293308107
H   H48       1.0  0.46628  0.90001  0.58152  1.0000 0.1118783934
H   H49       1.0  0.60723  0.94112  0.50247  1.0000 0.1293308107
H   H50       1.0  0.52624  0.96539  0.31476  1.0000 0.1118783934
H   H51       1.0  0.93156  0.96106  0.76976  1.0000 0.141254285
H   H52       1.0  0.83134  0.97811  0.56899  1.0000 0.1118783934
H   H53       1.0  0.67322  0.82491  0.04375  1.0000 0.1293308107
H   H54       1.0  0.70958  0.73399  0.11533  1.0000 0.1293308107
H   H55       1.0  0.36372  0.68868  0.23461  1.0000 0.1293308107
H   H56       1.0  0.40506  0.59922  0.31544  1.0000 0.141254285
C   C1        1.0  0.98430  0.57739  0.57720  1.0000 0.121800444
C   C2        1.0  0.87940  0.59544  0.60660  1.0000 -0.1306160848
C   C3        1.0  0.90320  0.61189  0.71490  1.0000 -0.0271001823
C   C4        1.0  0.02920  0.60969  0.79030  1.0000 -0.1769349511
C   C5        1.0  0.12800  0.58994  0.75570  1.0000 0.1583046009
C   C6        1.0  0.26440  0.58296  0.83150  1.0000 0.1728055206
C   C7        1.0  0.30800  0.59922  0.94250  1.0000 -0.1692649882
C   C8        1.0  0.43500  0.58980  0.00570  1.0000 -0.0271001823
C   C9        1.0  0.51840  0.56540  0.95930  1.0000 -0.1501441758
C   C10       1.0  0.46930  0.55060  0.84770  1.0000 0.0992874828
C   C11       1.0  0.20690  0.52607  0.37400  1.0000 0.594186141
C   C12       1.0  0.11250  0.52336  0.25920  1.0000 -0.110828207
C   C13       1.0  0.97990  0.52935  0.22310  1.0000 -0.1014564746
C   C14       1.0  0.92280  0.51958  0.10790  1.0000 -0.196407498
C   C15       1.0  0.01210  0.50649  0.05800  1.0000 -0.0165429666
C   C16       1.0  0.47250  0.61216  0.58190  1.0000 0.6005451818
C   C17       1.0  0.52480  0.66640  0.60790  1.0000 -0.1201523497
C   C18       1.0  0.62370  0.69117  0.58370  1.0000 -0.1201523497
C   C19       1.0  0.64430  0.74338  0.62450  1.0000 -0.1769349511
C   C20       1.0  0.55960  0.75795  0.67920  1.0000 -0.0120865136
C   C21       1.0  0.54980  0.80834  0.72950  1.0000 -0.0120865136
C   C22       1.0  0.44470  0.82926  0.75000  1.0000 -0.187933677
C   C23       1.0  0.46830  0.88058  0.79670  1.0000 -0.1014564746
C   C24       1.0  0.59350  0.89755  0.81150  1.0000 -0.1306160848
C   C25       1.0  0.65190  0.94919  0.84780  1.0000 0.5633760233
C   C26       1.0  0.01570  0.07739  0.92280  1.0000 0.121800444
C   C27       1.0  0.12060  0.09544  0.89340  1.0000 -0.1306160848
C   C28       1.0  0.09680  0.11189  0.78510  1.0000 -0.0271001823
C   C29       1.0  0.97080  0.10969  0.70970  1.0000 -0.1769349511
C   C30       1.0  0.87200  0.08994  0.74430  1.0000 0.1583046009
C   C31       1.0  0.73560  0.08296  0.66850  1.0000 0.1728055206
C   C32       1.0  0.69200  0.09922  0.55750  1.0000 -0.1692649882
C   C33       1.0  0.56500  0.08980  0.49430  1.0000 -0.0271001823
C   C34       1.0  0.48160  0.06540  0.54070  1.0000 -0.1501441758
C   C35       1.0  0.53070  0.05060  0.65230  1.0000 0.0992874828
C   C36       1.0  0.79310  0.02607  0.12600  1.0000 0.594186141
C   C37       1.0  0.88750  0.02336  0.24080  1.0000 -0.110828207
C   C38       1.0  0.02010  0.02935  0.27690  1.0000 -0.1014564746
C   C39       1.0  0.07720  0.01958  0.39210  1.0000 -0.196407498
C   C40       1.0  0.98790  0.00649  0.44200  1.0000 -0.0165429666
C   C41       1.0  0.52750  0.11216  0.91810  1.0000 0.6005451818
C   C42       1.0  0.47520  0.16640  0.89210  1.0000 -0.1201523497
C   C43       1.0  0.37630  0.19117  0.91630  1.0000 -0.1201523497
C   C44       1.0  0.35570  0.24338  0.87550  1.0000 -0.1769349511
C   C45       1.0  0.44040  0.25795  0.82080  1.0000 -0.0120865136
C   C46       1.0  0.45020  0.30834  0.77050  1.0000 -0.0165429666
C   C47       1.0  0.55530  0.32926  0.75000  1.0000 -0.187933677
C   C48       1.0  0.53170  0.38058  0.70330  1.0000 -0.1014564746
C   C49       1.0  0.40650  0.39755  0.68850  1.0000 -0.1306160848
C   C50       1.0  0.34810  0.44919  0.65220  1.0000 0.5633760233
C   C51       1.0  0.01570  0.42261  0.42280  1.0000 0.121800444
C   C52       1.0  0.12060  0.40456  0.39340  1.0000 -0.1306160848
C   C53       1.0  0.09680  0.38811  0.28510  1.0000 -0.0271001823
C   C54       1.0  0.97080  0.39031  0.20970  1.0000 -0.1769349511
C   C55       1.0  0.87200  0.41006  0.24430  1.0000 0.1583046009
C   C56       1.0  0.73560  0.41704  0.16850  1.0000 0.1728055206
C   C57       1.0  0.69200  0.40078  0.05750  1.0000 -0.1692649882
C   C58       1.0  0.56500  0.41020  0.99430  1.0000 -0.0271001823
C   C59       1.0  0.48160  0.43460  0.04070  1.0000 -0.1501441758
C   C60       1.0  0.53070  0.44940  0.15230  1.0000 0.0992874828
C   C61       1.0  0.79310  0.47393  0.62600  1.0000 0.594186141
C   C62       1.0  0.88750  0.47664  0.74080  1.0000 -0.110828207
C   C63       1.0  0.02010  0.47065  0.77690  1.0000 -0.1014564746
C   C64       1.0  0.07720  0.48042  0.89210  1.0000 -0.196407498
C   C65       1.0  0.98790  0.49351  0.94200  1.0000 -0.0165429666
C   C66       1.0  0.52750  0.38784  0.41810  1.0000 0.6005451818
C   C67       1.0  0.47520  0.33360  0.39210  1.0000 -0.1201523497
C   C68       1.0  0.37630  0.30883  0.41630  1.0000 -0.1201523497
C   C69       1.0  0.35570  0.25662  0.37550  1.0000 -0.1769349511
C   C70       1.0  0.44040  0.24205  0.32080  1.0000 -0.0120865136
C   C71       1.0  0.45020  0.19166  0.27050  1.0000 -0.0120865136
C   C72       1.0  0.55530  0.17074  0.25000  1.0000 -0.187933677
C   C73       1.0  0.53170  0.11942  0.20330  1.0000 -0.1014564746
C   C74       1.0  0.40650  0.10245  0.18850  1.0000 -0.1306160848
C   C75       1.0  0.34810  0.05081  0.15220  1.0000 0.5633760233
C   C76       1.0  0.98430  0.92261  0.07720  1.0000 0.121800444
C   C77       1.0  0.87940  0.90456  0.10660  1.0000 -0.1306160848
C   C78       1.0  0.90320  0.88811  0.21490  1.0000 -0.0271001823
C   C79       1.0  0.02920  0.89031  0.29030  1.0000 -0.1769349511
C   C80       1.0  0.12800  0.91006  0.25570  1.0000 0.1583046009
C   C81       1.0  0.26440  0.91704  0.33150  1.0000 0.1728055206
C   C82       1.0  0.30800  0.90078  0.44250  1.0000 -0.1692649882
C   C83       1.0  0.43500  0.91020  0.50570  1.0000 -0.0271001823
C   C84       1.0  0.51840  0.93460  0.45930  1.0000 -0.1501441758
C   C85       1.0  0.46930  0.94940  0.34770  1.0000 0.0992874828
C   C86       1.0  0.20690  0.97393  0.87400  1.0000 0.594186141
C   C87       1.0  0.11250  0.97664  0.75920  1.0000 -0.110828207
C   C88       1.0  0.97990  0.97065  0.72310  1.0000 -0.1014564746
C   C89       1.0  0.92280  0.98042  0.60790  1.0000 -0.196407498
C   C90       1.0  0.01210  0.99351  0.55800  1.0000 -0.0165429666
C   C91       1.0  0.47250  0.88784  0.08190  1.0000 0.6005451818
C   C92       1.0  0.52480  0.83360  0.10790  1.0000 -0.1201523497
C   C93       1.0  0.62370  0.80883  0.08370  1.0000 -0.1201523497
C   C94       1.0  0.64430  0.75662  0.12450  1.0000 -0.1769349511
C   C95       1.0  0.55960  0.74205  0.17920  1.0000 -0.0120865136
C   C96       1.0  0.54980  0.69166  0.22950  1.0000 -0.0165429666
C   C97       1.0  0.44470  0.67074  0.25000  1.0000 -0.187933677
C   C98       1.0  0.46830  0.61942  0.29670  1.0000 -0.1014564746
C   C99       1.0  0.59350  0.60245  0.31150  1.0000 -0.1306160848
C   C100      1.0  0.65190  0.55081  0.34780  1.0000 0.5633760233
S   S1        1.0  0.16885  0.50653  0.15264  1.0000 0.0992874828
S   S2        1.0  0.45608  0.70708  0.68076  1.0000 0.141254285
S   S3        1.0  0.68206  0.85085  0.76878  1.0000 0.121800444
S   S4        1.0  0.83115  0.00653  0.34736  1.0000 0.0992874828
S   S5        1.0  0.54392  0.20708  0.81924  1.0000 0.141254285
S   S6        1.0  0.31794  0.35085  0.73122  1.0000 0.121800444
S   S7        1.0  0.83115  0.49347  0.84736  1.0000 0.0992874828
S   S8        1.0  0.54392  0.29292  0.31924  1.0000 0.141254285
S   S9        1.0  0.31794  0.14915  0.23122  1.0000 0.121800444
S   S10       1.0  0.16885  0.99347  0.65264  1.0000 0.0992874828
S   S11       1.0  0.45608  0.79292  0.18076  1.0000 0.141254285
S   S12       1.0  0.68206  0.64915  0.26878  1.0000 0.121800444
N   N1        1.0  0.10560  0.57491  0.64936  1.0000 -0.2760358985
N   N2        1.0  0.34470  0.55846  0.78670  1.0000 -0.2704707618
N   N3        1.0  0.89440  0.07491  0.85064  1.0000 -0.2760358985
N   N4        1.0  0.65530  0.05846  0.71330  1.0000 -0.2704707618
N   N5        1.0  0.89440  0.42509  0.35064  1.0000 -0.2760358985
N   N6        1.0  0.65530  0.44154  0.21330  1.0000 -0.2704707618
N   N7        1.0  0.10560  0.92509  0.14936  1.0000 -0.2760358985
N   N8        1.0  0.34470  0.94154  0.28670  1.0000 -0.2704707618
O   O1        1.0  0.15978  0.53321  0.45024  1.0000 -0.5351090144
O   O2        1.0  0.32509  0.52002  0.38376  1.0000 -0.5729540895
O   O3        1.0  0.36330  0.60562  0.59500  1.0000 -0.5550127487
O   O4        1.0  0.53940  0.57888  0.55325  1.0000 -0.5467701416
O   O5        1.0  0.58663  0.98469  0.87733  1.0000 -0.578908981
O   O6        1.0  0.76360  0.95946  0.84392  1.0000 -0.5311299126
O   O7        1.0  0.84022  0.03321  0.04976  1.0000 -0.5351090144
O   O8        1.0  0.67491  0.02002  0.11624  1.0000 -0.5729540895
O   O9        1.0  0.63670  0.10562  0.90500  1.0000 -0.5550127487
O   O10       1.0  0.46060  0.07888  0.94675  1.0000 -0.5467701416
O   O11       1.0  0.41337  0.48469  0.62267  1.0000 -0.578908981
O   O12       1.0  0.23640  0.45946  0.65608  1.0000 -0.5311299126
O   O13       1.0  0.84022  0.46679  0.54976  1.0000 -0.5351090144
O   O14       1.0  0.67491  0.47998  0.61624  1.0000 -0.5729540895
O   O15       1.0  0.63670  0.39438  0.40500  1.0000 -0.5550127487
O   O16       1.0  0.46060  0.42112  0.44675  1.0000 -0.5467701416
O   O17       1.0  0.41337  0.01531  0.12267  1.0000 -0.578908981
O   O18       1.0  0.23640  0.04054  0.15608  1.0000 -0.5311299126
O   O19       1.0  0.15978  0.96679  0.95024  1.0000 -0.5351090144
O   O20       1.0  0.32509  0.97998  0.88376  1.0000 -0.5729540895
O   O21       1.0  0.36330  0.89438  0.09500  1.0000 -0.5550127487
O   O22       1.0  0.53940  0.92112  0.05325  1.0000 -0.5467701416
O   O23       1.0  0.58663  0.51531  0.37733  1.0000 -0.578908981
O   O24       1.0  0.76360  0.54054  0.34392  1.0000 -0.5311299126
