# DDEC6 charges by PACMAN v1.1 (https://github.com/mtap-research/PACMAN-charge/)
data_2021[Nd][pcu]3[ASR]1
_chemical_formula_sum              "Nd4 H40 C48 N4 O24"
_cell_length_a       6.1774
_cell_length_b       22.134
_cell_length_c       12.0806
_cell_angle_alpha    90
_cell_angle_beta     110.846
_cell_angle_gamma    90

_symmetry_space_group_name_H-M    "P 1"
_symmetry_Int_Tables_number       1

loop_
  _symmetry_equiv_pos_as_xyz
  'x, y, z'

loop_
  _atom_site_type_symbol
  _atom_site_label
  _atom_site_symmetry_multiplicity
  _atom_site_fract_x
  _atom_site_fract_y
  _atom_site_fract_z
  _atom_site_occupancy
  _atom_site_charge
Nd  Nd1       1.0  0.84705  0.75189  0.41373  1.0000 1.9433469209
Nd  Nd2       1.0  0.15295  0.25189  0.08627  1.0000 1.9433469209
Nd  Nd3       1.0  0.15295  0.24811  0.58627  1.0000 1.9433469209
Nd  Nd4       1.0  0.84705  0.74811  0.91373  1.0000 1.9433469209
H   H1        1.0  0.80474  0.40772  0.28067  1.0000 0.131589112
H   H2        1.0  0.93325  0.50287  0.35257  1.0000 0.1100309983
H   H3        1.0  0.31845  0.53908  0.37668  1.0000 0.1219284865
H   H4        1.0  0.18485  0.44624  0.29747  1.0000 0.1100309983
H   H5        1.0  0.89405  0.59378  0.44589  1.0000 0.1219284865
H   H6        1.0  0.67260  0.60522  0.47709  1.0000 0.131589112
H   H7        1.0  0.35753  0.68306  0.21758  1.0000 0.1601280454
H   H8        1.0  0.31734  0.61983  0.26587  1.0000 0.1401969913
H   H9        1.0  0.85095  0.60272  0.24331  1.0000 0.131589112
H   H10       1.0  0.58815  0.60525  0.16297  1.0000 0.1401969913
H   H11       1.0  0.19526  0.90772  0.21933  1.0000 0.131589112
H   H12       1.0  0.06675  0.00287  0.14743  1.0000 0.1100309983
H   H13       1.0  0.68155  0.03908  0.12332  1.0000 0.1219284865
H   H14       1.0  0.81515  0.94624  0.20253  1.0000 0.1100309983
H   H15       1.0  0.10595  0.09378  0.05411  1.0000 0.1219284865
H   H16       1.0  0.32740  0.10522  0.02291  1.0000 0.131589112
H   H17       1.0  0.64247  0.18306  0.28242  1.0000 0.1601280454
H   H18       1.0  0.68266  0.11983  0.23413  1.0000 0.131589112
H   H19       1.0  0.14905  0.10272  0.25669  1.0000 0.131589112
H   H20       1.0  0.41185  0.10525  0.33703  1.0000 0.1401969913
H   H21       1.0  0.19526  0.59228  0.71933  1.0000 0.131589112
H   H22       1.0  0.06675  0.49713  0.64743  1.0000 0.1100309983
H   H23       1.0  0.68155  0.46092  0.62332  1.0000 0.1219284865
H   H24       1.0  0.81515  0.55376  0.70253  1.0000 0.1100309983
H   H25       1.0  0.10595  0.40622  0.55411  1.0000 0.1219284865
H   H26       1.0  0.32740  0.39478  0.52291  1.0000 0.131589112
H   H27       1.0  0.64247  0.31694  0.78242  1.0000 0.1601280454
H   H28       1.0  0.68266  0.38017  0.73413  1.0000 0.131589112
H   H29       1.0  0.14905  0.39728  0.75669  1.0000 0.131589112
H   H30       1.0  0.41185  0.39475  0.83703  1.0000 0.1401969913
H   H31       1.0  0.80474  0.09228  0.78067  1.0000 0.131589112
H   H32       1.0  0.93325  0.99713  0.85257  1.0000 0.1100309983
H   H33       1.0  0.31845  0.96092  0.87668  1.0000 0.1219284865
H   H34       1.0  0.18485  0.05376  0.79747  1.0000 0.1100309983
H   H35       1.0  0.89405  0.90622  0.94589  1.0000 0.1219284865
H   H36       1.0  0.67260  0.89478  0.97709  1.0000 0.131589112
H   H37       1.0  0.35753  0.81694  0.71758  1.0000 0.1601280454
H   H38       1.0  0.31734  0.88017  0.76587  1.0000 0.131589112
H   H39       1.0  0.85095  0.89728  0.74331  1.0000 0.131589112
H   H40       1.0  0.58815  0.89475  0.66297  1.0000 0.1401969913
C   C1        1.0  0.47950  0.41728  0.27990  1.0000 -0.0117664691
C   C2        1.0  0.70490  0.43440  0.29790  1.0000 -0.0890757744
C   C3        1.0  0.78200  0.49160  0.34180  1.0000 -0.1757850093
C   C4        1.0  0.63970  0.53226  0.36990  1.0000 0.1100309983
C   C5        1.0  0.41580  0.51340  0.35510  1.0000 -0.1705858973
C   C6        1.0  0.33660  0.45730  0.30910  1.0000 -0.0992536661
C   C7        1.0  0.72610  0.59484  0.41310  1.0000 -0.2107486134
C   C8        1.0  0.38610  0.35790  0.22380  1.0000 0.5833784523
C   C9        1.0  0.40460  0.65720  0.28690  1.0000 -0.306407806
C   C10       1.0  0.34990  0.68816  0.38620  1.0000 0.6626473102
C   C11       1.0  0.71420  0.62818  0.21840  1.0000 -0.2794911233
C   C12       1.0  0.76020  0.68365  0.15640  1.0000 0.6654033097
C   C13       1.0  0.52050  0.91728  0.22010  1.0000 -0.0117664691
C   C14       1.0  0.29510  0.93440  0.20210  1.0000 -0.0890757744
C   C15       1.0  0.21800  0.99160  0.15820  1.0000 -0.1757850093
C   C16       1.0  0.36030  0.03226  0.13010  1.0000 0.1100309983
C   C17       1.0  0.58420  0.01340  0.14490  1.0000 -0.1705858973
C   C18       1.0  0.66340  0.95730  0.19090  1.0000 -0.0992536661
C   C19       1.0  0.27390  0.09484  0.08690  1.0000 -0.2107486134
C   C20       1.0  0.61390  0.85790  0.27620  1.0000 0.5833784523
C   C21       1.0  0.59540  0.15720  0.21310  1.0000 -0.306407806
C   C22       1.0  0.65010  0.18816  0.11380  1.0000 0.6626473102
C   C23       1.0  0.28580  0.12818  0.28160  1.0000 -0.2794911233
C   C24       1.0  0.23980  0.18365  0.34360  1.0000 0.6654033097
C   C25       1.0  0.52050  0.58272  0.72010  1.0000 -0.0117664691
C   C26       1.0  0.29510  0.56560  0.70210  1.0000 -0.0890757744
C   C27       1.0  0.21800  0.50840  0.65820  1.0000 -0.1757850093
C   C28       1.0  0.36030  0.46774  0.63010  1.0000 0.1100309983
C   C29       1.0  0.58420  0.48660  0.64490  1.0000 -0.1705858973
C   C30       1.0  0.66340  0.54270  0.69090  1.0000 -0.0992536661
C   C31       1.0  0.27390  0.40516  0.58690  1.0000 -0.2107486134
C   C32       1.0  0.61390  0.64210  0.77620  1.0000 0.5833784523
C   C33       1.0  0.59540  0.34280  0.71310  1.0000 -0.306407806
C   C34       1.0  0.65010  0.31184  0.61380  1.0000 0.6626473102
C   C35       1.0  0.28580  0.37182  0.78160  1.0000 -0.2794911233
C   C36       1.0  0.23980  0.31635  0.84360  1.0000 0.6654033097
C   C37       1.0  0.47950  0.08272  0.77990  1.0000 -0.0117664691
C   C38       1.0  0.70490  0.06560  0.79790  1.0000 -0.0890757744
C   C39       1.0  0.78200  0.00840  0.84180  1.0000 -0.1757850093
C   C40       1.0  0.63970  0.96774  0.86990  1.0000 0.1100309983
C   C41       1.0  0.41580  0.98660  0.85510  1.0000 -0.1705858973
C   C42       1.0  0.33660  0.04270  0.80910  1.0000 -0.0992536661
C   C43       1.0  0.72610  0.90516  0.91310  1.0000 -0.2107486134
C   C44       1.0  0.38610  0.14210  0.72380  1.0000 0.5833784523
C   C45       1.0  0.40460  0.84280  0.78690  1.0000 -0.306407806
C   C46       1.0  0.34990  0.81184  0.88620  1.0000 0.6626473102
C   C47       1.0  0.71420  0.87182  0.71840  1.0000 -0.2794911233
C   C48       1.0  0.76020  0.81635  0.65640  1.0000 0.6654033097
N   N1        1.0  0.65400  0.64386  0.32260  1.0000 -0.1159577262
N   N2        1.0  0.34600  0.14386  0.17740  1.0000 -0.1159577262
N   N3        1.0  0.34600  0.35614  0.67740  1.0000 -0.1159577262
N   N4        1.0  0.65400  0.85614  0.82260  1.0000 -0.1159577262
O   O1        1.0  0.52100  0.31677  0.21540  1.0000 -0.6031566229
O   O2        1.0  0.16850  0.35104  0.18220  1.0000 -0.6370677071
O   O3        1.0  0.51050  0.71902  0.45820  1.0000 -0.6340203849
O   O4        1.0  0.76960  0.73412  0.20470  1.0000 -0.6370677071
O   O5        1.0  0.78840  0.67523  0.06010  1.0000 -0.6370677071
O   O6        1.0  0.15020  0.68386  0.38810  1.0000 -0.6501072016
O   O7        1.0  0.47900  0.81677  0.28460  1.0000 -0.6031566229
O   O8        1.0  0.83150  0.85104  0.31780  1.0000 -0.6370677071
O   O9        1.0  0.48950  0.21902  0.04180  1.0000 -0.6340203849
O   O10       1.0  0.23040  0.23412  0.29530  1.0000 -0.6370677071
O   O11       1.0  0.21160  0.17523  0.43990  1.0000 -0.6370677071
O   O12       1.0  0.84980  0.18386  0.11190  1.0000 -0.6501072016
O   O13       1.0  0.47900  0.68323  0.78460  1.0000 -0.6031566229
O   O14       1.0  0.83150  0.64896  0.81780  1.0000 -0.6370677071
O   O15       1.0  0.48950  0.28098  0.54180  1.0000 -0.6340203849
O   O16       1.0  0.23040  0.26588  0.79530  1.0000 -0.6370677071
O   O17       1.0  0.21160  0.32477  0.93990  1.0000 -0.6370677071
O   O18       1.0  0.84980  0.31614  0.61190  1.0000 -0.6501072016
O   O19       1.0  0.52100  0.18323  0.71540  1.0000 -0.6031566229
O   O20       1.0  0.16850  0.14896  0.68220  1.0000 -0.6370677071
O   O21       1.0  0.51050  0.78098  0.95820  1.0000 -0.6340203849
O   O22       1.0  0.76960  0.76588  0.70470  1.0000 -0.6370677071
O   O23       1.0  0.78840  0.82477  0.56010  1.0000 -0.6370677071
O   O24       1.0  0.15020  0.81614  0.88810  1.0000 -0.6501072016
