# DDEC6 charges by PACMAN v1.1 (https://github.com/mtap-research/PACMAN-charge/)
data_2021[V][nan]3[ASR]12
_chemical_formula_sum              "V4 H12 C32 O20"
_cell_length_a       12.2512
_cell_length_b       12.2512
_cell_length_c       12.2512
_cell_angle_alpha    103.936
_cell_angle_beta     103.936
_cell_angle_gamma    121.221

_symmetry_space_group_name_H-M    "P 1"
_symmetry_Int_Tables_number       1

loop_
  _symmetry_equiv_pos_as_xyz
  'x, y, z'

loop_
  _atom_site_type_symbol
  _atom_site_label
  _atom_site_symmetry_multiplicity
  _atom_site_fract_x
  _atom_site_fract_y
  _atom_site_fract_z
  _atom_site_occupancy
  _atom_site_charge
V   V1        1.0  0.94607  0.05393  0.50000  1.0000 1.8523964073
V   V2        1.0  0.55393  0.44607  0.50000  1.0000 1.8523964073
V   V3        1.0  0.69607  0.69607  0.39214  1.0000 1.8523964073
V   V4        1.0  0.30393  0.30393  0.60786  1.0000 1.8523964073
H   H1        1.0  0.39455  0.71498  0.44633  1.0000 0.1384940083
H   H2        1.0  0.26865  0.94822  0.55367  1.0000 0.1384940083
H   H3        1.0  0.19822  0.14455  0.17957  1.0000 0.1384940083
H   H4        1.0  0.96498  0.01865  0.82043  1.0000 0.1384940083
H   H5        1.0  0.85545  0.80178  0.82043  1.0000 0.1384940083
H   H6        1.0  0.98135  0.03502  0.17957  1.0000 0.1384940083
H   H7        1.0  0.05178  0.73135  0.44633  1.0000 0.1384940083
H   H8        1.0  0.28502  0.60545  0.55367  1.0000 0.1384940083
H   H9        1.0  0.62339  0.12339  0.50000  1.0000 0.1476352002
H   H10       1.0  0.37339  0.37339  0.00000  1.0000 0.1476352002
H   H11       1.0  0.62661  0.62661  0.00000  1.0000 0.1476352002
H   H12       1.0  0.87661  0.37661  0.50000  1.0000 0.1476352002
C   C1        1.0  0.52990  0.92040  0.47370  1.0000 -0.0118957901
C   C2        1.0  0.63700  0.90560  0.45060  1.0000 0.6256387021
C   C3        1.0  0.40880  0.80110  0.46970  1.0000 -0.1303969499
C   C4        1.0  0.44670  0.05620  0.52630  1.0000 -0.0118957901
C   C5        1.0  0.45500  0.18640  0.54940  1.0000 0.6256387021
C   C6        1.0  0.33140  0.93910  0.53030  1.0000 -0.1303969499
C   C7        1.0  0.30620  0.27990  0.10950  1.0000 -0.0118957901
C   C8        1.0  0.43640  0.38700  0.23140  1.0000 0.6256387021
C   C9        1.0  0.18910  0.15880  0.10770  1.0000 -0.1303969499
C   C10       1.0  0.17040  0.19670  0.89050  1.0000 -0.0118957901
C   C11       1.0  0.15560  0.20500  0.76860  1.0000 0.6256387021
C   C12       1.0  0.05110  0.08140  0.89230  1.0000 -0.1303969499
C   C13       1.0  0.72010  0.69380  0.89050  1.0000 -0.0118957901
C   C14       1.0  0.61300  0.56360  0.76860  1.0000 0.6256387021
C   C15       1.0  0.84120  0.81090  0.89230  1.0000 -0.1303969499
C   C16       1.0  0.80330  0.82960  0.10950  1.0000 -0.0118957901
C   C17       1.0  0.79500  0.84440  0.23140  1.0000 0.6256387021
C   C18       1.0  0.91860  0.94890  0.10770  1.0000 -0.1303969499
C   C19       1.0  0.94380  0.55330  0.47370  1.0000 -0.0118957901
C   C20       1.0  0.81360  0.54500  0.45060  1.0000 0.6256387021
C   C21       1.0  0.06090  0.66860  0.46970  1.0000 -0.1303969499
C   C22       1.0  0.07960  0.47010  0.52630  1.0000 -0.0118957901
C   C23       1.0  0.09440  0.36300  0.54940  1.0000 0.6256387021
C   C24       1.0  0.19890  0.59120  0.53030  1.0000 -0.1303969499
C   C25       1.0  0.31190  0.81190  0.50000  1.0000 0.0676920071
C   C26       1.0  0.54600  0.04600  0.50000  1.0000 -0.0974458259
C   C27       1.0  0.06190  0.06190  0.00000  1.0000 0.0676920071
C   C28       1.0  0.29600  0.29600  0.00000  1.0000 -0.0974458259
C   C29       1.0  0.93810  0.93810  0.00000  1.0000 0.0676920071
C   C30       1.0  0.70400  0.70400  0.00000  1.0000 -0.0974458259
C   C31       1.0  0.18810  0.68810  0.50000  1.0000 0.0676920071
C   C32       1.0  0.95400  0.45400  0.50000  1.0000 -0.0974458259
O   O1        1.0  0.59620  0.78190  0.38870  1.0000 -0.5712860261
O   O2        1.0  0.76340  0.02090  0.49970  1.0000 -0.5633819217
O   O3        1.0  0.39320  0.20750  0.61130  1.0000 -0.5712860261
O   O4        1.0  0.52120  0.26370  0.50030  1.0000 -0.5633819217
O   O5        1.0  0.45750  0.34620  0.31430  1.0000 -0.5712860261
O   O6        1.0  0.51370  0.51340  0.24250  1.0000 -0.5633819217
O   O7        1.0  0.03190  0.14320  0.68570  1.0000 -0.5712860261
O   O8        1.0  0.27090  0.27120  0.75750  1.0000 -0.5712860261
O   O9        1.0  0.65380  0.54250  0.68570  1.0000 -0.5712860261
O   O10       1.0  0.48660  0.48630  0.75750  1.0000 -0.5712860261
O   O11       1.0  0.85680  0.96810  0.31430  1.0000 -0.5712860261
O   O12       1.0  0.72880  0.72910  0.24250  1.0000 -0.5633819217
O   O13       1.0  0.79250  0.60680  0.38870  1.0000 -0.5712860261
O   O14       1.0  0.73630  0.47880  0.49970  1.0000 -0.5633819217
O   O15       1.0  0.21810  0.40380  0.61130  1.0000 -0.5712860261
O   O16       1.0  0.97910  0.23660  0.50030  1.0000 -0.5633819217
O   O17       1.0  0.87040  0.87500  0.49540  1.0000 -0.9406697814
O   O18       1.0  0.37960  0.37500  0.50460  1.0000 -0.9406697814
O   O19       1.0  0.62500  0.62040  0.49540  1.0000 -0.9406697814
O   O20       1.0  0.12500  0.12960  0.50460  1.0000 -0.9406697814
