# DDEC6 charges by PACMAN v1.1 (https://github.com/mtap-research/PACMAN-charge/)
data_2021[ZnMg][nan]3[ASR]1
_chemical_formula_sum              "Mg4 Zn4 H20 C48 O32"
_cell_length_a       15.1601
_cell_length_b       15.1601
_cell_length_c       11.467
_cell_angle_alpha    80.7772
_cell_angle_beta     99.2228
_cell_angle_gamma    101.543

_symmetry_space_group_name_H-M    "P 1"
_symmetry_Int_Tables_number       1

loop_
  _symmetry_equiv_pos_as_xyz
  'x, y, z'

loop_
  _atom_site_type_symbol
  _atom_site_label
  _atom_site_symmetry_multiplicity
  _atom_site_fract_x
  _atom_site_fract_y
  _atom_site_fract_z
  _atom_site_occupancy
  _atom_site_charge
Mg  Mg1       1.0  0.72502  0.21040  0.32048  1.0000 1.3802380992
Mg  Mg2       1.0  0.21040  0.72502  0.17952  1.0000 1.3802380992
Mg  Mg3       1.0  0.27498  0.78960  0.67952  1.0000 1.3802380992
Mg  Mg4       1.0  0.78960  0.27498  0.82048  1.0000 1.3802380992
Zn  Zn1       1.0  0.85202  0.30362  0.52943  1.0000 0.9319213761
Zn  Zn2       1.0  0.30362  0.85202  0.97057  1.0000 0.9319213761
Zn  Zn3       1.0  0.14798  0.69638  0.47057  1.0000 0.9319213761
Zn  Zn4       1.0  0.69638  0.14798  0.02943  1.0000 0.9319213761
H   H1        1.0  0.05961  0.53913  0.59968  1.0000 0.140108323
H   H2        1.0  0.02121  0.42569  0.92930  1.0000 0.1214570145
H   H3        1.0  0.12118  0.54322  0.00456  1.0000 0.1214570145
H   H4        1.0  0.82056  0.02806  0.33041  1.0000 0.3619709818
H   H5        1.0  0.03976  0.11438  0.61883  1.0000 0.140108323
H   H6        1.0  0.53913  0.05961  0.90032  1.0000 0.140108323
H   H7        1.0  0.42569  0.02121  0.57070  1.0000 0.1214570145
H   H8        1.0  0.54322  0.12118  0.49544  1.0000 0.1214570145
H   H9        1.0  0.02806  0.82056  0.16959  1.0000 0.3619709818
H   H10       1.0  0.11438  0.03976  0.88117  1.0000 0.140108323
H   H11       1.0  0.94039  0.46087  0.40032  1.0000 0.140108323
H   H12       1.0  0.97879  0.57431  0.07070  1.0000 0.1214570145
H   H13       1.0  0.87882  0.45678  0.99544  1.0000 0.1214570145
H   H14       1.0  0.17944  0.97194  0.66959  1.0000 0.3619709818
H   H15       1.0  0.96024  0.88562  0.38117  1.0000 0.140108323
H   H16       1.0  0.46087  0.94039  0.09968  1.0000 0.140108323
H   H17       1.0  0.57431  0.97879  0.42930  1.0000 0.1214570145
H   H18       1.0  0.45678  0.87882  0.50456  1.0000 0.1214570145
H   H19       1.0  0.97194  0.17944  0.83041  1.0000 0.3619709818
H   H20       1.0  0.88562  0.96024  0.11883  1.0000 0.140108323
C   C1        1.0  0.20350  0.69350  0.90740  1.0000 0.6434898509
C   C2        1.0  0.15240  0.61580  0.84900  1.0000 -0.1720272393
C   C3        1.0  0.13630  0.61350  0.72250  1.0000 0.3537770046
C   C4        1.0  0.07260  0.54140  0.68130  1.0000 -0.2395682426
C   C5        1.0  0.02820  0.47340  0.75720  1.0000 -0.00075858
C   C6        1.0  0.04840  0.47340  0.87780  1.0000 -0.1497471237
C   C7        1.0  0.10890  0.54370  0.92240  1.0000 -0.0881923528
C   C8        1.0  0.95490  0.40090  0.71020  1.0000 0.6118984951
C   C9        1.0  0.88980  0.14000  0.46740  1.0000 0.6226073636
C   C10       1.0  0.94700  0.06880  0.48460  1.0000 -0.1574676873
C   C11       1.0  0.92350  0.99910  0.41200  1.0000 0.2702718361
C   C12       1.0  0.02370  0.06810  0.57100  1.0000 -0.2043766992
C   C13       1.0  0.69350  0.20350  0.59260  1.0000 0.6434898509
C   C14       1.0  0.61580  0.15240  0.65100  1.0000 -0.1720272393
C   C15       1.0  0.61350  0.13630  0.77750  1.0000 0.3537770046
C   C16       1.0  0.54140  0.07260  0.81870  1.0000 -0.2395682426
C   C17       1.0  0.47340  0.02820  0.74280  1.0000 -0.00075858
C   C18       1.0  0.47340  0.04840  0.62220  1.0000 -0.1497471237
C   C19       1.0  0.54370  0.10890  0.57760  1.0000 -0.0881923528
C   C20       1.0  0.40090  0.95490  0.78980  1.0000 0.6118984951
C   C21       1.0  0.14000  0.88980  0.03260  1.0000 0.6226073636
C   C22       1.0  0.06880  0.94700  0.01540  1.0000 -0.1574676873
C   C23       1.0  0.99910  0.92350  0.08800  1.0000 0.2702718361
C   C24       1.0  0.06810  0.02370  0.92900  1.0000 -0.2043766992
C   C25       1.0  0.79650  0.30650  0.09260  1.0000 0.6434898509
C   C26       1.0  0.84760  0.38420  0.15100  1.0000 -0.1720272393
C   C27       1.0  0.86370  0.38650  0.27750  1.0000 0.3537770046
C   C28       1.0  0.92740  0.45860  0.31870  1.0000 -0.2395682426
C   C29       1.0  0.97180  0.52660  0.24280  1.0000 0.0003065148
C   C30       1.0  0.95160  0.52660  0.12220  1.0000 -0.1497471237
C   C31       1.0  0.89110  0.45630  0.07760  1.0000 -0.0881923528
C   C32       1.0  0.04510  0.59910  0.28980  1.0000 0.6118984951
C   C33       1.0  0.11020  0.86000  0.53260  1.0000 0.6226073636
C   C34       1.0  0.05300  0.93120  0.51540  1.0000 -0.1574676873
C   C35       1.0  0.07650  0.00090  0.58800  1.0000 0.2702718361
C   C36       1.0  0.97630  0.93190  0.42900  1.0000 -0.2050897496
C   C37       1.0  0.30650  0.79650  0.40740  1.0000 0.6434898509
C   C38       1.0  0.38420  0.84760  0.34900  1.0000 -0.1720272393
C   C39       1.0  0.38650  0.86370  0.22250  1.0000 0.3537770046
C   C40       1.0  0.45860  0.92740  0.18130  1.0000 -0.2395682426
C   C41       1.0  0.52660  0.97180  0.25720  1.0000 -0.00075858
C   C42       1.0  0.52660  0.95160  0.37780  1.0000 -0.1497471237
C   C43       1.0  0.45630  0.89110  0.42240  1.0000 -0.0881923528
C   C44       1.0  0.59910  0.04510  0.21020  1.0000 0.6118984951
C   C45       1.0  0.86000  0.11020  0.96740  1.0000 0.6226073636
C   C46       1.0  0.93120  0.05300  0.98460  1.0000 -0.1574676873
C   C47       1.0  0.00090  0.07650  0.91200  1.0000 0.2702718361
C   C48       1.0  0.93190  0.97630  0.07100  1.0000 -0.2043766992
O   O1        1.0  0.24380  0.76560  0.84950  1.0000 -0.6640355007
O   O2        1.0  0.20890  0.68830  0.01750  1.0000 -0.6324402706
O   O3        1.0  0.18019  0.67659  0.64720  1.0000 -0.6979039179
O   O4        1.0  0.94688  0.39228  0.60240  1.0000 -0.5205408798
O   O5        1.0  0.90620  0.35500  0.78110  1.0000 -0.6236946152
O   O6        1.0  0.82240  0.13460  0.38990  1.0000 -0.6324402706
O   O7        1.0  0.91650  0.20110  0.53570  1.0000 -0.5352849232
O   O8        1.0  0.84760  0.98560  0.33540  1.0000 -0.3809153901
O   O9        1.0  0.76560  0.24380  0.65050  1.0000 -0.6640355007
O   O10       1.0  0.68830  0.20890  0.48250  1.0000 -0.6324402706
O   O11       1.0  0.67659  0.18019  0.85280  1.0000 -0.6979039179
O   O12       1.0  0.39228  0.94688  0.89760  1.0000 -0.5205408798
O   O13       1.0  0.35500  0.90620  0.71890  1.0000 -0.6236946152
O   O14       1.0  0.13460  0.82240  0.11010  1.0000 -0.6324402706
O   O15       1.0  0.20110  0.91650  0.96430  1.0000 -0.5352849232
O   O16       1.0  0.98560  0.84760  0.16460  1.0000 -0.3809153901
O   O17       1.0  0.75620  0.23440  0.15050  1.0000 -0.6640355007
O   O18       1.0  0.79110  0.31170  0.98250  1.0000 -0.6324402706
O   O19       1.0  0.81981  0.32341  0.35280  1.0000 -0.6979039179
O   O20       1.0  0.05312  0.60772  0.39760  1.0000 -0.5205408798
O   O21       1.0  0.09380  0.64500  0.21890  1.0000 -0.6236946152
O   O22       1.0  0.17760  0.86540  0.61010  1.0000 -0.6324402706
O   O23       1.0  0.08350  0.79890  0.46430  1.0000 -0.5352849232
O   O24       1.0  0.15240  0.01440  0.66460  1.0000 -0.3809153901
O   O25       1.0  0.23440  0.75620  0.34950  1.0000 -0.6640355007
O   O26       1.0  0.31170  0.79110  0.51750  1.0000 -0.6324402706
O   O27       1.0  0.32341  0.81981  0.14720  1.0000 -0.6979039179
O   O28       1.0  0.60772  0.05312  0.10240  1.0000 -0.5205408798
O   O29       1.0  0.64500  0.09380  0.28110  1.0000 -0.6236946152
O   O30       1.0  0.86540  0.17760  0.88990  1.0000 -0.6324402706
O   O31       1.0  0.79890  0.08350  0.03570  1.0000 -0.5352849232
O   O32       1.0  0.01440  0.15240  0.83540  1.0000 -0.3809153901
