# DDEC6 charges by PACMAN v1.1 (https://github.com/mtap-research/PACMAN-charge/)
data_2021[V][nan]3[ASR]3
_chemical_formula_sum              "V4 H16 C32 O20"
_cell_length_a       12.2997
_cell_length_b       12.2997
_cell_length_c       12.2997
_cell_angle_alpha    103.816
_cell_angle_beta     103.816
_cell_angle_gamma    121.493

_symmetry_space_group_name_H-M    "P 1"
_symmetry_Int_Tables_number       1

loop_
  _symmetry_equiv_pos_as_xyz
  'x, y, z'

loop_
  _atom_site_type_symbol
  _atom_site_label
  _atom_site_symmetry_multiplicity
  _atom_site_fract_x
  _atom_site_fract_y
  _atom_site_fract_z
  _atom_site_occupancy
  _atom_site_charge
V   V1        1.0  0.69235  0.69235  0.38470  1.0000 1.6520476795
V   V2        1.0  0.30765  0.30765  0.61530  1.0000 1.6520476795
V   V3        1.0  0.94235  0.05765  0.50000  1.0000 1.6520476795
V   V4        1.0  0.55765  0.44235  0.50000  1.0000 1.6520476795
H   H1        1.0  0.98000  0.03100  0.18500  1.0000 0.1273292701
H   H2        1.0  0.84600  0.79500  0.81500  1.0000 0.1273292701
H   H3        1.0  0.28100  0.59600  0.55100  1.0000 0.1273292701
H   H4        1.0  0.04500  0.73000  0.44900  1.0000 0.1273292701
H   H5        1.0  0.27000  0.95500  0.55100  1.0000 0.1273292701
H   H6        1.0  0.40400  0.71900  0.44900  1.0000 0.1273292701
H   H7        1.0  0.96900  0.02000  0.81500  1.0000 0.1273292701
H   H8        1.0  0.20500  0.15400  0.18500  1.0000 0.1273292701
H   H9        1.0  0.94043  0.87500  0.56543  1.0000 0.4265739627
H   H10       1.0  0.30957  0.37500  0.43457  1.0000 0.4265739627
H   H11       1.0  0.12500  0.05957  0.43457  1.0000 0.4265739627
H   H12       1.0  0.62500  0.69043  0.56543  1.0000 0.4265739627
H   H13       1.0  0.62765  0.62765  0.00000  1.0000 0.1446773864
H   H14       1.0  0.87765  0.37765  0.50000  1.0000 0.1446773864
H   H15       1.0  0.62235  0.12235  0.50000  1.0000 0.1446773864
H   H16       1.0  0.37235  0.37235  0.00000  1.0000 0.1446773864
C   C1        1.0  0.80350  0.83170  0.10880  1.0000 -0.0225055518
C   C2        1.0  0.79340  0.84320  0.22840  1.0000 0.6206182174
C   C3        1.0  0.91850  0.94920  0.10770  1.0000 -0.1493728601
C   C4        1.0  0.72290  0.69470  0.89120  1.0000 -0.0225055518
C   C5        1.0  0.61480  0.56500  0.77160  1.0000 0.6206182174
C   C6        1.0  0.84150  0.81080  0.89230  1.0000 -0.1493728601
C   C7        1.0  0.08170  0.47290  0.52820  1.0000 -0.0225055518
C   C8        1.0  0.09320  0.36480  0.54980  1.0000 0.6206182174
C   C9        1.0  0.19920  0.59150  0.53070  1.0000 -0.1493728601
C   C10       1.0  0.94470  0.55350  0.47180  1.0000 -0.0225055518
C   C11       1.0  0.81500  0.54340  0.45020  1.0000 0.6206182174
C   C12       1.0  0.06080  0.66850  0.46930  1.0000 -0.1493728601
C   C13       1.0  0.44650  0.05530  0.52820  1.0000 -0.0225055518
C   C14       1.0  0.45660  0.18500  0.54980  1.0000 0.6206182174
C   C15       1.0  0.33150  0.93920  0.53070  1.0000 -0.1493728601
C   C16       1.0  0.52710  0.91830  0.47180  1.0000 -0.0225055518
C   C17       1.0  0.63520  0.90680  0.45020  1.0000 0.6206182174
C   C18       1.0  0.40850  0.80080  0.46930  1.0000 -0.1493728601
C   C19       1.0  0.16830  0.19650  0.89120  1.0000 -0.0225055518
C   C20       1.0  0.15680  0.20660  0.77160  1.0000 0.6206182174
C   C21       1.0  0.05080  0.08150  0.89230  1.0000 -0.1493728601
C   C22       1.0  0.30530  0.27710  0.10880  1.0000 -0.0225055518
C   C23       1.0  0.43500  0.38520  0.22840  1.0000 0.6206182174
C   C24       1.0  0.18920  0.15850  0.10770  1.0000 -0.1493728601
C   C25       1.0  0.93840  0.93840  0.00000  1.0000 0.0734031208
C   C26       1.0  0.70500  0.70500  0.00000  1.0000 -0.0981510125
C   C27       1.0  0.18840  0.68840  0.50000  1.0000 0.0734031208
C   C28       1.0  0.95500  0.45500  0.50000  1.0000 -0.0981510125
C   C29       1.0  0.31160  0.81160  0.50000  1.0000 0.0734031208
C   C30       1.0  0.54500  0.04500  0.50000  1.0000 -0.0981510125
C   C31       1.0  0.06160  0.06160  0.00000  1.0000 0.0734031208
C   C32       1.0  0.29500  0.29500  0.00000  1.0000 -0.0981510125
O   O1        1.0  0.85440  0.96570  0.31150  1.0000 -0.6062574305
O   O2        1.0  0.72840  0.73030  0.24070  1.0000 -0.5795114778
O   O3        1.0  0.65420  0.54290  0.68850  1.0000 -0.6062574305
O   O4        1.0  0.48960  0.48770  0.75930  1.0000 -0.5795114778
O   O5        1.0  0.21570  0.40420  0.61130  1.0000 -0.6062574305
O   O6        1.0  0.98030  0.23960  0.50190  1.0000 -0.5795114778
O   O7        1.0  0.79290  0.60440  0.38870  1.0000 -0.6062574305
O   O8        1.0  0.73770  0.47840  0.49810  1.0000 -0.5795114778
O   O9        1.0  0.39560  0.20710  0.61130  1.0000 -0.6062574305
O   O10       1.0  0.52160  0.26230  0.50190  1.0000 -0.5795114778
O   O11       1.0  0.59580  0.78430  0.38870  1.0000 -0.6062574305
O   O12       1.0  0.76040  0.01970  0.49810  1.0000 -0.5795114778
O   O13       1.0  0.03430  0.14560  0.68850  1.0000 -0.6062574305
O   O14       1.0  0.26970  0.27160  0.75930  1.0000 -0.5795114778
O   O15       1.0  0.45710  0.34580  0.31150  1.0000 -0.6062574305
O   O16       1.0  0.51230  0.51040  0.24070  1.0000 -0.5795114778
O   O17       1.0  0.87710  0.87500  0.50210  1.0000 -0.9791514718
O   O18       1.0  0.37290  0.37500  0.49790  1.0000 -0.9791514718
O   O19       1.0  0.12500  0.12290  0.49790  1.0000 -0.9791514718
O   O20       1.0  0.62500  0.62710  0.50210  1.0000 -0.9791514718
