# DDEC6 charges by PACMAN v1.1 (https://github.com/mtap-research/PACMAN-charge/)
data_2021[Sm][fcu]3[ASR]1
_chemical_formula_sum              "Sm6 C48 O56"
_cell_length_a       15.3632
_cell_length_b       15.3632
_cell_length_c       15.3632
_cell_angle_alpha    120.031
_cell_angle_beta     120.031
_cell_angle_gamma    89.9464

_symmetry_space_group_name_H-M    "P 1"
_symmetry_Int_Tables_number       1

loop_
  _symmetry_equiv_pos_as_xyz
  'x, y, z'

loop_
  _atom_site_type_symbol
  _atom_site_label
  _atom_site_symmetry_multiplicity
  _atom_site_fract_x
  _atom_site_fract_y
  _atom_site_fract_z
  _atom_site_occupancy
  _atom_site_charge
Sm  Sm1       1.0  0.87076  0.87076  0.00000  1.0000 2.2700980537
Sm  Sm2       1.0  0.12924  0.12924  0.00000  1.0000 2.2700980537
Sm  Sm3       1.0  0.87071  0.87080  0.74151  1.0000 2.2700980537
Sm  Sm4       1.0  0.12929  0.12920  0.25849  1.0000 2.2700980537
Sm  Sm5       1.0  0.87080  0.12929  0.00009  1.0000 2.2700980537
Sm  Sm6       1.0  0.12920  0.87071  0.99991  1.0000 2.2700980537
C   C1        1.0  0.68640  0.68800  0.68580  1.0000 0.7276323271
C   C2        1.0  0.58870  0.58940  0.58830  1.0000 -0.1683312696
C   C3        1.0  0.54790  0.54580  0.62870  1.0000 0.2598202745
C   C4        1.0  0.45320  0.45380  0.53300  1.0000 0.2044029529
C   C5        1.0  0.00220  0.00060  0.31420  1.0000 0.7276323271
C   C6        1.0  0.00110  0.00040  0.41170  1.0000 -0.1683312696
C   C7        1.0  0.91710  0.91920  0.37130  1.0000 0.2598202745
C   C8        1.0  0.92080  0.92020  0.46700  1.0000 0.2057341966
C   C9        1.0  0.68800  0.00220  0.00160  1.0000 0.7249025735
C   C10       1.0  0.58940  0.00110  0.00070  1.0000 -0.1683312696
C   C11       1.0  0.54580  0.91710  0.99790  1.0000 0.2598202745
C   C12       1.0  0.45380  0.92080  0.00060  1.0000 0.2057341966
C   C13       1.0  0.00060  0.68640  0.99840  1.0000 0.7276323271
C   C14       1.0  0.00040  0.58870  0.99930  1.0000 -0.1683312696
C   C15       1.0  0.91920  0.54790  0.00210  1.0000 0.2598202745
C   C16       1.0  0.92020  0.45320  0.99940  1.0000 0.2044029529
C   C17       1.0  0.31360  0.31200  0.31420  1.0000 0.7276323271
C   C18       1.0  0.41130  0.41060  0.41170  1.0000 -0.1683312696
C   C19       1.0  0.45210  0.45420  0.37130  1.0000 0.2598202745
C   C20       1.0  0.54680  0.54620  0.46700  1.0000 0.2044029529
C   C21       1.0  0.99780  0.99940  0.68580  1.0000 0.7276323271
C   C22       1.0  0.99890  0.99960  0.58830  1.0000 -0.1683312696
C   C23       1.0  0.08290  0.08080  0.62870  1.0000 0.2598202745
C   C24       1.0  0.07920  0.07980  0.53300  1.0000 0.2057341966
C   C25       1.0  0.31200  0.99780  0.99840  1.0000 0.7276323271
C   C26       1.0  0.41060  0.99890  0.99930  1.0000 -0.1683312696
C   C27       1.0  0.45420  0.08290  0.00210  1.0000 0.2598202745
C   C28       1.0  0.54620  0.07920  0.99940  1.0000 0.2044029529
C   C29       1.0  0.99940  0.31360  0.00160  1.0000 0.7276323271
C   C30       1.0  0.99960  0.41130  0.00070  1.0000 -0.1683312696
C   C31       1.0  0.08080  0.45210  0.99790  1.0000 0.2598202745
C   C32       1.0  0.07980  0.54680  0.00060  1.0000 0.2057341966
C   C33       1.0  0.99880  0.68650  0.68530  1.0000 0.7276323271
C   C34       1.0  0.99950  0.58790  0.58740  1.0000 -0.1683312696
C   C35       1.0  0.07860  0.54790  0.62650  1.0000 0.2291090186
C   C36       1.0  0.92030  0.54550  0.46580  1.0000 0.2188501242
C   C37       1.0  0.00120  0.31350  0.31470  1.0000 0.7352176937
C   C38       1.0  0.00050  0.41210  0.41260  1.0000 -0.163995896
C   C39       1.0  0.92140  0.45210  0.37350  1.0000 0.2291090186
C   C40       1.0  0.07970  0.45450  0.53420  1.0000 0.2188501242
C   C41       1.0  0.68650  0.00120  0.68770  1.0000 0.7352176937
C   C42       1.0  0.58790  0.00050  0.58840  1.0000 -0.1683312696
C   C43       1.0  0.54790  0.92140  0.46930  1.0000 0.2291090186
C   C44       1.0  0.54550  0.07970  0.62520  1.0000 0.2188501242
C   C45       1.0  0.31350  0.99880  0.31230  1.0000 0.7276323271
C   C46       1.0  0.41210  0.99950  0.41160  1.0000 -0.163995896
C   C47       1.0  0.45210  0.07860  0.53070  1.0000 0.2291090186
C   C48       1.0  0.45450  0.92030  0.37480  1.0000 0.2188501242
O   O1        1.0  0.82100  0.94050  0.88090  1.0000 -0.9538903005
O   O2        1.0  0.72500  0.72440  0.79700  1.0000 -0.5287555721
O   O3        1.0  0.72570  0.72560  0.65310  1.0000 -0.5082115871
O   O4        1.0  0.58310  0.58010  0.74100  1.0000 -0.2402962066
O   O5        1.0  0.41860  0.41560  0.57900  1.0000 -0.2206780207
O   O6        1.0  0.05960  0.94010  0.11910  1.0000 -0.9538903005
O   O7        1.0  0.92740  0.92800  0.20300  1.0000 -0.5287555721
O   O8        1.0  0.07250  0.07260  0.34690  1.0000 -0.5082115871
O   O9        1.0  0.83910  0.84210  0.25900  1.0000 -0.2402962066
O   O10       1.0  0.83660  0.83960  0.42100  1.0000 -0.2206780207
O   O11       1.0  0.94050  0.05960  0.11950  1.0000 -0.9538903005
O   O12       1.0  0.72440  0.92740  0.99940  1.0000 -0.5287555721
O   O13       1.0  0.72560  0.07250  0.99990  1.0000 -0.5082115871
O   O14       1.0  0.58010  0.83910  0.99700  1.0000 -0.2402962066
O   O15       1.0  0.41560  0.83660  0.99700  1.0000 -0.2206780207
O   O16       1.0  0.94010  0.82100  0.88050  1.0000 -0.9563321736
O   O17       1.0  0.92800  0.72500  0.00060  1.0000 -0.5287555721
O   O18       1.0  0.07260  0.72570  0.00010  1.0000 -0.5082115871
O   O19       1.0  0.84210  0.58310  0.00300  1.0000 -0.2402962066
O   O20       1.0  0.83960  0.41860  0.00300  1.0000 -0.2206780207
O   O21       1.0  0.17900  0.05950  0.11910  1.0000 -0.9538903005
O   O22       1.0  0.27500  0.27560  0.20300  1.0000 -0.5287555721
O   O23       1.0  0.27430  0.27440  0.34690  1.0000 -0.5082115871
O   O24       1.0  0.41690  0.41990  0.25900  1.0000 -0.2402962066
O   O25       1.0  0.58140  0.58440  0.42100  1.0000 -0.2206780207
O   O26       1.0  0.94040  0.05990  0.88090  1.0000 -0.9563321736
O   O27       1.0  0.07260  0.07200  0.79700  1.0000 -0.5287555721
O   O28       1.0  0.92750  0.92740  0.65310  1.0000 -0.5082115871
O   O29       1.0  0.16090  0.15790  0.74100  1.0000 -0.2402962066
O   O30       1.0  0.16340  0.16040  0.57900  1.0000 -0.2206780207
O   O31       1.0  0.05950  0.94040  0.88050  1.0000 -0.9538903005
O   O32       1.0  0.27560  0.07260  0.00060  1.0000 -0.5287555721
O   O33       1.0  0.27440  0.92750  0.00010  1.0000 -0.5082115871
O   O34       1.0  0.41990  0.16090  0.00300  1.0000 -0.2402962066
O   O35       1.0  0.58440  0.16340  0.00300  1.0000 -0.2206780207
O   O36       1.0  0.05990  0.17900  0.11950  1.0000 -0.9538903005
O   O37       1.0  0.07200  0.27500  0.99940  1.0000 -0.5287555721
O   O38       1.0  0.92740  0.27430  0.99990  1.0000 -0.5082115871
O   O39       1.0  0.15790  0.41690  0.99700  1.0000 -0.2402962066
O   O40       1.0  0.16040  0.58140  0.99700  1.0000 -0.2206780207
O   O41       1.0  0.07410  0.72510  0.79920  1.0000 -0.5647600857
O   O42       1.0  0.92660  0.72530  0.65190  1.0000 -0.5354464022
O   O43       1.0  0.15900  0.58200  0.74100  1.0000 -0.2206780207
O   O44       1.0  0.83700  0.58000  0.41700  1.0000 -0.2402962066
O   O45       1.0  0.92590  0.27490  0.20080  1.0000 -0.5647600857
O   O46       1.0  0.07340  0.27470  0.34810  1.0000 -0.5354464022
O   O47       1.0  0.84100  0.41800  0.25900  1.0000 -0.2206780207
O   O48       1.0  0.16300  0.42000  0.58300  1.0000 -0.2402962066
O   O49       1.0  0.72510  0.92590  0.65100  1.0000 -0.5647600857
O   O50       1.0  0.72530  0.07340  0.79870  1.0000 -0.5354464022
O   O51       1.0  0.58200  0.84100  0.42300  1.0000 -0.2206780207
O   O52       1.0  0.58000  0.16300  0.74300  1.0000 -0.2402962066
O   O53       1.0  0.27490  0.07410  0.34900  1.0000 -0.5647600857
O   O54       1.0  0.27470  0.92660  0.20130  1.0000 -0.5354464022
O   O55       1.0  0.41800  0.15900  0.57700  1.0000 -0.2206780207
O   O56       1.0  0.42000  0.83700  0.25700  1.0000 -0.2402962066
