# DDEC6 charges by PACMAN v1.1 (https://github.com/mtap-research/PACMAN-charge/)
data_2021[Ce][nbo]3[ASR]1
_chemical_formula_sum              "Ce6 H126 C162 N18 O36"
_cell_length_a       27.7199
_cell_length_b       27.7199
_cell_length_c       27.7199
_cell_angle_alpha    117.807
_cell_angle_beta     117.807
_cell_angle_gamma    117.807

_symmetry_space_group_name_H-M    "P 1"
_symmetry_Int_Tables_number       1

loop_
  _symmetry_equiv_pos_as_xyz
  'x, y, z'

loop_
  _atom_site_type_symbol
  _atom_site_label
  _atom_site_symmetry_multiplicity
  _atom_site_fract_x
  _atom_site_fract_y
  _atom_site_fract_z
  _atom_site_occupancy
  _atom_site_charge
Ce  Ce1       1.0  0.39529  0.90865  0.97577  1.0000 1.8267718453
Ce  Ce2       1.0  0.90865  0.97577  0.39529  1.0000 1.8267718453
Ce  Ce3       1.0  0.97577  0.39529  0.90865  1.0000 1.8267718453
Ce  Ce4       1.0  0.60471  0.09135  0.02423  1.0000 1.8267718453
Ce  Ce5       1.0  0.09135  0.02423  0.60471  1.0000 1.8267718453
Ce  Ce6       1.0  0.02423  0.60471  0.09135  1.0000 1.8267718453
H   H1        1.0  0.39826  0.07364  0.88311  1.0000 0.1097985085
H   H2        1.0  0.29211  0.95440  0.91436  1.0000 0.1195053547
H   H3        1.0  0.19355  0.94975  0.86373  1.0000 0.1195053547
H   H4        1.0  0.19418  0.00373  0.81754  1.0000 0.1011339512
H   H5        1.0  0.90112  0.63632  0.34767  1.0000 0.1011339512
H   H6        1.0  0.02491  0.70216  0.48622  1.0000 0.1097985085
H   H7        1.0  0.99665  0.58641  0.44074  1.0000 0.1195053547
H   H8        1.0  0.71099  0.33741  0.11672  1.0000 0.1097985085
H   H9        1.0  0.75189  0.66790  0.32642  1.0000 0.1097985085
H   H10       1.0  0.59352  0.63220  0.14557  1.0000 0.1195053547
H   H11       1.0  0.42205  0.45466  0.01585  1.0000 0.1254879533
H   H12       1.0  0.41946  0.38477  0.03850  1.0000 0.1097985085
H   H13       1.0  0.25334  0.07148  0.79797  1.0000 0.1097985085
H   H14       1.0  0.29709  0.05820  0.78177  1.0000 0.1097985085
H   H15       1.0  0.75166  0.50035  0.15854  1.0000 0.1097985085
H   H16       1.0  0.67926  0.38216  0.06589  1.0000 0.1011339512
H   H17       1.0  0.65044  0.52829  0.27156  1.0000 0.1097985085
H   H18       1.0  0.51740  0.42117  0.16456  1.0000 0.1097985085
H   H19       1.0  0.49704  0.22409  0.93644  1.0000 0.1011339512
H   H20       1.0  0.71731  0.52864  0.23287  1.0000 0.1011339512
H   H21       1.0  0.38993  0.24729  0.99007  1.0000 0.1097985085
H   H22       1.0  0.07364  0.88311  0.39826  1.0000 0.1097985085
H   H23       1.0  0.95440  0.91436  0.29211  1.0000 0.1195053547
H   H24       1.0  0.94975  0.86373  0.19355  1.0000 0.1195053547
H   H25       1.0  0.00373  0.81754  0.19418  1.0000 0.1011339512
H   H26       1.0  0.63632  0.34767  0.90112  1.0000 0.1011339512
H   H27       1.0  0.70216  0.48622  0.02491  1.0000 0.1097985085
H   H28       1.0  0.58641  0.44074  0.99665  1.0000 0.1195053547
H   H29       1.0  0.33741  0.11672  0.71099  1.0000 0.1097985085
H   H30       1.0  0.66790  0.32642  0.75189  1.0000 0.1097985085
H   H31       1.0  0.63220  0.14557  0.59352  1.0000 0.1195053547
H   H32       1.0  0.45466  0.01585  0.42205  1.0000 0.1254879533
H   H33       1.0  0.38477  0.03850  0.41946  1.0000 0.1097985085
H   H34       1.0  0.07148  0.79797  0.25334  1.0000 0.1097985085
H   H35       1.0  0.05820  0.78177  0.29709  1.0000 0.1097985085
H   H36       1.0  0.50035  0.15854  0.75166  1.0000 0.1097985085
H   H37       1.0  0.38216  0.06589  0.67926  1.0000 0.1011339512
H   H38       1.0  0.52829  0.27156  0.65044  1.0000 0.1097985085
H   H39       1.0  0.42117  0.16456  0.51740  1.0000 0.1097985085
H   H40       1.0  0.22409  0.93644  0.49704  1.0000 0.1011339512
H   H41       1.0  0.52864  0.23287  0.71731  1.0000 0.1011339512
H   H42       1.0  0.24729  0.99007  0.38993  1.0000 0.1097985085
H   H43       1.0  0.88311  0.39826  0.07364  1.0000 0.1097985085
H   H44       1.0  0.91436  0.29211  0.95440  1.0000 0.1195053547
H   H45       1.0  0.86373  0.19355  0.94975  1.0000 0.1195053547
H   H46       1.0  0.81754  0.19418  0.00373  1.0000 0.1011339512
H   H47       1.0  0.34767  0.90112  0.63632  1.0000 0.1011339512
H   H48       1.0  0.48622  0.02491  0.70216  1.0000 0.1097985085
H   H49       1.0  0.44074  0.99665  0.58641  1.0000 0.1195053547
H   H50       1.0  0.11672  0.71099  0.33741  1.0000 0.1097985085
H   H51       1.0  0.32642  0.75189  0.66790  1.0000 0.1097985085
H   H52       1.0  0.14557  0.59352  0.63220  1.0000 0.1195053547
H   H53       1.0  0.01585  0.42205  0.45466  1.0000 0.1254879533
H   H54       1.0  0.03850  0.41946  0.38477  1.0000 0.1097985085
H   H55       1.0  0.79797  0.25334  0.07148  1.0000 0.1097985085
H   H56       1.0  0.78177  0.29709  0.05820  1.0000 0.1097985085
H   H57       1.0  0.15854  0.75166  0.50035  1.0000 0.1097985085
H   H58       1.0  0.06589  0.67926  0.38216  1.0000 0.1011339512
H   H59       1.0  0.27156  0.65044  0.52829  1.0000 0.1097985085
H   H60       1.0  0.16456  0.51740  0.42117  1.0000 0.1097985085
H   H61       1.0  0.93644  0.49704  0.22409  1.0000 0.1011339512
H   H62       1.0  0.23287  0.71731  0.52864  1.0000 0.1011339512
H   H63       1.0  0.99007  0.38993  0.24729  1.0000 0.1097985085
H   H64       1.0  0.60174  0.92636  0.11689  1.0000 0.1097985085
H   H65       1.0  0.70789  0.04560  0.08564  1.0000 0.1195053547
H   H66       1.0  0.80645  0.05025  0.13627  1.0000 0.1195053547
H   H67       1.0  0.80582  0.99627  0.18246  1.0000 0.1011339512
H   H68       1.0  0.09888  0.36368  0.65233  1.0000 0.1011339512
H   H69       1.0  0.97509  0.29784  0.51378  1.0000 0.1097985085
H   H70       1.0  0.00335  0.41359  0.55926  1.0000 0.1195053547
H   H71       1.0  0.28901  0.66259  0.88328  1.0000 0.1097985085
H   H72       1.0  0.24811  0.33210  0.67358  1.0000 0.1097985085
H   H73       1.0  0.40648  0.36780  0.85443  1.0000 0.1195053547
H   H74       1.0  0.57795  0.54534  0.98415  1.0000 0.1254879533
H   H75       1.0  0.58054  0.61523  0.96150  1.0000 0.1097985085
H   H76       1.0  0.74666  0.92852  0.20203  1.0000 0.1097985085
H   H77       1.0  0.70291  0.94180  0.21823  1.0000 0.1097985085
H   H78       1.0  0.24834  0.49965  0.84146  1.0000 0.1097985085
H   H79       1.0  0.32074  0.61784  0.93411  1.0000 0.1011339512
H   H80       1.0  0.34956  0.47171  0.72844  1.0000 0.1097985085
H   H81       1.0  0.48260  0.57883  0.83544  1.0000 0.1097985085
H   H82       1.0  0.50296  0.77591  0.06356  1.0000 0.1011339512
H   H83       1.0  0.28269  0.47136  0.76713  1.0000 0.1011339512
H   H84       1.0  0.61007  0.75271  0.00993  1.0000 0.1097985085
H   H85       1.0  0.92636  0.11689  0.60174  1.0000 0.1097985085
H   H86       1.0  0.04560  0.08564  0.70789  1.0000 0.1195053547
H   H87       1.0  0.05025  0.13627  0.80645  1.0000 0.1195053547
H   H88       1.0  0.99627  0.18246  0.80582  1.0000 0.1011339512
H   H89       1.0  0.36368  0.65233  0.09888  1.0000 0.1011339512
H   H90       1.0  0.29784  0.51378  0.97509  1.0000 0.1097985085
H   H91       1.0  0.41359  0.55926  0.00335  1.0000 0.1195053547
H   H92       1.0  0.66259  0.88328  0.28901  1.0000 0.1097985085
H   H93       1.0  0.33210  0.67358  0.24811  1.0000 0.1097985085
H   H94       1.0  0.36780  0.85443  0.40648  1.0000 0.1195053547
H   H95       1.0  0.54534  0.98415  0.57795  1.0000 0.1254879533
H   H96       1.0  0.61523  0.96150  0.58054  1.0000 0.1097985085
H   H97       1.0  0.92852  0.20203  0.74666  1.0000 0.1097985085
H   H98       1.0  0.94180  0.21823  0.70291  1.0000 0.1097985085
H   H99       1.0  0.49965  0.84146  0.24834  1.0000 0.1097985085
H   H100      1.0  0.61784  0.93411  0.32074  1.0000 0.1011339512
H   H101      1.0  0.47171  0.72844  0.34956  1.0000 0.1097985085
H   H102      1.0  0.57883  0.83544  0.48260  1.0000 0.1097985085
H   H103      1.0  0.77591  0.06356  0.50296  1.0000 0.1011339512
H   H104      1.0  0.47136  0.76713  0.28269  1.0000 0.1011339512
H   H105      1.0  0.75271  0.00993  0.61007  1.0000 0.1097985085
H   H106      1.0  0.11689  0.60174  0.92636  1.0000 0.1097985085
H   H107      1.0  0.08564  0.70789  0.04560  1.0000 0.1195053547
H   H108      1.0  0.13627  0.80645  0.05025  1.0000 0.1195053547
H   H109      1.0  0.18246  0.80582  0.99627  1.0000 0.1011339512
H   H110      1.0  0.65233  0.09888  0.36368  1.0000 0.1011339512
H   H111      1.0  0.51378  0.97509  0.29784  1.0000 0.1097985085
H   H112      1.0  0.55926  0.00335  0.41359  1.0000 0.1195053547
H   H113      1.0  0.88328  0.28901  0.66259  1.0000 0.1097985085
H   H114      1.0  0.67358  0.24811  0.33210  1.0000 0.1097985085
H   H115      1.0  0.85443  0.40648  0.36780  1.0000 0.1195053547
H   H116      1.0  0.98415  0.57795  0.54534  1.0000 0.1254879533
H   H117      1.0  0.96150  0.58054  0.61523  1.0000 0.1097985085
H   H118      1.0  0.20203  0.74666  0.92852  1.0000 0.1097985085
H   H119      1.0  0.21823  0.70291  0.94180  1.0000 0.1097985085
H   H120      1.0  0.84146  0.24834  0.49965  1.0000 0.1097985085
H   H121      1.0  0.93411  0.32074  0.61784  1.0000 0.1011339512
H   H122      1.0  0.72844  0.34956  0.47171  1.0000 0.1097985085
H   H123      1.0  0.83544  0.48260  0.57883  1.0000 0.1097985085
H   H124      1.0  0.06356  0.50296  0.77591  1.0000 0.1011339512
H   H125      1.0  0.76713  0.28269  0.47136  1.0000 0.1011339512
H   H126      1.0  0.00993  0.61007  0.75271  1.0000 0.1097985085
C   C1        1.0  0.42810  0.02860  0.94310  1.0000 0.6062371432
C   C2        1.0  0.35686  0.04864  0.87970  1.0000 -0.0601028403
C   C3        1.0  0.35700  0.01760  0.90550  1.0000 -0.0601028403
C   C4        1.0  0.29380  0.97810  0.89810  1.0000 -0.0908645839
C   C5        1.0  0.23520  0.97440  0.86740  1.0000 -0.1557765902
C   C6        1.0  0.23630  0.00760  0.84060  1.0000 -0.0489621517
C   C7        1.0  0.82967  0.37300  0.23933  1.0000 0.5494723021
C   C8        1.0  0.88780  0.58800  0.32860  1.0000 -0.0414382705
C   C9        1.0  0.96100  0.62710  0.40980  1.0000 -0.1728247107
C   C10       1.0  0.94400  0.55860  0.38310  1.0000 -0.1137852968
C   C11       1.0  0.85261  0.45250  0.27489  1.0000 -0.0489621517
C   C12       1.0  0.77733  0.41350  0.19357  1.0000 -0.0601028403
C   C13       1.0  0.80140  0.78420  0.33850  1.0000 0.6196456551
C   C14       1.0  0.68430  0.62420  0.26220  1.0000 -0.0335490201
C   C15       1.0  0.68990  0.66780  0.25080  1.0000 -0.072473233
C   C16       1.0  0.59120  0.60370  0.15620  1.0000 -0.0908645839
C   C17       1.0  0.49040  0.49870  0.07910  1.0000 -0.1427002326
C   C18       1.0  0.48960  0.45860  0.09360  1.0000 -0.0154809883
C   C19       1.0  0.30950  0.09080  0.83240  1.0000 -0.2238024052
C   C20       1.0  0.71260  0.43780  0.13020  1.0000 -0.2328823086
C   C21       1.0  0.57910  0.46870  0.19230  1.0000 -0.2238024052
C   C22       1.0  0.42580  0.21570  0.94490  1.0000 0.1097985085
C   C23       1.0  0.51190  0.26780  0.98370  1.0000 -0.2386777998
C   C24       1.0  0.62060  0.38340  0.09090  1.0000 0.1011339512
C   C25       1.0  0.64340  0.44930  0.16030  1.0000 -0.2328823086
C   C26       1.0  0.55840  0.39890  0.12290  1.0000 0.1195053547
C   C27       1.0  0.44830  0.28180  0.01530  1.0000 -0.2459789814
C   C28       1.0  0.02860  0.94310  0.42810  1.0000 0.6062371432
C   C29       1.0  0.04864  0.87970  0.35686  1.0000 -0.0601028403
C   C30       1.0  0.01760  0.90550  0.35700  1.0000 -0.0601028403
C   C31       1.0  0.97810  0.89810  0.29380  1.0000 -0.0908645839
C   C32       1.0  0.97440  0.86740  0.23520  1.0000 -0.1557765902
C   C33       1.0  0.00760  0.84060  0.23630  1.0000 -0.0489621517
C   C34       1.0  0.37300  0.23933  0.82967  1.0000 0.5494723021
C   C35       1.0  0.58800  0.32860  0.88780  1.0000 -0.0414382705
C   C36       1.0  0.62710  0.40980  0.96100  1.0000 -0.1728247107
C   C37       1.0  0.55860  0.38310  0.94400  1.0000 -0.1137852968
C   C38       1.0  0.45250  0.27489  0.85261  1.0000 -0.0489621517
C   C39       1.0  0.41350  0.19357  0.77733  1.0000 -0.0601028403
C   C40       1.0  0.78420  0.33850  0.80140  1.0000 0.6196456551
C   C41       1.0  0.62420  0.26220  0.68430  1.0000 -0.0335490201
C   C42       1.0  0.66780  0.25080  0.68990  1.0000 -0.072473233
C   C43       1.0  0.60370  0.15620  0.59120  1.0000 -0.0908645839
C   C44       1.0  0.49870  0.07910  0.49040  1.0000 -0.1427002326
C   C45       1.0  0.45860  0.09360  0.48960  1.0000 -0.0154809883
C   C46       1.0  0.09080  0.83240  0.30950  1.0000 -0.2238024052
C   C47       1.0  0.43780  0.13020  0.71260  1.0000 -0.2328823086
C   C48       1.0  0.46870  0.19230  0.57910  1.0000 -0.2238024052
C   C49       1.0  0.21570  0.94490  0.42580  1.0000 0.1097985085
C   C50       1.0  0.26780  0.98370  0.51190  1.0000 -0.2386777998
C   C51       1.0  0.38340  0.09090  0.62060  1.0000 0.1011339512
C   C52       1.0  0.44930  0.16030  0.64340  1.0000 -0.2328823086
C   C53       1.0  0.39890  0.12290  0.55840  1.0000 0.1195053547
C   C54       1.0  0.28180  0.01530  0.44830  1.0000 -0.2459789814
C   C55       1.0  0.94310  0.42810  0.02860  1.0000 0.6062371432
C   C56       1.0  0.87970  0.35686  0.04864  1.0000 -0.0601028403
C   C57       1.0  0.90550  0.35700  0.01760  1.0000 -0.0601028403
C   C58       1.0  0.89810  0.29380  0.97810  1.0000 -0.0908645839
C   C59       1.0  0.86740  0.23520  0.97440  1.0000 -0.1557765902
C   C60       1.0  0.84060  0.23630  0.00760  1.0000 -0.0489621517
C   C61       1.0  0.23933  0.82967  0.37300  1.0000 0.5494723021
C   C62       1.0  0.32860  0.88780  0.58800  1.0000 -0.0414382705
C   C63       1.0  0.40980  0.96100  0.62710  1.0000 -0.1728247107
C   C64       1.0  0.38310  0.94400  0.55860  1.0000 -0.1137852968
C   C65       1.0  0.27489  0.85261  0.45250  1.0000 -0.0489621517
C   C66       1.0  0.19357  0.77733  0.41350  1.0000 -0.0601028403
C   C67       1.0  0.33850  0.80140  0.78420  1.0000 0.6196456551
C   C68       1.0  0.26220  0.68430  0.62420  1.0000 -0.0335490201
C   C69       1.0  0.25080  0.68990  0.66780  1.0000 -0.072473233
C   C70       1.0  0.15620  0.59120  0.60370  1.0000 -0.0955703557
C   C71       1.0  0.07910  0.49040  0.49870  1.0000 -0.1427002326
C   C72       1.0  0.09360  0.48960  0.45860  1.0000 -0.0146153845
C   C73       1.0  0.83240  0.30950  0.09080  1.0000 -0.2238024052
C   C74       1.0  0.13020  0.71260  0.43780  1.0000 -0.2328823086
C   C75       1.0  0.19230  0.57910  0.46870  1.0000 -0.2238024052
C   C76       1.0  0.94490  0.42580  0.21570  1.0000 0.1097985085
C   C77       1.0  0.98370  0.51190  0.26780  1.0000 -0.2386777998
C   C78       1.0  0.09090  0.62060  0.38340  1.0000 0.1011339512
C   C79       1.0  0.16030  0.64340  0.44930  1.0000 -0.2328823086
C   C80       1.0  0.12290  0.55840  0.39890  1.0000 0.1195053547
C   C81       1.0  0.01530  0.44830  0.28180  1.0000 -0.2459789814
C   C82       1.0  0.57190  0.97140  0.05690  1.0000 0.6062371432
C   C83       1.0  0.64314  0.95136  0.12030  1.0000 -0.0601028403
C   C84       1.0  0.64300  0.98240  0.09450  1.0000 -0.0601028403
C   C85       1.0  0.70620  0.02190  0.10190  1.0000 -0.0908645839
C   C86       1.0  0.76480  0.02560  0.13260  1.0000 -0.1557765902
C   C87       1.0  0.76370  0.99240  0.15940  1.0000 -0.0489621517
C   C88       1.0  0.17033  0.62700  0.76067  1.0000 0.5494723021
C   C89       1.0  0.11220  0.41200  0.67140  1.0000 -0.0414382705
C   C90       1.0  0.03900  0.37290  0.59020  1.0000 -0.1728247107
C   C91       1.0  0.05600  0.44140  0.61690  1.0000 -0.1137852968
C   C92       1.0  0.14739  0.54750  0.72511  1.0000 -0.0489621517
C   C93       1.0  0.22267  0.58650  0.80643  1.0000 -0.0601028403
C   C94       1.0  0.19860  0.21580  0.66150  1.0000 0.6196456551
C   C95       1.0  0.31570  0.37580  0.73780  1.0000 -0.0335490201
C   C96       1.0  0.31010  0.33220  0.74920  1.0000 -0.072473233
C   C97       1.0  0.40880  0.39630  0.84380  1.0000 -0.0908645839
C   C98       1.0  0.50960  0.50130  0.92090  1.0000 -0.1427002326
C   C99       1.0  0.51040  0.54140  0.90640  1.0000 -0.0154809883
C   C100      1.0  0.69050  0.90920  0.16760  1.0000 -0.2238024052
C   C101      1.0  0.28740  0.56220  0.86980  1.0000 -0.2328823086
C   C102      1.0  0.42090  0.53130  0.80770  1.0000 -0.2238024052
C   C103      1.0  0.57420  0.78430  0.05510  1.0000 0.1097985085
C   C104      1.0  0.48810  0.73220  0.01630  1.0000 -0.2386777998
C   C105      1.0  0.37940  0.61660  0.90910  1.0000 0.1011339512
C   C106      1.0  0.35660  0.55070  0.83970  1.0000 -0.2328823086
C   C107      1.0  0.44160  0.60110  0.87710  1.0000 0.1195053547
C   C108      1.0  0.55170  0.71820  0.98470  1.0000 -0.2459789814
C   C109      1.0  0.97140  0.05690  0.57190  1.0000 0.6062371432
C   C110      1.0  0.95136  0.12030  0.64314  1.0000 -0.0601028403
C   C111      1.0  0.98240  0.09450  0.64300  1.0000 -0.0601028403
C   C112      1.0  0.02190  0.10190  0.70620  1.0000 -0.0908645839
C   C113      1.0  0.02560  0.13260  0.76480  1.0000 -0.1548810006
C   C114      1.0  0.99240  0.15940  0.76370  1.0000 -0.0489621517
C   C115      1.0  0.62700  0.76067  0.17033  1.0000 0.5494723021
C   C116      1.0  0.41200  0.67140  0.11220  1.0000 -0.0414382705
C   C117      1.0  0.37290  0.59020  0.03900  1.0000 -0.1728247107
C   C118      1.0  0.44140  0.61690  0.05600  1.0000 -0.1137852968
C   C119      1.0  0.54750  0.72511  0.14739  1.0000 -0.0489621517
C   C120      1.0  0.58650  0.80643  0.22267  1.0000 -0.0601028403
C   C121      1.0  0.21580  0.66150  0.19860  1.0000 0.6196456551
C   C122      1.0  0.37580  0.73780  0.31570  1.0000 -0.0335490201
C   C123      1.0  0.33220  0.74920  0.31010  1.0000 -0.072473233
C   C124      1.0  0.39630  0.84380  0.40880  1.0000 -0.0908645839
C   C125      1.0  0.50130  0.92090  0.50960  1.0000 -0.1427002326
C   C126      1.0  0.54140  0.90640  0.51040  1.0000 -0.0154809883
C   C127      1.0  0.90920  0.16760  0.69050  1.0000 -0.2238024052
C   C128      1.0  0.56220  0.86980  0.28740  1.0000 -0.2328823086
C   C129      1.0  0.53130  0.80770  0.42090  1.0000 -0.2238024052
C   C130      1.0  0.78430  0.05510  0.57420  1.0000 0.1097985085
C   C131      1.0  0.73220  0.01630  0.48810  1.0000 -0.2386777998
C   C132      1.0  0.61660  0.90910  0.37940  1.0000 0.1011339512
C   C133      1.0  0.55070  0.83970  0.35660  1.0000 -0.2328823086
C   C134      1.0  0.60110  0.87710  0.44160  1.0000 0.1195053547
C   C135      1.0  0.71820  0.98470  0.55170  1.0000 -0.2459789814
C   C136      1.0  0.05690  0.57190  0.97140  1.0000 0.6062371432
C   C137      1.0  0.12030  0.64314  0.95136  1.0000 -0.0601028403
C   C138      1.0  0.09450  0.64300  0.98240  1.0000 -0.0601028403
C   C139      1.0  0.10190  0.70620  0.02190  1.0000 -0.0908645839
C   C140      1.0  0.13260  0.76480  0.02560  1.0000 -0.1548810006
C   C141      1.0  0.15940  0.76370  0.99240  1.0000 -0.0489621517
C   C142      1.0  0.76067  0.17033  0.62700  1.0000 0.5494723021
C   C143      1.0  0.67140  0.11220  0.41200  1.0000 -0.0414382705
C   C144      1.0  0.59020  0.03900  0.37290  1.0000 -0.1728247107
C   C145      1.0  0.61690  0.05600  0.44140  1.0000 -0.1137852968
C   C146      1.0  0.72511  0.14739  0.54750  1.0000 -0.0489621517
C   C147      1.0  0.80643  0.22267  0.58650  1.0000 -0.0601028403
C   C148      1.0  0.66150  0.19860  0.21580  1.0000 0.6196456551
C   C149      1.0  0.73780  0.31570  0.37580  1.0000 -0.0335490201
C   C150      1.0  0.74920  0.31010  0.33220  1.0000 -0.072473233
C   C151      1.0  0.84380  0.40880  0.39630  1.0000 -0.0955703557
C   C152      1.0  0.92090  0.50960  0.50130  1.0000 -0.1427002326
C   C153      1.0  0.90640  0.51040  0.54140  1.0000 -0.0154809883
C   C154      1.0  0.16760  0.69050  0.90920  1.0000 -0.2238024052
C   C155      1.0  0.86980  0.28740  0.56220  1.0000 -0.2328823086
C   C156      1.0  0.80770  0.42090  0.53130  1.0000 -0.2238024052
C   C157      1.0  0.05510  0.57420  0.78430  1.0000 0.1097985085
C   C158      1.0  0.01630  0.48810  0.73220  1.0000 -0.2386777998
C   C159      1.0  0.90910  0.37940  0.61660  1.0000 0.1011339512
C   C160      1.0  0.83970  0.35660  0.55070  1.0000 -0.2328823086
C   C161      1.0  0.87710  0.44160  0.60110  1.0000 0.1195053547
C   C162      1.0  0.98470  0.55170  0.71820  1.0000 -0.2459789814
N   N1        1.0  0.29652  0.04378  0.84830  1.0000 0.067036651
N   N2        1.0  0.79593  0.48206  0.22101  1.0000 0.0605112202
N   N3        1.0  0.58549  0.52041  0.18460  1.0000 0.0605112202
N   N4        1.0  0.04378  0.84830  0.29652  1.0000 0.067036651
N   N5        1.0  0.48206  0.22101  0.79593  1.0000 0.0605112202
N   N6        1.0  0.52041  0.18460  0.58549  1.0000 0.0605112202
N   N7        1.0  0.84830  0.29652  0.04378  1.0000 0.067036651
N   N8        1.0  0.22101  0.79593  0.48206  1.0000 0.0605112202
N   N9        1.0  0.18460  0.58549  0.52041  1.0000 0.0605112202
N   N10       1.0  0.70348  0.95622  0.15170  1.0000 0.067036651
N   N11       1.0  0.20407  0.51794  0.77899  1.0000 0.0605112202
N   N12       1.0  0.41451  0.47959  0.81540  1.0000 0.0605112202
N   N13       1.0  0.95622  0.15170  0.70348  1.0000 0.067036651
N   N14       1.0  0.51794  0.77899  0.20407  1.0000 0.0605112202
N   N15       1.0  0.47959  0.81540  0.41451  1.0000 0.0605112202
N   N16       1.0  0.15170  0.70348  0.95622  1.0000 0.067036651
N   N17       1.0  0.77899  0.20407  0.51794  1.0000 0.0605112202
N   N18       1.0  0.81540  0.41451  0.47959  1.0000 0.0605112202
O   O1        1.0  0.41894  0.98910  0.95576  1.0000 -0.6917691033
O   O2        1.0  0.48894  0.07453  0.95783  1.0000 -0.5964384179
O   O3        1.0  0.90485  0.41497  0.31748  1.0000 -0.5832732718
O   O4        1.0  0.73949  0.27457  0.13694  1.0000 -0.659020871
O   O5        1.0  0.88635  0.83137  0.41248  1.0000 -0.6706296504
O   O6        1.0  0.79978  0.82518  0.33154  1.0000 -0.6293129226
O   O7        1.0  0.98910  0.95576  0.41894  1.0000 -0.6917691033
O   O8        1.0  0.07453  0.95783  0.48894  1.0000 -0.5964384179
O   O9        1.0  0.41497  0.31748  0.90485  1.0000 -0.5832732718
O   O10       1.0  0.27457  0.13694  0.73949  1.0000 -0.659020871
O   O11       1.0  0.83137  0.41248  0.88635  1.0000 -0.6706296504
O   O12       1.0  0.82518  0.33154  0.79978  1.0000 -0.6293129226
O   O13       1.0  0.95576  0.41894  0.98910  1.0000 -0.6917691033
O   O14       1.0  0.95783  0.48894  0.07453  1.0000 -0.5964384179
O   O15       1.0  0.31748  0.90485  0.41497  1.0000 -0.5832732718
O   O16       1.0  0.13694  0.73949  0.27457  1.0000 -0.659020871
O   O17       1.0  0.41248  0.88635  0.83137  1.0000 -0.6706296504
O   O18       1.0  0.33154  0.79978  0.82518  1.0000 -0.6293129226
O   O19       1.0  0.58106  0.01090  0.04424  1.0000 -0.6917691033
O   O20       1.0  0.51106  0.92547  0.04217  1.0000 -0.5964384179
O   O21       1.0  0.09515  0.58503  0.68252  1.0000 -0.5832732718
O   O22       1.0  0.26051  0.72543  0.86306  1.0000 -0.659020871
O   O23       1.0  0.11365  0.16863  0.58752  1.0000 -0.6706296504
O   O24       1.0  0.20022  0.17482  0.66846  1.0000 -0.6293129226
O   O25       1.0  0.01090  0.04424  0.58106  1.0000 -0.6917691033
O   O26       1.0  0.92547  0.04217  0.51106  1.0000 -0.5964384179
O   O27       1.0  0.58503  0.68252  0.09515  1.0000 -0.5832732718
O   O28       1.0  0.72543  0.86306  0.26051  1.0000 -0.659020871
O   O29       1.0  0.16863  0.58752  0.11365  1.0000 -0.6706296504
O   O30       1.0  0.17482  0.66846  0.20022  1.0000 -0.6293129226
O   O31       1.0  0.04424  0.58106  0.01090  1.0000 -0.6917691033
O   O32       1.0  0.04217  0.51106  0.92547  1.0000 -0.5964384179
O   O33       1.0  0.68252  0.09515  0.58503  1.0000 -0.5832732718
O   O34       1.0  0.86306  0.26051  0.72543  1.0000 -0.659020871
O   O35       1.0  0.58752  0.11365  0.16863  1.0000 -0.6706296504
O   O36       1.0  0.66846  0.20022  0.17482  1.0000 -0.6293129226
