# DDEC6 charges by PACMAN v1.1 (https://github.com/mtap-research/PACMAN-charge/)
data_2021[CuW][sql]2[ASR]1
_chemical_formula_sum              "Cu12 H72 W4 C104 S16 N16 Cl4"
_cell_length_a       12.4704
_cell_length_b       23.422
_cell_length_c       16.6654
_cell_angle_alpha    90
_cell_angle_beta     114.078
_cell_angle_gamma    90

_symmetry_space_group_name_H-M    "P 1"
_symmetry_Int_Tables_number       1

loop_
  _symmetry_equiv_pos_as_xyz
  'x, y, z'

loop_
  _atom_site_type_symbol
  _atom_site_label
  _atom_site_symmetry_multiplicity
  _atom_site_fract_x
  _atom_site_fract_y
  _atom_site_fract_z
  _atom_site_occupancy
  _atom_site_charge
Cu  Cu1       1.0  0.35940  0.70764  0.10079  1.0000 0.315994908
Cu  Cu2       1.0  0.93893  0.79993  0.94111  1.0000 0.2728953184
Cu  Cu3       1.0  0.26212  0.80390  0.93437  1.0000 0.2840451421
Cu  Cu4       1.0  0.64060  0.20764  0.39921  1.0000 0.315994908
Cu  Cu5       1.0  0.06107  0.29993  0.55889  1.0000 0.2728953184
Cu  Cu6       1.0  0.73788  0.30390  0.56563  1.0000 0.2869436265
Cu  Cu7       1.0  0.64060  0.29236  0.89921  1.0000 0.315994908
Cu  Cu8       1.0  0.06107  0.20007  0.05889  1.0000 0.2728953184
Cu  Cu9       1.0  0.73788  0.19610  0.06563  1.0000 0.2840451421
Cu  Cu10      1.0  0.35940  0.79236  0.60079  1.0000 0.315994908
Cu  Cu11      1.0  0.93893  0.70007  0.44111  1.0000 0.2728953184
Cu  Cu12      1.0  0.26212  0.69610  0.43437  1.0000 0.2869436265
H   H1        1.0  0.79980  0.87665  0.00203  1.0000 0.1115763907
H   H2        1.0  0.66620  0.94794  0.95270  1.0000 0.1312999846
H   H3        1.0  0.71539  0.94793  0.72923  1.0000 0.1389324413
H   H4        1.0  0.84776  0.87688  0.78748  1.0000 0.1193976902
H   H5        1.0  0.45654  0.89430  0.76189  1.0000 0.1389324413
H   H6        1.0  0.37256  0.82317  0.81064  1.0000 0.1115763907
H   H7        1.0  0.30107  0.92807  0.96236  1.0000 0.1115763907
H   H8        1.0  0.37263  0.00368  0.91072  1.0000 0.1312999846
H   H9        1.0  0.32868  0.05351  0.76414  1.0000 0.1193976902
H   H10       1.0  0.69236  0.04845  0.75522  1.0000 0.1193976902
H   H11       1.0  0.44893  0.14995  0.56335  1.0000 0.1312999846
H   H12       1.0  0.52052  0.22353  0.51154  1.0000 0.100921546
H   H13       1.0  0.81379  0.22189  0.72044  1.0000 0.1193976902
H   H14       1.0  0.75317  0.14712  0.77757  1.0000 0.1312999846
H   H15       1.0  0.45611  0.21107  0.74592  1.0000 0.1389324413
H   H16       1.0  0.31929  0.28164  0.68616  1.0000 0.100921546
H   H17       1.0  0.08396  0.17065  0.54946  1.0000 0.1193976902
H   H18       1.0  0.21221  0.09709  0.60840  1.0000 0.1312999846
H   H19       1.0  0.20020  0.37665  0.49797  1.0000 0.1115763907
H   H20       1.0  0.33380  0.44794  0.54730  1.0000 0.1312999846
H   H21       1.0  0.28461  0.44793  0.77077  1.0000 0.1389324413
H   H22       1.0  0.15224  0.37688  0.71252  1.0000 0.1193976902
H   H23       1.0  0.54346  0.39430  0.73811  1.0000 0.1389324413
H   H24       1.0  0.62744  0.32317  0.68936  1.0000 0.1115763907
H   H25       1.0  0.69893  0.42807  0.53764  1.0000 0.1115763907
H   H26       1.0  0.62737  0.50368  0.58928  1.0000 0.1312999846
H   H27       1.0  0.67132  0.55351  0.73586  1.0000 0.1193976902
H   H28       1.0  0.30764  0.54845  0.74478  1.0000 0.1193976902
H   H29       1.0  0.55107  0.64995  0.93665  1.0000 0.1312999846
H   H30       1.0  0.47948  0.72353  0.98846  1.0000 0.100921546
H   H31       1.0  0.18621  0.72189  0.77956  1.0000 0.1193976902
H   H32       1.0  0.24683  0.64712  0.72243  1.0000 0.1312999846
H   H33       1.0  0.54389  0.71107  0.75408  1.0000 0.1389324413
H   H34       1.0  0.68071  0.78164  0.81384  1.0000 0.100921546
H   H35       1.0  0.91604  0.67065  0.95054  1.0000 0.1193976902
H   H36       1.0  0.78779  0.59709  0.89160  1.0000 0.1312999846
H   H37       1.0  0.20020  0.12335  0.99797  1.0000 0.1115763907
H   H38       1.0  0.33380  0.05206  0.04730  1.0000 0.1312999846
H   H39       1.0  0.28461  0.05207  0.27077  1.0000 0.1389324413
H   H40       1.0  0.15224  0.12312  0.21252  1.0000 0.1193976902
H   H41       1.0  0.54346  0.10570  0.23811  1.0000 0.1389324413
H   H42       1.0  0.62744  0.17683  0.18936  1.0000 0.1115763907
H   H43       1.0  0.69893  0.07193  0.03764  1.0000 0.1115763907
H   H44       1.0  0.62737  0.99632  0.08928  1.0000 0.1312999846
H   H45       1.0  0.67132  0.94649  0.23586  1.0000 0.1193976902
H   H46       1.0  0.30764  0.95155  0.24478  1.0000 0.1193976902
H   H47       1.0  0.55107  0.85005  0.43665  1.0000 0.1312999846
H   H48       1.0  0.47948  0.77647  0.48846  1.0000 0.100921546
H   H49       1.0  0.18621  0.77811  0.27956  1.0000 0.1193976902
H   H50       1.0  0.24683  0.85288  0.22243  1.0000 0.1312999846
H   H51       1.0  0.54389  0.78893  0.25408  1.0000 0.1389324413
H   H52       1.0  0.68071  0.71836  0.31384  1.0000 0.100921546
H   H53       1.0  0.91604  0.82935  0.45054  1.0000 0.1193976902
H   H54       1.0  0.78779  0.90291  0.39160  1.0000 0.1312999846
H   H55       1.0  0.79980  0.62335  0.50203  1.0000 0.1115763907
H   H56       1.0  0.66620  0.55206  0.45270  1.0000 0.1312999846
H   H57       1.0  0.71539  0.55207  0.22923  1.0000 0.1389324413
H   H58       1.0  0.84776  0.62312  0.28748  1.0000 0.1193976902
H   H59       1.0  0.45654  0.60570  0.26189  1.0000 0.1389324413
H   H60       1.0  0.37256  0.67683  0.31064  1.0000 0.1115763907
H   H61       1.0  0.30107  0.57193  0.46236  1.0000 0.1115763907
H   H62       1.0  0.37263  0.49632  0.41072  1.0000 0.1312999846
H   H63       1.0  0.32868  0.44649  0.26414  1.0000 0.1193976902
H   H64       1.0  0.69236  0.45155  0.25522  1.0000 0.1193976902
H   H65       1.0  0.44893  0.35005  0.06335  1.0000 0.1312999846
H   H66       1.0  0.52052  0.27647  0.01154  1.0000 0.100921546
H   H67       1.0  0.81379  0.27811  0.22044  1.0000 0.1193976902
H   H68       1.0  0.75317  0.35288  0.27757  1.0000 0.1312999846
H   H69       1.0  0.45611  0.28893  0.24592  1.0000 0.1389324413
H   H70       1.0  0.31929  0.21836  0.18616  1.0000 0.100921546
H   H71       1.0  0.08396  0.32935  0.04946  1.0000 0.1193976902
H   H72       1.0  0.21221  0.40291  0.10840  1.0000 0.1312999846
W   W1        1.0  0.15357  0.75723  0.02564  1.0000 0.7326589496
W   W2        1.0  0.84643  0.25723  0.47436  1.0000 0.7326589496
W   W3        1.0  0.84643  0.24277  0.97436  1.0000 0.7326589496
W   W4        1.0  0.15357  0.74277  0.52564  1.0000 0.7326589496
C   C1        1.0  0.78190  0.89110  0.94600  1.0000 0.0725198553
C   C2        1.0  0.70110  0.93390  0.91690  1.0000 -0.2031158238
C   C3        1.0  0.67130  0.95670  0.83290  1.0000 0.1193976902
C   C4        1.0  0.73010  0.93410  0.78500  1.0000 -0.1785735626
C   C5        1.0  0.80970  0.89120  0.82090  1.0000 0.0725198553
C   C6        1.0  0.58620  0.00430  0.79600  1.0000 0.0307155344
C   C7        1.0  0.47430  0.00520  0.79830  1.0000 0.0307155344
C   C8        1.0  0.42550  0.95730  0.83180  1.0000 0.1115763907
C   C9        1.0  0.42400  0.90250  0.80180  1.0000 -0.1785735626
C   C10       1.0  0.37340  0.86000  0.83180  1.0000 0.0923669244
C   C11       1.0  0.32990  0.92150  0.91980  1.0000 0.0528769343
C   C12       1.0  0.37570  0.96690  0.89070  1.0000 -0.2055461137
C   C13       1.0  0.40210  0.05240  0.76210  1.0000 -0.1875252683
C   C14       1.0  0.43450  0.09720  0.72350  1.0000 0.0402005165
C   C15       1.0  0.54550  0.09620  0.72080  1.0000 0.0402005165
C   C16       1.0  0.61890  0.04930  0.75720  1.0000 -0.1875252683
C   C17       1.0  0.58970  0.14170  0.68060  1.0000 0.1115763907
C   C18       1.0  0.52290  0.16470  0.59740  1.0000 -0.1785735626
C   C19       1.0  0.56700  0.20870  0.56660  1.0000 0.0794775919
C   C20       1.0  0.73890  0.20730  0.68900  1.0000 0.0725198553
C   C21       1.0  0.70270  0.16300  0.72440  1.0000 -0.1693165852
C   C22       1.0  0.35010  0.14540  0.68430  1.0000 0.1115763907
C   C23       1.0  0.38060  0.20170  0.70620  1.0000 -0.1785735626
C   C24       1.0  0.29850  0.24400  0.66880  1.0000 0.0923669244
C   C25       1.0  0.16020  0.17890  0.58900  1.0000 0.0725198553
C   C26       1.0  0.23660  0.13450  0.62450  1.0000 -0.1875252683
C   C27       1.0  0.21810  0.39110  0.55400  1.0000 0.0725198553
C   C28       1.0  0.29890  0.43390  0.58310  1.0000 -0.2031158238
C   C29       1.0  0.32870  0.45670  0.66710  1.0000 0.1193976902
C   C30       1.0  0.26990  0.43410  0.71500  1.0000 -0.1785735626
C   C31       1.0  0.19030  0.39120  0.67910  1.0000 0.0725198553
C   C32       1.0  0.41380  0.50430  0.70400  1.0000 0.0307155344
C   C33       1.0  0.52570  0.50520  0.70170  1.0000 0.0307155344
C   C34       1.0  0.57450  0.45730  0.66820  1.0000 0.1115763907
C   C35       1.0  0.57600  0.40250  0.69820  1.0000 -0.1785735626
C   C36       1.0  0.62660  0.36000  0.66820  1.0000 0.0923669244
C   C37       1.0  0.67010  0.42150  0.58020  1.0000 0.0528769343
C   C38       1.0  0.62430  0.46690  0.60930  1.0000 -0.2055461137
C   C39       1.0  0.59790  0.55240  0.73790  1.0000 -0.1875252683
C   C40       1.0  0.56550  0.59720  0.77650  1.0000 0.0402005165
C   C41       1.0  0.45450  0.59620  0.77920  1.0000 0.0402005165
C   C42       1.0  0.38110  0.54930  0.74280  1.0000 -0.1875252683
C   C43       1.0  0.41030  0.64170  0.81940  1.0000 0.1115763907
C   C44       1.0  0.47710  0.66470  0.90260  1.0000 -0.1785735626
C   C45       1.0  0.43300  0.70870  0.93340  1.0000 0.0794775919
C   C46       1.0  0.26110  0.70730  0.81100  1.0000 0.0725198553
C   C47       1.0  0.29730  0.66300  0.77560  1.0000 -0.1693165852
C   C48       1.0  0.64990  0.64540  0.81570  1.0000 0.1115763907
C   C49       1.0  0.61940  0.70170  0.79380  1.0000 -0.1785735626
C   C50       1.0  0.70150  0.74400  0.83120  1.0000 0.0923669244
C   C51       1.0  0.83980  0.67890  0.91100  1.0000 0.0725198553
C   C52       1.0  0.76340  0.63450  0.87550  1.0000 -0.1875252683
C   C53       1.0  0.21810  0.10890  0.05400  1.0000 0.0725198553
C   C54       1.0  0.29890  0.06610  0.08310  1.0000 -0.2031158238
C   C55       1.0  0.32870  0.04330  0.16710  1.0000 0.1193976902
C   C56       1.0  0.26990  0.06590  0.21500  1.0000 -0.1785735626
C   C57       1.0  0.19030  0.10880  0.17910  1.0000 0.0725198553
C   C58       1.0  0.41380  0.99570  0.20400  1.0000 0.0307155344
C   C59       1.0  0.52570  0.99480  0.20170  1.0000 0.0307155344
C   C60       1.0  0.57450  0.04270  0.16820  1.0000 0.1115763907
C   C61       1.0  0.57600  0.09750  0.19820  1.0000 -0.1785735626
C   C62       1.0  0.62660  0.14000  0.16820  1.0000 0.0923669244
C   C63       1.0  0.67010  0.07850  0.08020  1.0000 0.0528769343
C   C64       1.0  0.62430  0.03310  0.10930  1.0000 -0.2055461137
C   C65       1.0  0.59790  0.94760  0.23790  1.0000 -0.1875252683
C   C66       1.0  0.56550  0.90280  0.27650  1.0000 0.0402005165
C   C67       1.0  0.45450  0.90380  0.27920  1.0000 0.0402005165
C   C68       1.0  0.38110  0.95070  0.24280  1.0000 -0.1875252683
C   C69       1.0  0.41030  0.85830  0.31940  1.0000 0.1115763907
C   C70       1.0  0.47710  0.83530  0.40260  1.0000 -0.1785735626
C   C71       1.0  0.43300  0.79130  0.43340  1.0000 0.0794775919
C   C72       1.0  0.26110  0.79270  0.31100  1.0000 0.0725198553
C   C73       1.0  0.29730  0.83700  0.27560  1.0000 -0.1693165852
C   C74       1.0  0.64990  0.85460  0.31570  1.0000 0.1115763907
C   C75       1.0  0.61940  0.79830  0.29380  1.0000 -0.1785735626
C   C76       1.0  0.70150  0.75600  0.33120  1.0000 0.0923669244
C   C77       1.0  0.83980  0.82110  0.41100  1.0000 0.0794775919
C   C78       1.0  0.76340  0.86550  0.37550  1.0000 -0.1875252683
C   C79       1.0  0.78190  0.60890  0.44600  1.0000 0.0725198553
C   C80       1.0  0.70110  0.56610  0.41690  1.0000 -0.2031158238
C   C81       1.0  0.67130  0.54330  0.33290  1.0000 0.1193976902
C   C82       1.0  0.73010  0.56590  0.28500  1.0000 -0.1785735626
C   C83       1.0  0.80970  0.60880  0.32090  1.0000 0.0725198553
C   C84       1.0  0.58620  0.49570  0.29600  1.0000 0.0307155344
C   C85       1.0  0.47430  0.49480  0.29830  1.0000 0.0307155344
C   C86       1.0  0.42550  0.54270  0.33180  1.0000 0.1115763907
C   C87       1.0  0.42400  0.59750  0.30180  1.0000 -0.1785735626
C   C88       1.0  0.37340  0.64000  0.33180  1.0000 0.0923669244
C   C89       1.0  0.32990  0.57850  0.41980  1.0000 0.0528769343
C   C90       1.0  0.37570  0.53310  0.39070  1.0000 -0.2055461137
C   C91       1.0  0.40210  0.44760  0.26210  1.0000 -0.1875252683
C   C92       1.0  0.43450  0.40280  0.22350  1.0000 0.0402005165
C   C93       1.0  0.54550  0.40380  0.22080  1.0000 0.0402005165
C   C94       1.0  0.61890  0.45070  0.25720  1.0000 -0.1875252683
C   C95       1.0  0.58970  0.35830  0.18060  1.0000 0.1115763907
C   C96       1.0  0.52290  0.33530  0.09740  1.0000 -0.1785735626
C   C97       1.0  0.56700  0.29130  0.06660  1.0000 0.0794775919
C   C98       1.0  0.73890  0.29270  0.18900  1.0000 0.0725198553
C   C99       1.0  0.70270  0.33700  0.22440  1.0000 -0.1693165852
C   C100      1.0  0.35010  0.35460  0.18430  1.0000 0.1115763907
C   C101      1.0  0.38060  0.29830  0.20620  1.0000 -0.1785735626
C   C102      1.0  0.29850  0.25600  0.16880  1.0000 0.0923669244
C   C103      1.0  0.16020  0.32110  0.08900  1.0000 0.0725198553
C   C104      1.0  0.23660  0.36550  0.12450  1.0000 -0.1875252683
S   S1        1.0  0.18490  0.66456  0.04680  1.0000 -0.4295827551
S   S2        1.0  0.03942  0.78802  0.08732  1.0000 -0.4495713888
S   S3        1.0  0.06736  0.77638  0.88168  1.0000 -0.4818709894
S   S4        1.0  0.32812  0.80258  0.08300  1.0000 -0.5082087247
S   S5        1.0  0.81510  0.16456  0.45320  1.0000 -0.4295827551
S   S6        1.0  0.96058  0.28802  0.41268  1.0000 -0.4495713888
S   S7        1.0  0.93264  0.27638  0.61832  1.0000 -0.4818709894
S   S8        1.0  0.67188  0.30258  0.41700  1.0000 -0.5082087247
S   S9        1.0  0.81510  0.33544  0.95320  1.0000 -0.4295827551
S   S10       1.0  0.96058  0.21198  0.91268  1.0000 -0.4495713888
S   S11       1.0  0.93264  0.22362  0.11832  1.0000 -0.4818709894
S   S12       1.0  0.67188  0.19742  0.91700  1.0000 -0.5082087247
S   S13       1.0  0.18490  0.83544  0.54680  1.0000 -0.4295827551
S   S14       1.0  0.03942  0.71198  0.58732  1.0000 -0.4495713888
S   S15       1.0  0.06736  0.72362  0.38168  1.0000 -0.4818709894
S   S16       1.0  0.32812  0.69742  0.58300  1.0000 -0.5082087247
N   N1        1.0  0.32580  0.86830  0.88880  1.0000 -0.1693165852
N   N2        1.0  0.83700  0.86840  0.90000  1.0000 -0.1785735626
N   N3        1.0  0.67190  0.23150  0.61030  1.0000 -0.2332326575
N   N4        1.0  0.19000  0.23340  0.60860  1.0000 -0.2031158238
N   N5        1.0  0.67420  0.36830  0.61120  1.0000 -0.1693165852
N   N6        1.0  0.16300  0.36840  0.60000  1.0000 -0.1785735626
N   N7        1.0  0.32810  0.73150  0.88970  1.0000 -0.2332326575
N   N8        1.0  0.81000  0.73340  0.89140  1.0000 -0.2031158238
N   N9        1.0  0.67420  0.13170  0.11120  1.0000 -0.1693165852
N   N10       1.0  0.16300  0.13160  0.10000  1.0000 -0.1875252683
N   N11       1.0  0.32810  0.76850  0.38970  1.0000 -0.2332326575
N   N12       1.0  0.81000  0.76660  0.39140  1.0000 -0.2031158238
N   N13       1.0  0.32580  0.63170  0.38880  1.0000 -0.1693165852
N   N14       1.0  0.83700  0.63160  0.40000  1.0000 -0.1785735626
N   N15       1.0  0.67190  0.26850  0.11030  1.0000 -0.2332326575
N   N16       1.0  0.19000  0.26660  0.10860  1.0000 -0.2031158238
Cl  Cl1       1.0  0.52956  0.66737  0.15786  1.0000 -0.5082087247
Cl  Cl2       1.0  0.47044  0.16737  0.34214  1.0000 -0.5082087247
Cl  Cl3       1.0  0.47044  0.33263  0.84214  1.0000 -0.5082087247
Cl  Cl4       1.0  0.52956  0.83263  0.65786  1.0000 -0.5082087247
