# DDEC6 charges by PACMAN v1.1 (https://github.com/mtap-research/PACMAN-charge/)
data_2021[Ce][nbo]3[ASR]2
_chemical_formula_sum              "Ce6 H126 C162 N18 O36"
_cell_length_a       27.7364
_cell_length_b       27.7364
_cell_length_c       27.7364
_cell_angle_alpha    117.822
_cell_angle_beta     117.822
_cell_angle_gamma    117.822

_symmetry_space_group_name_H-M    "P 1"
_symmetry_Int_Tables_number       1

loop_
  _symmetry_equiv_pos_as_xyz
  'x, y, z'

loop_
  _atom_site_type_symbol
  _atom_site_label
  _atom_site_symmetry_multiplicity
  _atom_site_fract_x
  _atom_site_fract_y
  _atom_site_fract_z
  _atom_site_occupancy
  _atom_site_charge
Ce  Ce1       1.0  0.97668  0.90905  0.39641  1.0000 1.8272250006
Ce  Ce2       1.0  0.90905  0.39641  0.97668  1.0000 1.8272250006
Ce  Ce3       1.0  0.39641  0.97668  0.90905  1.0000 1.8272250006
Ce  Ce4       1.0  0.02332  0.09095  0.60359  1.0000 1.8272250006
Ce  Ce5       1.0  0.09095  0.60359  0.02332  1.0000 1.8272250006
Ce  Ce6       1.0  0.60359  0.02332  0.09095  1.0000 1.8272250006
H   H1        1.0  0.88089  0.07079  0.39364  1.0000 0.110461858
H   H2        1.0  0.91833  0.95798  0.29320  1.0000 0.1213614623
H   H3        1.0  0.86003  0.94500  0.18920  1.0000 0.1213614623
H   H4        1.0  0.81574  0.00004  0.19026  1.0000 0.1030610167
H   H5        1.0  0.11583  0.33733  0.70927  1.0000 0.110461858
H   H6        1.0  0.44343  0.59069  0.99982  1.0000 0.1213614623
H   H7        1.0  0.48978  0.70479  0.02762  1.0000 0.110461858
H   H8        1.0  0.34858  0.63702  0.89921  1.0000 0.1030610167
H   H9        1.0  0.32599  0.66651  0.75073  1.0000 0.1030610167
H   H10       1.0  0.14194  0.62882  0.58995  1.0000 0.1213614623
H   H11       1.0  0.01431  0.45309  0.41993  1.0000 0.1213614623
H   H12       1.0  0.04039  0.38449  0.41604  1.0000 0.110461858
H   H13       1.0  0.77961  0.05579  0.29354  1.0000 0.110461858
H   H14       1.0  0.79508  0.06726  0.24857  1.0000 0.110461858
H   H15       1.0  0.15705  0.49937  0.74899  1.0000 0.110461858
H   H16       1.0  0.06400  0.38135  0.67701  1.0000 0.1030610167
H   H17       1.0  0.16798  0.42302  0.51895  1.0000 0.110461858
H   H18       1.0  0.27283  0.52956  0.65172  1.0000 0.110461858
H   H19       1.0  0.93303  0.21897  0.49146  1.0000 0.1030610167
H   H20       1.0  0.23159  0.52675  0.71356  1.0000 0.1030610167
H   H21       1.0  0.98865  0.24510  0.38661  1.0000 0.110461858
H   H22       1.0  0.07079  0.39364  0.88089  1.0000 0.110461858
H   H23       1.0  0.95798  0.29320  0.91833  1.0000 0.1213614623
H   H24       1.0  0.94500  0.18920  0.86003  1.0000 0.1213614623
H   H25       1.0  0.00004  0.19026  0.81574  1.0000 0.1030610167
H   H26       1.0  0.33733  0.70927  0.11583  1.0000 0.110461858
H   H27       1.0  0.59069  0.99982  0.44343  1.0000 0.1213614623
H   H28       1.0  0.70479  0.02762  0.48978  1.0000 0.110461858
H   H29       1.0  0.63702  0.89921  0.34858  1.0000 0.1030610167
H   H30       1.0  0.66651  0.75073  0.32599  1.0000 0.110461858
H   H31       1.0  0.62882  0.58995  0.14194  1.0000 0.1213614623
H   H32       1.0  0.45309  0.41993  0.01431  1.0000 0.1213614623
H   H33       1.0  0.38449  0.41604  0.04039  1.0000 0.110461858
H   H34       1.0  0.05579  0.29354  0.77961  1.0000 0.110461858
H   H35       1.0  0.06726  0.24857  0.79508  1.0000 0.110461858
H   H36       1.0  0.49937  0.74899  0.15705  1.0000 0.110461858
H   H37       1.0  0.38135  0.67701  0.06400  1.0000 0.1030610167
H   H38       1.0  0.42302  0.51895  0.16798  1.0000 0.110461858
H   H39       1.0  0.52956  0.65172  0.27283  1.0000 0.110461858
H   H40       1.0  0.21897  0.49146  0.93303  1.0000 0.1030610167
H   H41       1.0  0.52675  0.71356  0.23159  1.0000 0.1030610167
H   H42       1.0  0.24510  0.38661  0.98865  1.0000 0.110461858
H   H43       1.0  0.39364  0.88089  0.07079  1.0000 0.110461858
H   H44       1.0  0.29320  0.91833  0.95798  1.0000 0.1213614623
H   H45       1.0  0.18920  0.86003  0.94500  1.0000 0.1213614623
H   H46       1.0  0.19026  0.81574  0.00004  1.0000 0.1030610167
H   H47       1.0  0.70927  0.11583  0.33733  1.0000 0.110461858
H   H48       1.0  0.99982  0.44343  0.59069  1.0000 0.1213614623
H   H49       1.0  0.02762  0.48978  0.70479  1.0000 0.110461858
H   H50       1.0  0.89921  0.34858  0.63702  1.0000 0.1030610167
H   H51       1.0  0.75073  0.32599  0.66651  1.0000 0.1030610167
H   H52       1.0  0.58995  0.14194  0.62882  1.0000 0.1213614623
H   H53       1.0  0.41993  0.01431  0.45309  1.0000 0.1213614623
H   H54       1.0  0.41604  0.04039  0.38449  1.0000 0.110461858
H   H55       1.0  0.29354  0.77961  0.05579  1.0000 0.110461858
H   H56       1.0  0.24857  0.79508  0.06726  1.0000 0.110461858
H   H57       1.0  0.74899  0.15705  0.49937  1.0000 0.110461858
H   H58       1.0  0.67701  0.06400  0.38135  1.0000 0.1030610167
H   H59       1.0  0.51895  0.16798  0.42302  1.0000 0.110461858
H   H60       1.0  0.65172  0.27283  0.52956  1.0000 0.110461858
H   H61       1.0  0.49146  0.93303  0.21897  1.0000 0.1030610167
H   H62       1.0  0.71356  0.23159  0.52675  1.0000 0.1030610167
H   H63       1.0  0.38661  0.98865  0.24510  1.0000 0.110461858
H   H64       1.0  0.11911  0.92921  0.60636  1.0000 0.110461858
H   H65       1.0  0.08167  0.04202  0.70680  1.0000 0.1213614623
H   H66       1.0  0.13997  0.05500  0.81080  1.0000 0.1213614623
H   H67       1.0  0.18426  0.99996  0.80974  1.0000 0.1030610167
H   H68       1.0  0.88417  0.66267  0.29073  1.0000 0.110461858
H   H69       1.0  0.55657  0.40931  0.00018  1.0000 0.1213614623
H   H70       1.0  0.51022  0.29521  0.97238  1.0000 0.110461858
H   H71       1.0  0.65142  0.36298  0.10079  1.0000 0.1030610167
H   H72       1.0  0.67401  0.33349  0.24927  1.0000 0.1030610167
H   H73       1.0  0.85806  0.37118  0.41005  1.0000 0.1213614623
H   H74       1.0  0.98569  0.54691  0.58007  1.0000 0.1213614623
H   H75       1.0  0.95961  0.61551  0.58396  1.0000 0.110461858
H   H76       1.0  0.22039  0.94421  0.70646  1.0000 0.110461858
H   H77       1.0  0.20492  0.93274  0.75143  1.0000 0.110461858
H   H78       1.0  0.84295  0.50063  0.25101  1.0000 0.110461858
H   H79       1.0  0.93600  0.61865  0.32299  1.0000 0.1030610167
H   H80       1.0  0.83202  0.57698  0.48105  1.0000 0.110461858
H   H81       1.0  0.72717  0.47044  0.34828  1.0000 0.110461858
H   H82       1.0  0.06697  0.78103  0.50854  1.0000 0.1030610167
H   H83       1.0  0.76841  0.47325  0.28644  1.0000 0.1030610167
H   H84       1.0  0.01135  0.75490  0.61339  1.0000 0.110461858
H   H85       1.0  0.92921  0.60636  0.11911  1.0000 0.110461858
H   H86       1.0  0.04202  0.70680  0.08167  1.0000 0.1213614623
H   H87       1.0  0.05500  0.81080  0.13997  1.0000 0.1213614623
H   H88       1.0  0.99996  0.80974  0.18426  1.0000 0.1030610167
H   H89       1.0  0.66267  0.29073  0.88417  1.0000 0.110461858
H   H90       1.0  0.40931  0.00018  0.55657  1.0000 0.1213614623
H   H91       1.0  0.29521  0.97238  0.51022  1.0000 0.110461858
H   H92       1.0  0.36298  0.10079  0.65142  1.0000 0.1030610167
H   H93       1.0  0.33349  0.24927  0.67401  1.0000 0.1030610167
H   H94       1.0  0.37118  0.41005  0.85806  1.0000 0.1213614623
H   H95       1.0  0.54691  0.58007  0.98569  1.0000 0.1213614623
H   H96       1.0  0.61551  0.58396  0.95961  1.0000 0.110461858
H   H97       1.0  0.94421  0.70646  0.22039  1.0000 0.110461858
H   H98       1.0  0.93274  0.75143  0.20492  1.0000 0.110461858
H   H99       1.0  0.50063  0.25101  0.84295  1.0000 0.110461858
H   H100      1.0  0.61865  0.32299  0.93600  1.0000 0.1030610167
H   H101      1.0  0.57698  0.48105  0.83202  1.0000 0.110461858
H   H102      1.0  0.47044  0.34828  0.72717  1.0000 0.110461858
H   H103      1.0  0.78103  0.50854  0.06697  1.0000 0.1030610167
H   H104      1.0  0.47325  0.28644  0.76841  1.0000 0.1030610167
H   H105      1.0  0.75490  0.61339  0.01135  1.0000 0.110461858
H   H106      1.0  0.60636  0.11911  0.92921  1.0000 0.110461858
H   H107      1.0  0.70680  0.08167  0.04202  1.0000 0.1213614623
H   H108      1.0  0.81080  0.13997  0.05500  1.0000 0.1213614623
H   H109      1.0  0.80974  0.18426  0.99996  1.0000 0.1030610167
H   H110      1.0  0.29073  0.88417  0.66267  1.0000 0.110461858
H   H111      1.0  0.00018  0.55657  0.40931  1.0000 0.1213614623
H   H112      1.0  0.97238  0.51022  0.29521  1.0000 0.110461858
H   H113      1.0  0.10079  0.65142  0.36298  1.0000 0.1030610167
H   H114      1.0  0.24927  0.67401  0.33349  1.0000 0.1030610167
H   H115      1.0  0.41005  0.85806  0.37118  1.0000 0.1213614623
H   H116      1.0  0.58007  0.98569  0.54691  1.0000 0.1213614623
H   H117      1.0  0.58396  0.95961  0.61551  1.0000 0.110461858
H   H118      1.0  0.70646  0.22039  0.94421  1.0000 0.110461858
H   H119      1.0  0.75143  0.20492  0.93274  1.0000 0.110461858
H   H120      1.0  0.25101  0.84295  0.50063  1.0000 0.110461858
H   H121      1.0  0.32299  0.93600  0.61865  1.0000 0.1030610167
H   H122      1.0  0.48105  0.83202  0.57698  1.0000 0.110461858
H   H123      1.0  0.34828  0.72717  0.47044  1.0000 0.110461858
H   H124      1.0  0.50854  0.06697  0.78103  1.0000 0.1030610167
H   H125      1.0  0.28644  0.76841  0.47325  1.0000 0.1030610167
H   H126      1.0  0.61339  0.01135  0.75490  1.0000 0.110461858
C   C1        1.0  0.94310  0.02814  0.42736  1.0000 0.6019120722
C   C2        1.0  0.87776  0.04596  0.35248  1.0000 -0.0218375326
C   C3        1.0  0.90445  0.01622  0.35433  1.0000 -0.0766987971
C   C4        1.0  0.89880  0.97840  0.29220  1.0000 -0.09050892
C   C5        1.0  0.86570  0.97190  0.23250  1.0000 -0.1400069871
C   C6        1.0  0.83890  0.00410  0.23250  1.0000 -0.0766987971
C   C7        1.0  0.23879  0.37291  0.82940  1.0000 0.550304523
C   C8        1.0  0.19295  0.41366  0.77599  1.0000 -0.0365484789
C   C9        1.0  0.27401  0.45223  0.85136  1.0000 -0.0538429826
C   C10       1.0  0.38572  0.56240  0.94628  1.0000 -0.1105662463
C   C11       1.0  0.41290  0.62950  0.96300  1.0000 -0.1462546379
C   C12       1.0  0.32960  0.58940  0.88690  1.0000 -0.069169282
C   C13       1.0  0.33730  0.78335  0.79985  1.0000 0.6142528563
C   C14       1.0  0.26234  0.62344  0.68342  1.0000 -0.0218375326
C   C15       1.0  0.25080  0.66833  0.68967  1.0000 -0.09050892
C   C16       1.0  0.15410  0.60170  0.58840  1.0000 -0.09050892
C   C17       1.0  0.07830  0.49760  0.48840  1.0000 -0.1400069871
C   C18       1.0  0.09360  0.45700  0.48610  1.0000 -0.0218375326
C   C19       1.0  0.82980  0.08752  0.30548  1.0000 -0.2294024816
C   C20       1.0  0.12829  0.43655  0.71006  1.0000 -0.2294024816
C   C21       1.0  0.19340  0.46920  0.57900  1.0000 -0.2217012138
C   C22       1.0  0.94410  0.21369  0.42261  1.0000 0.110461858
C   C23       1.0  0.98111  0.26409  0.50770  1.0000 -0.2507713229
C   C24       1.0  0.08884  0.38116  0.61800  1.0000 0.0753504022
C   C25       1.0  0.15870  0.44721  0.63959  1.0000 -0.2420835709
C   C26       1.0  0.12160  0.39720  0.55540  1.0000 0.1213614623
C   C27       1.0  0.01390  0.27954  0.44506  1.0000 -0.2420835709
C   C28       1.0  0.02814  0.42736  0.94310  1.0000 0.6019120722
C   C29       1.0  0.04596  0.35248  0.87776  1.0000 -0.0218375326
C   C30       1.0  0.01622  0.35433  0.90445  1.0000 -0.0766987971
C   C31       1.0  0.97840  0.29220  0.89880  1.0000 -0.09050892
C   C32       1.0  0.97190  0.23250  0.86570  1.0000 -0.1400069871
C   C33       1.0  0.00410  0.23250  0.83890  1.0000 -0.0766987971
C   C34       1.0  0.37291  0.82940  0.23879  1.0000 0.550304523
C   C35       1.0  0.41366  0.77599  0.19295  1.0000 -0.0365484789
C   C36       1.0  0.45223  0.85136  0.27401  1.0000 -0.0538429826
C   C37       1.0  0.56240  0.94628  0.38572  1.0000 -0.1105662463
C   C38       1.0  0.62950  0.96300  0.41290  1.0000 -0.1462546379
C   C39       1.0  0.58940  0.88690  0.32960  1.0000 -0.069169282
C   C40       1.0  0.78335  0.79985  0.33730  1.0000 0.6142528563
C   C41       1.0  0.62344  0.68342  0.26234  1.0000 -0.0218375326
C   C42       1.0  0.66833  0.68967  0.25080  1.0000 -0.09050892
C   C43       1.0  0.60170  0.58840  0.15410  1.0000 -0.09050892
C   C44       1.0  0.49760  0.48840  0.07830  1.0000 -0.1400069871
C   C45       1.0  0.45700  0.48610  0.09360  1.0000 -0.0218375326
C   C46       1.0  0.08752  0.30548  0.82980  1.0000 -0.2294024816
C   C47       1.0  0.43655  0.71006  0.12829  1.0000 -0.2294024816
C   C48       1.0  0.46920  0.57900  0.19340  1.0000 -0.2217012138
C   C49       1.0  0.21369  0.42261  0.94410  1.0000 0.110461858
C   C50       1.0  0.26409  0.50770  0.98111  1.0000 -0.2507713229
C   C51       1.0  0.38116  0.61800  0.08884  1.0000 0.0753504022
C   C52       1.0  0.44721  0.63959  0.15870  1.0000 -0.2420835709
C   C53       1.0  0.39720  0.55540  0.12160  1.0000 0.1213614623
C   C54       1.0  0.27954  0.44506  0.01390  1.0000 -0.2420835709
C   C55       1.0  0.42736  0.94310  0.02814  1.0000 0.6019120722
C   C56       1.0  0.35248  0.87776  0.04596  1.0000 -0.0218375326
C   C57       1.0  0.35433  0.90445  0.01622  1.0000 -0.0766987971
C   C58       1.0  0.29220  0.89880  0.97840  1.0000 -0.09050892
C   C59       1.0  0.23250  0.86570  0.97190  1.0000 -0.1400069871
C   C60       1.0  0.23250  0.83890  0.00410  1.0000 -0.0766987971
C   C61       1.0  0.82940  0.23879  0.37291  1.0000 0.550304523
C   C62       1.0  0.77599  0.19295  0.41366  1.0000 -0.0365484789
C   C63       1.0  0.85136  0.27401  0.45223  1.0000 -0.0538429826
C   C64       1.0  0.94628  0.38572  0.56240  1.0000 -0.1105662463
C   C65       1.0  0.96300  0.41290  0.62950  1.0000 -0.1462546379
C   C66       1.0  0.88690  0.32960  0.58940  1.0000 -0.069169282
C   C67       1.0  0.79985  0.33730  0.78335  1.0000 0.6142528563
C   C68       1.0  0.68342  0.26234  0.62344  1.0000 -0.0218375326
C   C69       1.0  0.68967  0.25080  0.66833  1.0000 -0.09050892
C   C70       1.0  0.58840  0.15410  0.60170  1.0000 -0.09050892
C   C71       1.0  0.48840  0.07830  0.49760  1.0000 -0.1400069871
C   C72       1.0  0.48610  0.09360  0.45700  1.0000 -0.0218375326
C   C73       1.0  0.30548  0.82980  0.08752  1.0000 -0.2294024816
C   C74       1.0  0.71006  0.12829  0.43655  1.0000 -0.2294024816
C   C75       1.0  0.57900  0.19340  0.46920  1.0000 -0.2217012138
C   C76       1.0  0.42261  0.94410  0.21369  1.0000 0.110461858
C   C77       1.0  0.50770  0.98111  0.26409  1.0000 -0.2507713229
C   C78       1.0  0.61800  0.08884  0.38116  1.0000 0.0753504022
C   C79       1.0  0.63959  0.15870  0.44721  1.0000 -0.2420835709
C   C80       1.0  0.55540  0.12160  0.39720  1.0000 0.1213614623
C   C81       1.0  0.44506  0.01390  0.27954  1.0000 -0.2420835709
C   C82       1.0  0.05690  0.97186  0.57264  1.0000 0.6019120722
C   C83       1.0  0.12224  0.95404  0.64752  1.0000 -0.0218375326
C   C84       1.0  0.09555  0.98378  0.64567  1.0000 -0.0766987971
C   C85       1.0  0.10120  0.02160  0.70780  1.0000 -0.09050892
C   C86       1.0  0.13430  0.02810  0.76750  1.0000 -0.1400069871
C   C87       1.0  0.16110  0.99590  0.76750  1.0000 -0.0766987971
C   C88       1.0  0.76121  0.62709  0.17060  1.0000 0.550304523
C   C89       1.0  0.80705  0.58634  0.22401  1.0000 -0.0365484789
C   C90       1.0  0.72599  0.54777  0.14864  1.0000 -0.0538429826
C   C91       1.0  0.61428  0.43760  0.05372  1.0000 -0.1105662463
C   C92       1.0  0.58710  0.37050  0.03700  1.0000 -0.1462546379
C   C93       1.0  0.67040  0.41060  0.11310  1.0000 -0.069169282
C   C94       1.0  0.66270  0.21665  0.20015  1.0000 0.6142528563
C   C95       1.0  0.73766  0.37656  0.31658  1.0000 -0.0218375326
C   C96       1.0  0.74920  0.33167  0.31033  1.0000 -0.09050892
C   C97       1.0  0.84590  0.39830  0.41160  1.0000 -0.09050892
C   C98       1.0  0.92170  0.50240  0.51160  1.0000 -0.1400069871
C   C99       1.0  0.90640  0.54300  0.51390  1.0000 -0.0218375326
C   C100      1.0  0.17020  0.91248  0.69452  1.0000 -0.2294024816
C   C101      1.0  0.87171  0.56345  0.28994  1.0000 -0.2294024816
C   C102      1.0  0.80660  0.53080  0.42100  1.0000 -0.2217012138
C   C103      1.0  0.05590  0.78631  0.57739  1.0000 0.110461858
C   C104      1.0  0.01889  0.73591  0.49230  1.0000 -0.2507713229
C   C105      1.0  0.91116  0.61884  0.38200  1.0000 0.0721714463
C   C106      1.0  0.84130  0.55279  0.36041  1.0000 -0.2420835709
C   C107      1.0  0.87840  0.60280  0.44460  1.0000 0.1213614623
C   C108      1.0  0.98610  0.72046  0.55494  1.0000 -0.2420835709
C   C109      1.0  0.97186  0.57264  0.05690  1.0000 0.6019120722
C   C110      1.0  0.95404  0.64752  0.12224  1.0000 -0.0218375326
C   C111      1.0  0.98378  0.64567  0.09555  1.0000 -0.0766987971
C   C112      1.0  0.02160  0.70780  0.10120  1.0000 -0.09050892
C   C113      1.0  0.02810  0.76750  0.13430  1.0000 -0.1400069871
C   C114      1.0  0.99590  0.76750  0.16110  1.0000 -0.0766987971
C   C115      1.0  0.62709  0.17060  0.76121  1.0000 0.550304523
C   C116      1.0  0.58634  0.22401  0.80705  1.0000 -0.0365484789
C   C117      1.0  0.54777  0.14864  0.72599  1.0000 -0.0538429826
C   C118      1.0  0.43760  0.05372  0.61428  1.0000 -0.1105662463
C   C119      1.0  0.37050  0.03700  0.58710  1.0000 -0.1462546379
C   C120      1.0  0.41060  0.11310  0.67040  1.0000 -0.069169282
C   C121      1.0  0.21665  0.20015  0.66270  1.0000 0.6142528563
C   C122      1.0  0.37656  0.31658  0.73766  1.0000 -0.0218375326
C   C123      1.0  0.33167  0.31033  0.74920  1.0000 -0.09050892
C   C124      1.0  0.39830  0.41160  0.84590  1.0000 -0.09050892
C   C125      1.0  0.50240  0.51160  0.92170  1.0000 -0.1400069871
C   C126      1.0  0.54300  0.51390  0.90640  1.0000 -0.0218375326
C   C127      1.0  0.91248  0.69452  0.17020  1.0000 -0.2294024816
C   C128      1.0  0.56345  0.28994  0.87171  1.0000 -0.2294024816
C   C129      1.0  0.53080  0.42100  0.80660  1.0000 -0.2217012138
C   C130      1.0  0.78631  0.57739  0.05590  1.0000 0.110461858
C   C131      1.0  0.73591  0.49230  0.01889  1.0000 -0.2507713229
C   C132      1.0  0.61884  0.38200  0.91116  1.0000 0.0721714463
C   C133      1.0  0.55279  0.36041  0.84130  1.0000 -0.2420835709
C   C134      1.0  0.60280  0.44460  0.87840  1.0000 0.1213614623
C   C135      1.0  0.72046  0.55494  0.98610  1.0000 -0.2420835709
C   C136      1.0  0.57264  0.05690  0.97186  1.0000 0.6019120722
C   C137      1.0  0.64752  0.12224  0.95404  1.0000 -0.0218375326
C   C138      1.0  0.64567  0.09555  0.98378  1.0000 -0.0766987971
C   C139      1.0  0.70780  0.10120  0.02160  1.0000 -0.09050892
C   C140      1.0  0.76750  0.13430  0.02810  1.0000 -0.1400069871
C   C141      1.0  0.76750  0.16110  0.99590  1.0000 -0.0766987971
C   C142      1.0  0.17060  0.76121  0.62709  1.0000 0.550304523
C   C143      1.0  0.22401  0.80705  0.58634  1.0000 -0.0365484789
C   C144      1.0  0.14864  0.72599  0.54777  1.0000 -0.0538429826
C   C145      1.0  0.05372  0.61428  0.43760  1.0000 -0.1105662463
C   C146      1.0  0.03700  0.58710  0.37050  1.0000 -0.1462546379
C   C147      1.0  0.11310  0.67040  0.41060  1.0000 -0.069169282
C   C148      1.0  0.20015  0.66270  0.21665  1.0000 0.6142528563
C   C149      1.0  0.31658  0.73766  0.37656  1.0000 -0.0218375326
C   C150      1.0  0.31033  0.74920  0.33167  1.0000 -0.09050892
C   C151      1.0  0.41160  0.84590  0.39830  1.0000 -0.09050892
C   C152      1.0  0.51160  0.92170  0.50240  1.0000 -0.1400069871
C   C153      1.0  0.51390  0.90640  0.54300  1.0000 -0.0218375326
C   C154      1.0  0.69452  0.17020  0.91248  1.0000 -0.2294024816
C   C155      1.0  0.28994  0.87171  0.56345  1.0000 -0.2294024816
C   C156      1.0  0.42100  0.80660  0.53080  1.0000 -0.2217012138
C   C157      1.0  0.57739  0.05590  0.78631  1.0000 0.110461858
C   C158      1.0  0.49230  0.01889  0.73591  1.0000 -0.2507713229
C   C159      1.0  0.38200  0.91116  0.61884  1.0000 0.0721714463
C   C160      1.0  0.36041  0.84130  0.55279  1.0000 -0.2420835709
C   C161      1.0  0.44460  0.87840  0.60280  1.0000 0.1213614623
C   C162      1.0  0.55494  0.98610  0.72046  1.0000 -0.2420835709
N   N1        1.0  0.84705  0.04136  0.29449  1.0000 0.0721714463
N   N2        1.0  0.21973  0.48112  0.79395  1.0000 0.0721714463
N   N3        1.0  0.18507  0.52010  0.58383  1.0000 0.0721714463
N   N4        1.0  0.04136  0.29449  0.84705  1.0000 0.0721714463
N   N5        1.0  0.48112  0.79395  0.21973  1.0000 0.0721714463
N   N6        1.0  0.52010  0.58383  0.18507  1.0000 0.0721714463
N   N7        1.0  0.29449  0.84705  0.04136  1.0000 0.0721714463
N   N8        1.0  0.79395  0.21973  0.48112  1.0000 0.0721714463
N   N9        1.0  0.58383  0.18507  0.52010  1.0000 0.0721714463
N   N10       1.0  0.15295  0.95864  0.70551  1.0000 0.0721714463
N   N11       1.0  0.78027  0.51888  0.20605  1.0000 0.0721714463
N   N12       1.0  0.81493  0.47990  0.41617  1.0000 0.0721714463
N   N13       1.0  0.95864  0.70551  0.15295  1.0000 0.0721714463
N   N14       1.0  0.51888  0.20605  0.78027  1.0000 0.0721714463
N   N15       1.0  0.47990  0.41617  0.81493  1.0000 0.0721714463
N   N16       1.0  0.70551  0.15295  0.95864  1.0000 0.0721714463
N   N17       1.0  0.20605  0.78027  0.51888  1.0000 0.0721714463
N   N18       1.0  0.41617  0.81493  0.47990  1.0000 0.0721714463
O   O1        1.0  0.95636  0.98981  0.41913  1.0000 -0.67216582
O   O2        1.0  0.95742  0.07442  0.48766  1.0000 -0.5985457987
O   O3        1.0  0.13626  0.27455  0.73929  1.0000 -0.6615395636
O   O4        1.0  0.31820  0.41614  0.90656  1.0000 -0.6070784023
O   O5        1.0  0.41122  0.83047  0.88551  1.0000 -0.6810290307
O   O6        1.0  0.33102  0.82479  0.79919  1.0000 -0.6241826903
O   O7        1.0  0.98981  0.41913  0.95636  1.0000 -0.67216582
O   O8        1.0  0.07442  0.48766  0.95742  1.0000 -0.5985457987
O   O9        1.0  0.27455  0.73929  0.13626  1.0000 -0.6615395636
O   O10       1.0  0.41614  0.90656  0.31820  1.0000 -0.6070784023
O   O11       1.0  0.83047  0.88551  0.41122  1.0000 -0.6810290307
O   O12       1.0  0.82479  0.79919  0.33102  1.0000 -0.6241826903
O   O13       1.0  0.41913  0.95636  0.98981  1.0000 -0.67216582
O   O14       1.0  0.48766  0.95742  0.07442  1.0000 -0.5985457987
O   O15       1.0  0.73929  0.13626  0.27455  1.0000 -0.6615395636
O   O16       1.0  0.90656  0.31820  0.41614  1.0000 -0.6070784023
O   O17       1.0  0.88551  0.41122  0.83047  1.0000 -0.6810290307
O   O18       1.0  0.79919  0.33102  0.82479  1.0000 -0.6241826903
O   O19       1.0  0.04364  0.01019  0.58087  1.0000 -0.67216582
O   O20       1.0  0.04258  0.92558  0.51234  1.0000 -0.5985457987
O   O21       1.0  0.86374  0.72545  0.26071  1.0000 -0.6615395636
O   O22       1.0  0.68180  0.58386  0.09344  1.0000 -0.6070784023
O   O23       1.0  0.58878  0.16953  0.11449  1.0000 -0.6810290307
O   O24       1.0  0.66898  0.17521  0.20081  1.0000 -0.6241826903
O   O25       1.0  0.01019  0.58087  0.04364  1.0000 -0.67216582
O   O26       1.0  0.92558  0.51234  0.04258  1.0000 -0.5985457987
O   O27       1.0  0.72545  0.26071  0.86374  1.0000 -0.6615395636
O   O28       1.0  0.58386  0.09344  0.68180  1.0000 -0.6070784023
O   O29       1.0  0.16953  0.11449  0.58878  1.0000 -0.6810290307
O   O30       1.0  0.17521  0.20081  0.66898  1.0000 -0.6241826903
O   O31       1.0  0.58087  0.04364  0.01019  1.0000 -0.67216582
O   O32       1.0  0.51234  0.04258  0.92558  1.0000 -0.5985457987
O   O33       1.0  0.26071  0.86374  0.72545  1.0000 -0.6615395636
O   O34       1.0  0.09344  0.68180  0.58386  1.0000 -0.6070784023
O   O35       1.0  0.11449  0.58878  0.16953  1.0000 -0.6810290307
O   O36       1.0  0.20081  0.66898  0.17521  1.0000 -0.6241826903
