# DDEC6 charges by PACMAN v1.1 (https://github.com/mtap-research/PACMAN-charge/)
data_2021[Co][nan]3[ASR]14
_chemical_formula_sum              "Co12 H64 C136 S24 N8 O48"
_cell_length_a       33.4101
_cell_length_b       26.5814
_cell_length_c       21.878
_cell_angle_alpha    86.5997
_cell_angle_beta     52.5807
_cell_angle_gamma    40.8196

_symmetry_space_group_name_H-M    "P 1"
_symmetry_Int_Tables_number       1

loop_
  _symmetry_equiv_pos_as_xyz
  'x, y, z'

loop_
  _atom_site_type_symbol
  _atom_site_label
  _atom_site_symmetry_multiplicity
  _atom_site_fract_x
  _atom_site_fract_y
  _atom_site_fract_z
  _atom_site_occupancy
  _atom_site_charge
Co  Co1       1.0  0.32883  0.40437  0.82681  1.0000 0.860721007
Co  Co2       1.0  0.40437  0.32883  0.43999  1.0000 0.860721007
Co  Co3       1.0  0.82681  0.43999  0.32883  1.0000 0.860721007
Co  Co4       1.0  0.43999  0.82681  0.40437  1.0000 0.860721007
Co  Co5       1.0  0.92117  0.84563  0.42319  1.0000 0.860721007
Co  Co6       1.0  0.84563  0.92117  0.81001  1.0000 0.860721007
Co  Co7       1.0  0.42319  0.81001  0.92117  1.0000 0.860721007
Co  Co8       1.0  0.81001  0.42319  0.84563  1.0000 0.860721007
Co  Co9       1.0  0.62500  0.12500  0.62500  1.0000 1.0988211632
Co  Co10      1.0  0.12500  0.62500  0.62500  1.0000 1.0988211632
Co  Co11      1.0  0.62500  0.62500  0.62500  1.0000 1.0988211632
Co  Co12      1.0  0.62500  0.62500  0.12500  1.0000 1.0988211632
H   H1        1.0  0.18071  0.55255  0.83315  1.0000 0.1112243161
H   H2        1.0  0.20822  0.52760  0.70434  1.0000 0.1290407498
H   H3        1.0  0.30081  0.25745  0.85235  1.0000 0.1419456443
H   H4        1.0  0.36676  0.11102  0.77706  1.0000 0.1290407498
H   H5        1.0  0.16101  0.53765  0.16345  1.0000 0.1526152956
H   H6        1.0  0.14961  0.53791  0.28529  1.0000 0.1290407498
H   H7        1.0  0.55600  0.07310  0.76574  1.0000 0.1526152956
H   H8        1.0  0.49268  0.04180  0.82970  1.0000 0.1290407498
H   H9        1.0  0.55255  0.18071  0.43359  1.0000 0.1112243161
H   H10       1.0  0.52760  0.20822  0.55984  1.0000 0.1290407498
H   H11       1.0  0.25745  0.30081  0.58939  1.0000 0.1419456443
H   H12       1.0  0.11102  0.36676  0.74516  1.0000 0.1290407498
H   H13       1.0  0.53765  0.16101  0.13789  1.0000 0.1526152956
H   H14       1.0  0.53791  0.14961  0.02719  1.0000 0.1290407498
H   H15       1.0  0.07310  0.55600  0.60516  1.0000 0.1526152956
H   H16       1.0  0.04180  0.49268  0.63582  1.0000 0.1290407498
H   H17       1.0  0.83315  0.43359  0.18071  1.0000 0.1112243161
H   H18       1.0  0.70434  0.55984  0.20822  1.0000 0.1290407498
H   H19       1.0  0.85235  0.58939  0.30081  1.0000 0.1419456443
H   H20       1.0  0.77706  0.74516  0.36676  1.0000 0.1290407498
H   H21       1.0  0.16345  0.13789  0.16101  1.0000 0.1526152956
H   H22       1.0  0.28529  0.02719  0.14961  1.0000 0.1290407498
H   H23       1.0  0.76574  0.60516  0.55600  1.0000 0.1526152956
H   H24       1.0  0.82970  0.63582  0.49268  1.0000 0.1290407498
H   H25       1.0  0.43359  0.83315  0.55255  1.0000 0.1112243161
H   H26       1.0  0.55984  0.70434  0.52760  1.0000 0.1290407498
H   H27       1.0  0.58939  0.85235  0.25745  1.0000 0.1419456443
H   H28       1.0  0.74516  0.77706  0.11102  1.0000 0.1290407498
H   H29       1.0  0.13789  0.16345  0.53765  1.0000 0.1526152956
H   H30       1.0  0.02719  0.28529  0.53791  1.0000 0.1290407498
H   H31       1.0  0.60516  0.76574  0.07310  1.0000 0.1526152956
H   H32       1.0  0.63582  0.82970  0.04180  1.0000 0.1290407498
H   H33       1.0  0.06929  0.69745  0.41685  1.0000 0.1112243161
H   H34       1.0  0.04178  0.72240  0.54566  1.0000 0.1290407498
H   H35       1.0  0.94919  0.99255  0.39765  1.0000 0.1419456443
H   H36       1.0  0.88324  0.13898  0.47294  1.0000 0.1290407498
H   H37       1.0  0.08899  0.71235  0.08655  1.0000 0.1526152956
H   H38       1.0  0.10039  0.71209  0.96471  1.0000 0.1290407498
H   H39       1.0  0.69400  0.17690  0.48426  1.0000 0.1526152956
H   H40       1.0  0.75732  0.20820  0.42030  1.0000 0.1290407498
H   H41       1.0  0.69745  0.06929  0.81641  1.0000 0.1112243161
H   H42       1.0  0.72240  0.04178  0.69016  1.0000 0.1290407498
H   H43       1.0  0.99255  0.94919  0.66061  1.0000 0.1419456443
H   H44       1.0  0.13898  0.88324  0.50484  1.0000 0.1290407498
H   H45       1.0  0.71235  0.08899  0.11211  1.0000 0.1526152956
H   H46       1.0  0.71209  0.10039  0.22281  1.0000 0.1290407498
H   H47       1.0  0.17690  0.69400  0.64484  1.0000 0.1526152956
H   H48       1.0  0.20820  0.75732  0.61418  1.0000 0.1290407498
H   H49       1.0  0.41685  0.81641  0.06929  1.0000 0.1112243161
H   H50       1.0  0.54566  0.69016  0.04178  1.0000 0.1290407498
H   H51       1.0  0.39765  0.66061  0.94919  1.0000 0.1419456443
H   H52       1.0  0.47294  0.50484  0.88324  1.0000 0.1290407498
H   H53       1.0  0.08655  0.11211  0.08899  1.0000 0.1526152956
H   H54       1.0  0.96471  0.22281  0.10039  1.0000 0.1290407498
H   H55       1.0  0.48426  0.64484  0.69400  1.0000 0.1526152956
H   H56       1.0  0.42030  0.61418  0.75732  1.0000 0.1290407498
H   H57       1.0  0.81641  0.41685  0.69745  1.0000 0.1112243161
H   H58       1.0  0.69016  0.54566  0.72240  1.0000 0.1290407498
H   H59       1.0  0.66061  0.39765  0.99255  1.0000 0.1419456443
H   H60       1.0  0.50484  0.47294  0.13898  1.0000 0.1290407498
H   H61       1.0  0.11211  0.08655  0.71235  1.0000 0.1526152956
H   H62       1.0  0.22281  0.96471  0.71209  1.0000 0.1290407498
H   H63       1.0  0.64484  0.48426  0.17690  1.0000 0.1526152956
H   H64       1.0  0.61418  0.42030  0.20820  1.0000 0.1290407498
C   C1        1.0  0.25909  0.47493  0.74997  1.0000 0.039741396
C   C2        1.0  0.27505  0.45979  0.67311  1.0000 0.0470220577
C   C3        1.0  0.47254  0.18048  0.70448  1.0000 0.5996207406
C   C4        1.0  0.47494  0.12392  0.69134  1.0000 -0.110393114
C   C5        1.0  0.38223  0.17459  0.77395  1.0000 -0.0969259536
C   C6        1.0  0.41987  0.09083  0.73077  1.0000 -0.1743540717
C   C7        1.0  0.54164  0.97714  0.61456  1.0000 -0.0038249145
C   C8        1.0  0.38986  0.33278  0.90580  1.0000 0.605293423
C   C9        1.0  0.34609  0.36509  0.00771  1.0000 -0.0969259536
C   C10       1.0  0.23012  0.47094  0.12950  1.0000 -0.0969259536
C   C11       1.0  0.22357  0.47097  0.19937  1.0000 -0.1743540717
C   C12       1.0  0.33471  0.36465  0.13101  1.0000 -0.0169310786
C   C13       1.0  0.80181  0.87417  0.53071  1.0000 0.5798496157
C   C14       1.0  0.73051  0.89253  0.59875  1.0000 -0.110393114
C   C15       1.0  0.60965  0.99687  0.71503  1.0000 -0.110393114
C   C16       1.0  0.57343  0.97879  0.75141  1.0000 -0.1814410577
C   C17       1.0  0.66667  0.86076  0.66224  1.0000 -0.0038249145
C   C18       1.0  0.47493  0.25909  0.51601  1.0000 0.039741396
C   C19       1.0  0.45979  0.27505  0.59205  1.0000 0.0470220577
C   C20       1.0  0.18048  0.47254  0.64250  1.0000 0.5996207406
C   C21       1.0  0.12392  0.47494  0.70980  1.0000 -0.110393114
C   C22       1.0  0.17459  0.38223  0.66923  1.0000 -0.0969259536
C   C23       1.0  0.09083  0.41987  0.75853  1.0000 -0.1743540717
C   C24       1.0  0.97714  0.54164  0.86666  1.0000 -0.0052774558
C   C25       1.0  0.33278  0.38986  0.37156  1.0000 0.5996207406
C   C26       1.0  0.36509  0.34609  0.28111  1.0000 -0.0969259536
C   C27       1.0  0.47094  0.23012  0.16944  1.0000 -0.0969259536
C   C28       1.0  0.47097  0.22357  0.10609  1.0000 -0.1743540717
C   C29       1.0  0.36465  0.33471  0.16963  1.0000 -0.0169310786
C   C30       1.0  0.87417  0.80181  0.79331  1.0000 0.5798496157
C   C31       1.0  0.89253  0.73051  0.77821  1.0000 -0.110393114
C   C32       1.0  0.99687  0.60965  0.67845  1.0000 -0.110393114
C   C33       1.0  0.97879  0.57343  0.69637  1.0000 -0.1814410577
C   C34       1.0  0.86076  0.66667  0.81030  1.0000 -0.0038249145
C   C35       1.0  0.74997  0.51601  0.25909  1.0000 0.039741396
C   C36       1.0  0.67311  0.59205  0.27505  1.0000 0.0470220577
C   C37       1.0  0.70448  0.64250  0.47254  1.0000 0.5996207406
C   C38       1.0  0.69134  0.70980  0.47494  1.0000 -0.110393114
C   C39       1.0  0.77395  0.66923  0.38223  1.0000 -0.0969259536
C   C40       1.0  0.73077  0.75853  0.41987  1.0000 -0.1743540717
C   C41       1.0  0.61456  0.86666  0.54164  1.0000 -0.0052774558
C   C42       1.0  0.90580  0.37156  0.38986  1.0000 0.605293423
C   C43       1.0  0.00771  0.28111  0.34609  1.0000 -0.0969259536
C   C44       1.0  0.12950  0.16944  0.23012  1.0000 -0.0969259536
C   C45       1.0  0.19937  0.10609  0.22357  1.0000 -0.1743540717
C   C46       1.0  0.13101  0.16963  0.33471  1.0000 -0.0169310786
C   C47       1.0  0.53071  0.79331  0.80181  1.0000 0.5798496157
C   C48       1.0  0.59875  0.77821  0.73051  1.0000 -0.110393114
C   C49       1.0  0.71503  0.67845  0.60965  1.0000 -0.110393114
C   C50       1.0  0.75141  0.69637  0.57343  1.0000 -0.1814410577
C   C51       1.0  0.66224  0.81030  0.66667  1.0000 -0.0038249145
C   C52       1.0  0.51601  0.74997  0.47493  1.0000 0.039741396
C   C53       1.0  0.59205  0.67311  0.45979  1.0000 0.0470220577
C   C54       1.0  0.64250  0.70448  0.18048  1.0000 0.5996207406
C   C55       1.0  0.70980  0.69134  0.12392  1.0000 -0.110393114
C   C56       1.0  0.66923  0.77395  0.17459  1.0000 -0.0969259536
C   C57       1.0  0.75853  0.73077  0.09083  1.0000 -0.1743540717
C   C58       1.0  0.86666  0.61456  0.97714  1.0000 -0.0052774558
C   C59       1.0  0.37156  0.90580  0.33278  1.0000 0.605293423
C   C60       1.0  0.28111  0.00771  0.36509  1.0000 -0.0969259536
C   C61       1.0  0.16944  0.12950  0.47094  1.0000 -0.0969259536
C   C62       1.0  0.10609  0.19937  0.47097  1.0000 -0.1743540717
C   C63       1.0  0.16963  0.13101  0.36465  1.0000 -0.0169310786
C   C64       1.0  0.79331  0.53071  0.87417  1.0000 0.5798496157
C   C65       1.0  0.77821  0.59875  0.89253  1.0000 -0.110393114
C   C66       1.0  0.67845  0.71503  0.99687  1.0000 -0.110393114
C   C67       1.0  0.69637  0.75141  0.97879  1.0000 -0.1814410577
C   C68       1.0  0.81030  0.66224  0.86076  1.0000 -0.0038249145
C   C69       1.0  0.99091  0.77507  0.50003  1.0000 0.039741396
C   C70       1.0  0.97495  0.79021  0.57689  1.0000 0.0470220577
C   C71       1.0  0.77746  0.06952  0.54552  1.0000 0.5996207406
C   C72       1.0  0.77506  0.12608  0.55866  1.0000 -0.110393114
C   C73       1.0  0.86777  0.07541  0.47605  1.0000 -0.0969259536
C   C74       1.0  0.83013  0.15917  0.51923  1.0000 -0.1814410577
C   C75       1.0  0.70836  0.27286  0.63544  1.0000 -0.0052774558
C   C76       1.0  0.86014  0.91722  0.34420  1.0000 0.605293423
C   C77       1.0  0.90391  0.88491  0.24229  1.0000 -0.0969259536
C   C78       1.0  0.01988  0.77906  0.12050  1.0000 -0.0969259536
C   C79       1.0  0.02643  0.77903  0.05063  1.0000 -0.1743540717
C   C80       1.0  0.91529  0.88535  0.11899  1.0000 -0.0169310786
C   C81       1.0  0.44819  0.37583  0.71929  1.0000 0.5798496157
C   C82       1.0  0.51949  0.35747  0.65125  1.0000 -0.110393114
C   C83       1.0  0.64035  0.25313  0.53497  1.0000 -0.110393114
C   C84       1.0  0.67657  0.27121  0.49859  1.0000 -0.1814410577
C   C85       1.0  0.58330  0.38924  0.58776  1.0000 -0.0038249145
C   C86       1.0  0.77507  0.99091  0.73399  1.0000 0.039741396
C   C87       1.0  0.79021  0.97495  0.65795  1.0000 0.0470220577
C   C88       1.0  0.06952  0.77746  0.60750  1.0000 0.5996207406
C   C89       1.0  0.12608  0.77506  0.54020  1.0000 -0.110393114
C   C90       1.0  0.07541  0.86777  0.58077  1.0000 -0.0969259536
C   C91       1.0  0.15917  0.83013  0.49147  1.0000 -0.1814410577
C   C92       1.0  0.27286  0.70836  0.38334  1.0000 -0.0052774558
C   C93       1.0  0.91722  0.86014  0.87844  1.0000 0.605293423
C   C94       1.0  0.88491  0.90391  0.96889  1.0000 -0.0969259536
C   C95       1.0  0.77906  0.01988  0.08056  1.0000 -0.0969259536
C   C96       1.0  0.77903  0.02643  0.14391  1.0000 -0.1743540717
C   C97       1.0  0.88535  0.91529  0.08037  1.0000 -0.0169310786
C   C98       1.0  0.37583  0.44819  0.45669  1.0000 0.5798496157
C   C99       1.0  0.35747  0.51949  0.47179  1.0000 -0.110393114
C   C100      1.0  0.25313  0.64035  0.57155  1.0000 -0.110393114
C   C101      1.0  0.27121  0.67657  0.55363  1.0000 -0.1814410577
C   C102      1.0  0.38924  0.58330  0.43970  1.0000 -0.0038249145
C   C103      1.0  0.50003  0.73399  0.99091  1.0000 0.039741396
C   C104      1.0  0.57689  0.65795  0.97495  1.0000 0.0470220577
C   C105      1.0  0.54552  0.60750  0.77746  1.0000 0.5996207406
C   C106      1.0  0.55866  0.54020  0.77506  1.0000 -0.110393114
C   C107      1.0  0.47605  0.58077  0.86777  1.0000 -0.0969259536
C   C108      1.0  0.51923  0.49147  0.83013  1.0000 -0.1814410577
C   C109      1.0  0.63544  0.38334  0.70836  1.0000 -0.0038249145
C   C110      1.0  0.34420  0.87844  0.86014  1.0000 0.5996207406
C   C111      1.0  0.24229  0.96889  0.90391  1.0000 -0.0969259536
C   C112      1.0  0.12050  0.08056  0.01988  1.0000 -0.0969259536
C   C113      1.0  0.05063  0.14391  0.02643  1.0000 -0.1743540717
C   C114      1.0  0.11899  0.08037  0.91529  1.0000 -0.0169310786
C   C115      1.0  0.71929  0.45669  0.44819  1.0000 0.5798496157
C   C116      1.0  0.65125  0.47179  0.51949  1.0000 -0.110393114
C   C117      1.0  0.53497  0.57155  0.64035  1.0000 -0.110393114
C   C118      1.0  0.49859  0.55363  0.67657  1.0000 -0.1814410577
C   C119      1.0  0.58776  0.43970  0.58330  1.0000 -0.0038249145
C   C120      1.0  0.73399  0.50003  0.77507  1.0000 0.039741396
C   C121      1.0  0.65795  0.57689  0.79021  1.0000 0.0470220577
C   C122      1.0  0.60750  0.54552  0.06952  1.0000 0.5996207406
C   C123      1.0  0.54020  0.55866  0.12608  1.0000 -0.110393114
C   C124      1.0  0.58077  0.47605  0.07541  1.0000 -0.0969259536
C   C125      1.0  0.49147  0.51923  0.15917  1.0000 -0.1743540717
C   C126      1.0  0.38334  0.63544  0.27286  1.0000 -0.0038249145
C   C127      1.0  0.87844  0.34420  0.91722  1.0000 0.5996207406
C   C128      1.0  0.96889  0.24229  0.88491  1.0000 -0.0969259536
C   C129      1.0  0.08056  0.12050  0.77906  1.0000 -0.0969259536
C   C130      1.0  0.14391  0.05063  0.77903  1.0000 -0.1743540717
C   C131      1.0  0.08037  0.11899  0.88535  1.0000 -0.0169310786
C   C132      1.0  0.45669  0.71929  0.37583  1.0000 0.5798496157
C   C133      1.0  0.47179  0.65125  0.35747  1.0000 -0.110393114
C   C134      1.0  0.57155  0.53497  0.25313  1.0000 -0.110393114
C   C135      1.0  0.55363  0.49859  0.27121  1.0000 -0.1814410577
C   C136      1.0  0.43970  0.58776  0.38924  1.0000 -0.0038249145
S   S1        1.0  0.60997  0.97293  0.55889  1.0000 0.1419456443
S   S2        1.0  0.44862  0.26300  0.97844  1.0000 0.1013892955
S   S3        1.0  0.80095  0.77075  0.53339  1.0000 0.1290407498
S   S4        1.0  0.97293  0.60997  0.85821  1.0000 0.1419456443
S   S5        1.0  0.26300  0.44862  0.30994  1.0000 0.1013892955
S   S6        1.0  0.77075  0.80095  0.89491  1.0000 0.1290407498
S   S7        1.0  0.55889  0.85821  0.60997  1.0000 0.1526152956
S   S8        1.0  0.97844  0.30994  0.44862  1.0000 0.1013892955
S   S9        1.0  0.53339  0.89491  0.80095  1.0000 0.1290407498
S   S10       1.0  0.85821  0.55889  0.97293  1.0000 0.1419456443
S   S11       1.0  0.30994  0.97844  0.26300  1.0000 0.1013892955
S   S12       1.0  0.89491  0.53339  0.77075  1.0000 0.1290407498
S   S13       1.0  0.64003  0.27707  0.69111  1.0000 0.1419456443
S   S14       1.0  0.80138  0.98700  0.27156  1.0000 0.1013892955
S   S15       1.0  0.44905  0.47925  0.71661  1.0000 0.1290407498
S   S16       1.0  0.27707  0.64003  0.39179  1.0000 0.1419456443
S   S17       1.0  0.98700  0.80138  0.94006  1.0000 0.1013892955
S   S18       1.0  0.47925  0.44905  0.35509  1.0000 0.1290407498
S   S19       1.0  0.69111  0.39179  0.64003  1.0000 0.1419456443
S   S20       1.0  0.27156  0.94006  0.80138  1.0000 0.1013892955
S   S21       1.0  0.71661  0.35509  0.44905  1.0000 0.1290407498
S   S22       1.0  0.39179  0.69111  0.27707  1.0000 0.1419456443
S   S23       1.0  0.94006  0.27156  0.98700  1.0000 0.1013892955
S   S24       1.0  0.35509  0.71661  0.47925  1.0000 0.1290407498
N   N1        1.0  0.35086  0.38340  0.71026  1.0000 -0.2114910185
N   N2        1.0  0.38340  0.35086  0.55548  1.0000 -0.2114910185
N   N3        1.0  0.71026  0.55548  0.35086  1.0000 -0.2114910185
N   N4        1.0  0.55548  0.71026  0.38340  1.0000 -0.2114910185
N   N5        1.0  0.89914  0.86660  0.53974  1.0000 -0.2114910185
N   N6        1.0  0.86660  0.89914  0.69452  1.0000 -0.2114910185
N   N7        1.0  0.53974  0.69452  0.89914  1.0000 -0.2114910185
N   N8        1.0  0.69452  0.53974  0.86660  1.0000 -0.2114910185
O   O1        1.0  0.36895  0.29391  0.79941  1.0000 -0.5472811907
O   O2        1.0  0.57283  0.11159  0.62063  1.0000 -0.5736908349
O   O3        1.0  0.31236  0.41986  0.93450  1.0000 -0.5315858066
O   O4        1.0  0.49919  0.22353  0.80227  1.0000 -0.5736908349
O   O5        1.0  0.74823  0.96549  0.57197  1.0000 -0.5789587874
O   O6        1.0  0.91585  0.76859  0.43397  1.0000 -0.5244631469
O   O7        1.0  0.29391  0.36895  0.53773  1.0000 -0.5472811907
O   O8        1.0  0.11159  0.57283  0.69495  1.0000 -0.5736908349
O   O9        1.0  0.41986  0.31236  0.33328  1.0000 -0.5315858066
O   O10       1.0  0.22353  0.49919  0.47501  1.0000 -0.5789587874
O   O11       1.0  0.96549  0.74823  0.71431  1.0000 -0.5789587874
O   O12       1.0  0.76859  0.91585  0.88159  1.0000 -0.5315858066
O   O13       1.0  0.79941  0.53773  0.36895  1.0000 -0.5472811907
O   O14       1.0  0.62063  0.69495  0.57283  1.0000 -0.5736908349
O   O15       1.0  0.93450  0.33328  0.31236  1.0000 -0.5315858066
O   O16       1.0  0.80227  0.47501  0.49919  1.0000 -0.5789587874
O   O17       1.0  0.57197  0.71431  0.74823  1.0000 -0.5789587874
O   O18       1.0  0.43397  0.88159  0.91585  1.0000 -0.5244631469
O   O19       1.0  0.53773  0.79941  0.29391  1.0000 -0.5472811907
O   O20       1.0  0.69495  0.62063  0.11159  1.0000 -0.5736908349
O   O21       1.0  0.33328  0.93450  0.41986  1.0000 -0.5315858066
O   O22       1.0  0.47501  0.80227  0.22353  1.0000 -0.5789587874
O   O23       1.0  0.71431  0.57197  0.96549  1.0000 -0.5789587874
O   O24       1.0  0.88159  0.43397  0.76859  1.0000 -0.5244631469
O   O25       1.0  0.88105  0.95609  0.45059  1.0000 -0.5472811907
O   O26       1.0  0.67717  0.13841  0.62937  1.0000 -0.5736908349
O   O27       1.0  0.93764  0.83014  0.31550  1.0000 -0.5315858066
O   O28       1.0  0.75081  0.02647  0.44773  1.0000 -0.5789587874
O   O29       1.0  0.50177  0.28451  0.67803  1.0000 -0.5789587874
O   O30       1.0  0.33415  0.48141  0.81603  1.0000 -0.5244631469
O   O31       1.0  0.95609  0.88105  0.71227  1.0000 -0.5472811907
O   O32       1.0  0.13841  0.67717  0.55505  1.0000 -0.5736908349
O   O33       1.0  0.83014  0.93764  0.91672  1.0000 -0.5315858066
O   O34       1.0  0.02647  0.75081  0.77499  1.0000 -0.5789587874
O   O35       1.0  0.28451  0.50177  0.53569  1.0000 -0.5789587874
O   O36       1.0  0.48141  0.33415  0.36841  1.0000 -0.5315858066
O   O37       1.0  0.45059  0.71227  0.88105  1.0000 -0.5472811907
O   O38       1.0  0.62937  0.55505  0.67717  1.0000 -0.5736908349
O   O39       1.0  0.31550  0.91672  0.93764  1.0000 -0.5315858066
O   O40       1.0  0.44773  0.77499  0.75081  1.0000 -0.5789587874
O   O41       1.0  0.67803  0.53569  0.50177  1.0000 -0.5789587874
O   O42       1.0  0.81603  0.36841  0.33415  1.0000 -0.5244631469
O   O43       1.0  0.71227  0.45059  0.95609  1.0000 -0.5472811907
O   O44       1.0  0.55505  0.62937  0.13841  1.0000 -0.5736908349
O   O45       1.0  0.91672  0.31550  0.83014  1.0000 -0.5315858066
O   O46       1.0  0.77499  0.44773  0.02647  1.0000 -0.5789587874
O   O47       1.0  0.53569  0.67803  0.28451  1.0000 -0.5789587874
O   O48       1.0  0.36841  0.81603  0.48141  1.0000 -0.5244631469
