# DDEC6 charges by PACMAN v1.1 (https://github.com/mtap-research/PACMAN-charge/)
data_2021[Al][nan]3[ASR]16
_chemical_formula_sum              "Al8 H24 C40 N16 O40"
_cell_length_a       12.2727
_cell_length_b       15.4996
_cell_length_c       13.4203
_cell_angle_alpha    90
_cell_angle_beta     103.262
_cell_angle_gamma    90

_symmetry_space_group_name_H-M    "P 1"
_symmetry_Int_Tables_number       1

loop_
  _symmetry_equiv_pos_as_xyz
  'x, y, z'

loop_
  _atom_site_type_symbol
  _atom_site_label
  _atom_site_symmetry_multiplicity
  _atom_site_fract_x
  _atom_site_fract_y
  _atom_site_fract_z
  _atom_site_occupancy
  _atom_site_charge
Al  Al1       1.0  0.76602  0.55833  0.56851  1.0000 1.6300201508
Al  Al2       1.0  0.23398  0.05833  0.93149  1.0000 1.6300201508
Al  Al3       1.0  0.23398  0.44167  0.43149  1.0000 1.6300201508
Al  Al4       1.0  0.76602  0.94167  0.06851  1.0000 1.6300201508
Al  Al5       1.0  0.00000  0.50000  0.50000  1.0000 1.6362342926
Al  Al6       1.0  0.00000  0.00000  0.00000  1.0000 1.6362342926
Al  Al7       1.0  0.50000  0.50000  0.50000  1.0000 1.6300201508
Al  Al8       1.0  0.50000  0.00000  0.00000  1.0000 1.6300201508
H   H1        1.0  0.80881  0.51727  0.40792  1.0000 0.4278035144
H   H2        1.0  0.67237  0.42722  0.50608  1.0000 0.4278035144
H   H3        1.0  0.91837  0.78792  0.74987  1.0000 0.1712842601
H   H4        1.0  0.22408  0.84794  0.73984  1.0000 0.2800227049
H   H5        1.0  0.71534  0.77997  0.33733  1.0000 0.1712842601
H   H6        1.0  0.40552  0.82948  0.20091  1.0000 0.2800227049
H   H7        1.0  0.19119  0.01727  0.09208  1.0000 0.4278035144
H   H8        1.0  0.32763  0.92722  0.99392  1.0000 0.4278035144
H   H9        1.0  0.08163  0.28792  0.75013  1.0000 0.1712842601
H   H10       1.0  0.77592  0.34794  0.76016  1.0000 0.2800227049
H   H11       1.0  0.28466  0.27997  0.16267  1.0000 0.1712842601
H   H12       1.0  0.59448  0.32948  0.29909  1.0000 0.2800227049
H   H13       1.0  0.19119  0.48273  0.59208  1.0000 0.4278035144
H   H14       1.0  0.32763  0.57278  0.49392  1.0000 0.4278035144
H   H15       1.0  0.08163  0.21208  0.25013  1.0000 0.1712842601
H   H16       1.0  0.77592  0.15206  0.26016  1.0000 0.2800227049
H   H17       1.0  0.28466  0.22003  0.66267  1.0000 0.1712842601
H   H18       1.0  0.59448  0.17052  0.79909  1.0000 0.2800227049
H   H19       1.0  0.80881  0.98273  0.90792  1.0000 0.4278035144
H   H20       1.0  0.67237  0.07278  0.00608  1.0000 0.4278035144
H   H21       1.0  0.91837  0.71208  0.24987  1.0000 0.1712842601
H   H22       1.0  0.22408  0.65206  0.23984  1.0000 0.2800227049
H   H23       1.0  0.71534  0.72003  0.83733  1.0000 0.1712842601
H   H24       1.0  0.40552  0.67052  0.70091  1.0000 0.2800227049
C   C1        1.0  0.97650  0.65160  0.62230  1.0000 0.6190443131
C   C2        1.0  0.03140  0.72880  0.67610  1.0000 0.0313698145
C   C3        1.0  0.59210  0.65250  0.42490  1.0000 0.6190443131
C   C4        1.0  0.98900  0.78790  0.73550  1.0000 -0.2412797754
C   C5        1.0  0.56710  0.72370  0.35200  1.0000 0.0145953292
C   C6        1.0  0.07440  0.84640  0.76830  1.0000 0.0236085768
C   C7        1.0  0.63760  0.77840  0.31750  1.0000 -0.2342869622
C   C8        1.0  0.08220  0.92260  0.83460  1.0000 0.6018369886
C   C9        1.0  0.56920  0.83040  0.24710  1.0000 0.0313698145
C   C10       1.0  0.59610  0.89480  0.17600  1.0000 0.6056181284
C   C11       1.0  0.02350  0.15160  0.87770  1.0000 0.6190443131
C   C12       1.0  0.96860  0.22880  0.82390  1.0000 0.0313698145
C   C13       1.0  0.40790  0.15250  0.07510  1.0000 0.6190443131
C   C14       1.0  0.01100  0.28790  0.76450  1.0000 -0.2412797754
C   C15       1.0  0.43290  0.22370  0.14800  1.0000 0.0145953292
C   C16       1.0  0.92560  0.34640  0.73170  1.0000 0.0236085768
C   C17       1.0  0.36240  0.27840  0.18250  1.0000 -0.2342869622
C   C18       1.0  0.91780  0.42260  0.66540  1.0000 0.6018369886
C   C19       1.0  0.43080  0.33040  0.25290  1.0000 0.0313698145
C   C20       1.0  0.40390  0.39480  0.32400  1.0000 0.6056181284
C   C21       1.0  0.02350  0.34840  0.37770  1.0000 0.6190443131
C   C22       1.0  0.96860  0.27120  0.32390  1.0000 0.0313698145
C   C23       1.0  0.40790  0.34750  0.57510  1.0000 0.6190443131
C   C24       1.0  0.01100  0.21210  0.26450  1.0000 -0.2412797754
C   C25       1.0  0.43290  0.27630  0.64800  1.0000 0.0145953292
C   C26       1.0  0.92560  0.15360  0.23170  1.0000 0.0236085768
C   C27       1.0  0.36240  0.22160  0.68250  1.0000 -0.2342869622
C   C28       1.0  0.91780  0.07740  0.16540  1.0000 0.6018369886
C   C29       1.0  0.43080  0.16960  0.75290  1.0000 0.0313698145
C   C30       1.0  0.40390  0.10520  0.82400  1.0000 0.6056181284
C   C31       1.0  0.97650  0.84840  0.12230  1.0000 0.6190443131
C   C32       1.0  0.03140  0.77120  0.17610  1.0000 0.0313698145
C   C33       1.0  0.59210  0.84750  0.92490  1.0000 0.6190443131
C   C34       1.0  0.98900  0.71210  0.23550  1.0000 -0.2412797754
C   C35       1.0  0.56710  0.77630  0.85200  1.0000 0.0145953292
C   C36       1.0  0.07440  0.65360  0.26830  1.0000 0.0236085768
C   C37       1.0  0.63760  0.72160  0.81750  1.0000 -0.2342869622
C   C38       1.0  0.08220  0.57740  0.33460  1.0000 0.6018369886
C   C39       1.0  0.56920  0.66960  0.74710  1.0000 0.0313698145
C   C40       1.0  0.59610  0.60520  0.67600  1.0000 0.6056181284
N   N1        1.0  0.13710  0.74980  0.67400  1.0000 -0.198187465
N   N2        1.0  0.16110  0.82130  0.72980  1.0000 -0.0564265271
N   N3        1.0  0.46080  0.74030  0.30380  1.0000 -0.183647005
N   N4        1.0  0.46330  0.80620  0.24030  1.0000 -0.0662268979
N   N5        1.0  0.86290  0.24980  0.82600  1.0000 -0.198187465
N   N6        1.0  0.83890  0.32130  0.77020  1.0000 -0.0564265271
N   N7        1.0  0.53920  0.24030  0.19620  1.0000 -0.183647005
N   N8        1.0  0.53670  0.30620  0.25970  1.0000 -0.0662268979
N   N9        1.0  0.86290  0.25020  0.32600  1.0000 -0.198187465
N   N10       1.0  0.83890  0.17870  0.27020  1.0000 -0.0564265271
N   N11       1.0  0.53920  0.25970  0.69620  1.0000 -0.183647005
N   N12       1.0  0.53670  0.19380  0.75970  1.0000 -0.0662268979
N   N13       1.0  0.13710  0.75020  0.17400  1.0000 -0.198187465
N   N14       1.0  0.16110  0.67870  0.22980  1.0000 -0.0564265271
N   N15       1.0  0.46080  0.75970  0.80380  1.0000 -0.183647005
N   N16       1.0  0.46330  0.69380  0.74030  1.0000 -0.0662268979
O   O1        1.0  0.84870  0.52356  0.47540  1.0000 -1.0193653313
O   O2        1.0  0.03550  0.60146  0.58230  1.0000 -0.5801468549
O   O3        1.0  0.65090  0.48232  0.52130  1.0000 -1.0193653313
O   O4        1.0  0.83680  0.47280  0.66330  1.0000 -0.5801468549
O   O5        1.0  0.69240  0.64429  0.47390  1.0000 -0.5595268912
O   O6        1.0  0.87610  0.64224  0.62370  1.0000 -0.5595268912
O   O7        1.0  0.69650  0.60152  0.67080  1.0000 -0.55262368
O   O8        1.0  0.48920  0.39440  0.56770  1.0000 -0.5722366479
O   O9        1.0  0.51620  0.56260  0.62380  1.0000 -0.5853356031
O   O10       1.0  0.00690  0.93160  0.88370  1.0000 -0.5595268912
O   O11       1.0  0.15130  0.02356  0.02460  1.0000 -1.0193653313
O   O12       1.0  0.96450  0.10146  0.91770  1.0000 -0.5801468549
O   O13       1.0  0.34910  0.98232  0.97870  1.0000 -1.0193653313
O   O14       1.0  0.16320  0.97280  0.83670  1.0000 -0.5801468549
O   O15       1.0  0.30760  0.14429  0.02610  1.0000 -0.5595268912
O   O16       1.0  0.12390  0.14224  0.87630  1.0000 -0.5595268912
O   O17       1.0  0.30350  0.10152  0.82920  1.0000 -0.55262368
O   O18       1.0  0.51080  0.89440  0.93230  1.0000 -0.5722366479
O   O19       1.0  0.48380  0.06260  0.87620  1.0000 -0.5853356031
O   O20       1.0  0.99310  0.43160  0.61630  1.0000 -0.5595268912
O   O21       1.0  0.15130  0.47644  0.52460  1.0000 -1.0193653313
O   O22       1.0  0.96450  0.39854  0.41770  1.0000 -0.5801468549
O   O23       1.0  0.34910  0.51768  0.47870  1.0000 -1.0193653313
O   O24       1.0  0.16320  0.52720  0.33670  1.0000 -0.5801468549
O   O25       1.0  0.30760  0.35571  0.52610  1.0000 -0.5595268912
O   O26       1.0  0.12390  0.35776  0.37630  1.0000 -0.5595268912
O   O27       1.0  0.30350  0.39848  0.32920  1.0000 -0.55262368
O   O28       1.0  0.51080  0.60560  0.43230  1.0000 -0.5722366479
O   O29       1.0  0.48380  0.43740  0.37620  1.0000 -0.5853356031
O   O30       1.0  0.99310  0.06840  0.11630  1.0000 -0.5595268912
O   O31       1.0  0.84870  0.97644  0.97540  1.0000 -1.0193653313
O   O32       1.0  0.03550  0.89854  0.08230  1.0000 -0.5801468549
O   O33       1.0  0.65090  0.01768  0.02130  1.0000 -1.0193653313
O   O34       1.0  0.83680  0.02720  0.16330  1.0000 -0.5801468549
O   O35       1.0  0.69240  0.85571  0.97390  1.0000 -0.5595268912
O   O36       1.0  0.87610  0.85776  0.12370  1.0000 -0.5595268912
O   O37       1.0  0.69650  0.89848  0.17080  1.0000 -0.55262368
O   O38       1.0  0.48920  0.10560  0.06770  1.0000 -0.5722366479
O   O39       1.0  0.51620  0.93740  0.12380  1.0000 -0.5853356031
O   O40       1.0  0.00690  0.56840  0.38370  1.0000 -0.5595268912
