# DDEC6 charges by PACMAN v1.1 (https://github.com/mtap-research/PACMAN-charge/)
data_2021[Co][nan]3[ASR]15
_chemical_formula_sum              "Co4 H40 C64 N16 O16"
_cell_length_a       10.217
_cell_length_b       10.2635
_cell_length_c       18.8505
_cell_angle_alpha    90
_cell_angle_beta     97.12
_cell_angle_gamma    90

_symmetry_space_group_name_H-M    "P 1"
_symmetry_Int_Tables_number       1

loop_
  _symmetry_equiv_pos_as_xyz
  'x, y, z'

loop_
  _atom_site_type_symbol
  _atom_site_label
  _atom_site_symmetry_multiplicity
  _atom_site_fract_x
  _atom_site_fract_y
  _atom_site_fract_z
  _atom_site_occupancy
  _atom_site_charge
Co  Co1       1.0  0.18470  0.89528  0.55539  1.0000 0.8676305867
Co  Co2       1.0  0.81530  0.39528  0.94461  1.0000 0.8676305867
Co  Co3       1.0  0.81530  0.10472  0.44461  1.0000 0.8676305867
Co  Co4       1.0  0.18470  0.60472  0.05539  1.0000 0.8676305867
H   H1        1.0  0.36736  0.08675  0.45979  1.0000 0.1407208263
H   H2        1.0  0.47267  0.33312  0.30825  1.0000 0.1407208263
H   H3        1.0  0.08853  0.30572  0.34234  1.0000 0.1407208263
H   H4        1.0  0.33681  0.53238  0.39937  1.0000 0.1325236417
H   H5        1.0  0.33567  0.66120  0.49812  1.0000 0.1139248393
H   H6        1.0  0.03000  0.85739  0.40716  1.0000 0.1139248393
H   H7        1.0  0.02105  0.73148  0.30591  1.0000 0.1407208263
H   H8        1.0  0.27883  0.31644  0.10204  1.0000 0.1806994423
H   H9        1.0  0.37387  0.28078  0.17336  1.0000 0.1654805995
H   H10       1.0  0.22737  0.22296  0.16064  1.0000 0.1595440812
H   H11       1.0  0.63264  0.58675  0.04021  1.0000 0.1407208263
H   H12       1.0  0.52733  0.83312  0.19175  1.0000 0.1407208263
H   H13       1.0  0.91147  0.80572  0.15766  1.0000 0.1407208263
H   H14       1.0  0.66319  0.03238  0.10063  1.0000 0.1325236417
H   H15       1.0  0.66433  0.16120  0.00188  1.0000 0.1139248393
H   H16       1.0  0.97000  0.35739  0.09284  1.0000 0.1139248393
H   H17       1.0  0.97895  0.23148  0.19409  1.0000 0.1407208263
H   H18       1.0  0.72117  0.81644  0.39796  1.0000 0.1806994423
H   H19       1.0  0.62613  0.78078  0.32664  1.0000 0.1654805995
H   H20       1.0  0.77263  0.72296  0.33936  1.0000 0.1595440812
H   H21       1.0  0.63264  0.91325  0.54021  1.0000 0.1407208263
H   H22       1.0  0.52733  0.66688  0.69175  1.0000 0.1407208263
H   H23       1.0  0.91147  0.69428  0.65766  1.0000 0.1407208263
H   H24       1.0  0.66319  0.46762  0.60063  1.0000 0.1325236417
H   H25       1.0  0.66433  0.33880  0.50188  1.0000 0.1139248393
H   H26       1.0  0.97000  0.14261  0.59284  1.0000 0.1139248393
H   H27       1.0  0.97895  0.26852  0.69409  1.0000 0.1407208263
H   H28       1.0  0.72117  0.68356  0.89796  1.0000 0.1806994423
H   H29       1.0  0.62613  0.71922  0.82664  1.0000 0.1654805995
H   H30       1.0  0.77263  0.77704  0.83936  1.0000 0.1595440812
H   H31       1.0  0.36736  0.41325  0.95979  1.0000 0.1407208263
H   H32       1.0  0.47267  0.16688  0.80825  1.0000 0.1407208263
H   H33       1.0  0.08853  0.19428  0.84234  1.0000 0.1407208263
H   H34       1.0  0.33681  0.96762  0.89937  1.0000 0.1325236417
H   H35       1.0  0.33567  0.83880  0.99812  1.0000 0.1139248393
H   H36       1.0  0.03000  0.64261  0.90716  1.0000 0.1139248393
H   H37       1.0  0.02105  0.76852  0.80591  1.0000 0.1407208263
H   H38       1.0  0.27883  0.18356  0.60204  1.0000 0.1806994423
H   H39       1.0  0.37387  0.21922  0.67336  1.0000 0.1654805995
H   H40       1.0  0.22737  0.27704  0.66064  1.0000 0.1595440812
C   C1        1.0  0.10810  0.13760  0.45030  1.0000 0.5778525329
C   C2        1.0  0.21170  0.19050  0.40830  1.0000 -0.002916761
C   C3        1.0  0.34350  0.15010  0.42370  1.0000 -0.1291724306
C   C4        1.0  0.43910  0.20370  0.38560  1.0000 0.0157545873
C   C5        1.0  0.58160  0.16320  0.40480  1.0000 0.5242177106
C   C6        1.0  0.40630  0.29540  0.33280  1.0000 -0.201519375
C   C7        1.0  0.27450  0.33220  0.31600  1.0000 0.1595440812
C   C8        1.0  0.17790  0.27990  0.35390  1.0000 -0.201519375
C   C9        1.0  0.27300  0.59970  0.39930  1.0000 -0.173581458
C   C10       1.0  0.27200  0.67720  0.45790  1.0000 0.0836715854
C   C11       1.0  0.09430  0.79100  0.40530  1.0000 0.0965434916
C   C12       1.0  0.08840  0.71640  0.34450  1.0000 -0.173581458
C   C13       1.0  0.18140  0.61870  0.33960  1.0000 0.0698907867
C   C14       1.0  0.18490  0.54930  0.27210  1.0000 0.2106516666
C   C15       1.0  0.23300  0.41460  0.18980  1.0000 0.3566054113
C   C16       1.0  0.28250  0.29870  0.15330  1.0000 -0.5206853293
C   C17       1.0  0.89190  0.63760  0.04970  1.0000 0.5778525329
C   C18       1.0  0.78830  0.69050  0.09170  1.0000 -0.002916761
C   C19       1.0  0.65650  0.65010  0.07630  1.0000 -0.1291724306
C   C20       1.0  0.56090  0.70370  0.11440  1.0000 0.0157545873
C   C21       1.0  0.41840  0.66320  0.09520  1.0000 0.5242177106
C   C22       1.0  0.59370  0.79540  0.16720  1.0000 -0.201519375
C   C23       1.0  0.72550  0.83220  0.18400  1.0000 0.1595440812
C   C24       1.0  0.82210  0.77990  0.14610  1.0000 -0.201519375
C   C25       1.0  0.72700  0.09970  0.10070  1.0000 -0.173581458
C   C26       1.0  0.72800  0.17720  0.04210  1.0000 0.0836715854
C   C27       1.0  0.90570  0.29100  0.09470  1.0000 0.0965434916
C   C28       1.0  0.91160  0.21640  0.15550  1.0000 -0.173581458
C   C29       1.0  0.81860  0.11870  0.16040  1.0000 0.0698907867
C   C30       1.0  0.81510  0.04930  0.22790  1.0000 0.2106516666
C   C31       1.0  0.76700  0.91460  0.31020  1.0000 0.3566054113
C   C32       1.0  0.71750  0.79870  0.34670  1.0000 -0.5206853293
C   C33       1.0  0.89190  0.86240  0.54970  1.0000 0.5778525329
C   C34       1.0  0.78830  0.80950  0.59170  1.0000 -0.002916761
C   C35       1.0  0.65650  0.84990  0.57630  1.0000 -0.1291724306
C   C36       1.0  0.56090  0.79630  0.61440  1.0000 0.0157545873
C   C37       1.0  0.41840  0.83680  0.59520  1.0000 0.5242177106
C   C38       1.0  0.59370  0.70460  0.66720  1.0000 -0.201519375
C   C39       1.0  0.72550  0.66780  0.68400  1.0000 0.1595440812
C   C40       1.0  0.82210  0.72010  0.64610  1.0000 -0.201519375
C   C41       1.0  0.72700  0.40030  0.60070  1.0000 -0.173581458
C   C42       1.0  0.72800  0.32280  0.54210  1.0000 0.0836715854
C   C43       1.0  0.90570  0.20900  0.59470  1.0000 0.0965434916
C   C44       1.0  0.91160  0.28360  0.65550  1.0000 -0.173581458
C   C45       1.0  0.81860  0.38130  0.66040  1.0000 0.0698907867
C   C46       1.0  0.81510  0.45070  0.72790  1.0000 0.2106516666
C   C47       1.0  0.76700  0.58540  0.81020  1.0000 0.3566054113
C   C48       1.0  0.71750  0.70130  0.84670  1.0000 -0.5206853293
C   C49       1.0  0.10810  0.36240  0.95030  1.0000 0.5778525329
C   C50       1.0  0.21170  0.30950  0.90830  1.0000 -0.002916761
C   C51       1.0  0.34350  0.34990  0.92370  1.0000 -0.1291724306
C   C52       1.0  0.43910  0.29630  0.88560  1.0000 0.0157545873
C   C53       1.0  0.58160  0.33680  0.90480  1.0000 0.5242177106
C   C54       1.0  0.40630  0.20460  0.83280  1.0000 -0.201519375
C   C55       1.0  0.27450  0.16780  0.81600  1.0000 0.1595440812
C   C56       1.0  0.17790  0.22010  0.85390  1.0000 -0.201519375
C   C57       1.0  0.27300  0.90030  0.89930  1.0000 -0.173581458
C   C58       1.0  0.27200  0.82280  0.95790  1.0000 0.0836715854
C   C59       1.0  0.09430  0.70900  0.90530  1.0000 0.0965434916
C   C60       1.0  0.08840  0.78360  0.84450  1.0000 -0.173581458
C   C61       1.0  0.18140  0.88130  0.83960  1.0000 0.0698907867
C   C62       1.0  0.18490  0.95070  0.77210  1.0000 0.2106516666
C   C63       1.0  0.23300  0.08540  0.68980  1.0000 0.3566054113
C   C64       1.0  0.28250  0.20130  0.65330  1.0000 -0.5206853293
N   N1        1.0  0.18530  0.77560  0.46190  1.0000 -0.2297499396
N   N2        1.0  0.14800  0.60390  0.21020  1.0000 -0.2297499396
N   N3        1.0  0.17980  0.51760  0.15830  1.0000 -0.2606825672
N   N4        1.0  0.23840  0.42920  0.26250  1.0000 -0.1291724306
N   N5        1.0  0.81470  0.27560  0.03810  1.0000 -0.2297499396
N   N6        1.0  0.85200  0.10390  0.28980  1.0000 -0.2297499396
N   N7        1.0  0.82020  0.01760  0.34170  1.0000 -0.2606825672
N   N8        1.0  0.76160  0.92920  0.23750  1.0000 -0.1291724306
N   N9        1.0  0.81470  0.22440  0.53810  1.0000 -0.2297499396
N   N10       1.0  0.85200  0.39610  0.78980  1.0000 -0.2297499396
N   N11       1.0  0.82020  0.48240  0.84170  1.0000 -0.2606825672
N   N12       1.0  0.76160  0.57080  0.73750  1.0000 -0.1291724306
N   N13       1.0  0.18530  0.72440  0.96190  1.0000 -0.2297499396
N   N14       1.0  0.14800  0.89610  0.71020  1.0000 -0.2297499396
N   N15       1.0  0.17980  0.98240  0.65830  1.0000 -0.2606825672
N   N16       1.0  0.23840  0.07080  0.76250  1.0000 -0.1291724306
O   O1        1.0  0.13960  0.05950  0.49940  1.0000 -0.5490969562
O   O2        1.0  0.99300  0.18100  0.43236  1.0000 -0.5348727249
O   O3        1.0  0.60790  0.06070  0.43860  1.0000 -0.5109785341
O   O4        1.0  0.67090  0.23830  0.38763  1.0000 -0.5422256731
O   O5        1.0  0.86040  0.55950  0.00060  1.0000 -0.5490969562
O   O6        1.0  0.00700  0.68100  0.06764  1.0000 -0.5348727249
O   O7        1.0  0.39210  0.56070  0.06140  1.0000 -0.5109785341
O   O8        1.0  0.32910  0.73830  0.11237  1.0000 -0.5422256731
O   O9        1.0  0.86040  0.94050  0.50060  1.0000 -0.5490969562
O   O10       1.0  0.00700  0.81900  0.56764  1.0000 -0.5422256731
O   O11       1.0  0.39210  0.93930  0.56140  1.0000 -0.5109785341
O   O12       1.0  0.32910  0.76170  0.61237  1.0000 -0.5422256731
O   O13       1.0  0.13960  0.44050  0.99940  1.0000 -0.5490969562
O   O14       1.0  0.99300  0.31900  0.93236  1.0000 -0.5348727249
O   O15       1.0  0.60790  0.43930  0.93860  1.0000 -0.5109785341
O   O16       1.0  0.67090  0.26170  0.88763  1.0000 -0.5422256731
