# DDEC6 charges by PACMAN v1.1 (https://github.com/mtap-research/PACMAN-charge/)
data_2022[Zn][hea]3[ASR]1
_chemical_formula_sum              "Zn6 H36 C84 S12 O24"
_cell_length_a       15.1496
_cell_length_b       15.1496
_cell_length_c       15.1496
_cell_angle_alpha    75.9937
_cell_angle_beta     75.9937
_cell_angle_gamma    75.9937

_symmetry_space_group_name_H-M    "P 1"
_symmetry_Int_Tables_number       1

loop_
  _symmetry_equiv_pos_as_xyz
  'x, y, z'

loop_
  _atom_site_type_symbol
  _atom_site_label
  _atom_site_symmetry_multiplicity
  _atom_site_fract_x
  _atom_site_fract_y
  _atom_site_fract_z
  _atom_site_occupancy
  _atom_site_charge
Zn  Zn1       1.0  0.09451  0.60375  0.86153  1.0000 0.9632824637
Zn  Zn2       1.0  0.60375  0.86153  0.09451  1.0000 0.9632824637
Zn  Zn3       1.0  0.86153  0.09451  0.60375  1.0000 0.9632824637
Zn  Zn4       1.0  0.90549  0.13847  0.39625  1.0000 0.9632824637
Zn  Zn5       1.0  0.39625  0.90549  0.13847  1.0000 0.9632824637
Zn  Zn6       1.0  0.13847  0.39625  0.90549  1.0000 0.9632824637
H   H1        1.0  0.78678  0.63169  0.94461  1.0000 0.1324522323
H   H2        1.0  0.63516  0.64014  0.93622  1.0000 0.1212899298
H   H3        1.0  0.71834  0.41762  0.81685  1.0000 0.1103376624
H   H4        1.0  0.51363  0.66243  0.86735  1.0000 0.1103376624
H   H5        1.0  0.43177  0.38679  0.87172  1.0000 0.1212899298
H   H6        1.0  0.58071  0.38793  0.87938  1.0000 0.1212899298
H   H7        1.0  0.63169  0.94461  0.78678  1.0000 0.1324522323
H   H8        1.0  0.64014  0.93622  0.63516  1.0000 0.1212899298
H   H9        1.0  0.41762  0.81685  0.71834  1.0000 0.1103376624
H   H10       1.0  0.66243  0.86735  0.51363  1.0000 0.1103376624
H   H11       1.0  0.38679  0.87172  0.43177  1.0000 0.1212899298
H   H12       1.0  0.38793  0.87938  0.58071  1.0000 0.1212899298
H   H13       1.0  0.94461  0.78678  0.63169  1.0000 0.1324522323
H   H14       1.0  0.93622  0.63516  0.64014  1.0000 0.1212899298
H   H15       1.0  0.81685  0.71834  0.41762  1.0000 0.1103376624
H   H16       1.0  0.86735  0.51363  0.66243  1.0000 0.1103376624
H   H17       1.0  0.87172  0.43177  0.38679  1.0000 0.1212899298
H   H18       1.0  0.87938  0.58071  0.38793  1.0000 0.1212899298
H   H19       1.0  0.21322  0.05539  0.36831  1.0000 0.1324522323
H   H20       1.0  0.36484  0.06378  0.35986  1.0000 0.1212899298
H   H21       1.0  0.28166  0.18315  0.58238  1.0000 0.1103376624
H   H22       1.0  0.48637  0.13265  0.33757  1.0000 0.1103376624
H   H23       1.0  0.56823  0.12828  0.61321  1.0000 0.1212899298
H   H24       1.0  0.41929  0.12062  0.61207  1.0000 0.1212899298
H   H25       1.0  0.36831  0.21322  0.05539  1.0000 0.1324522323
H   H26       1.0  0.35986  0.36484  0.06378  1.0000 0.1212899298
H   H27       1.0  0.58238  0.28166  0.18315  1.0000 0.1103376624
H   H28       1.0  0.33757  0.48637  0.13265  1.0000 0.1103376624
H   H29       1.0  0.61321  0.56823  0.12828  1.0000 0.1212899298
H   H30       1.0  0.61207  0.41929  0.12062  1.0000 0.1212899298
H   H31       1.0  0.05539  0.36831  0.21322  1.0000 0.1324522323
H   H32       1.0  0.06378  0.35986  0.36484  1.0000 0.1212899298
H   H33       1.0  0.18315  0.58238  0.28166  1.0000 0.1103376624
H   H34       1.0  0.13265  0.33757  0.48637  1.0000 0.1103376624
H   H35       1.0  0.12828  0.61321  0.56823  1.0000 0.1212899298
H   H36       1.0  0.12062  0.61207  0.41929  1.0000 0.1212899298
C   C1        1.0  0.94304  0.51924  0.89264  1.0000 0.5999577619
C   C2        1.0  0.84477  0.52117  0.88587  1.0000 -0.0694832079
C   C3        1.0  0.77302  0.58812  0.91872  1.0000 -0.0883537516
C   C4        1.0  0.68162  0.59312  0.91482  1.0000 -0.1496018902
C   C5        1.0  0.66020  0.52650  0.87830  1.0000 0.0923085072
C   C6        1.0  0.73243  0.46063  0.84323  1.0000 -0.2138281437
C   C7        1.0  0.82495  0.45555  0.84555  1.0000 0.0485778689
C   C8        1.0  0.56353  0.52593  0.87513  1.0000 0.0923085072
C   C9        1.0  0.49674  0.60664  0.86994  1.0000 -0.1999155703
C   C10       1.0  0.40535  0.60685  0.86845  1.0000 0.0485778689
C   C11       1.0  0.38046  0.52346  0.86966  1.0000 -0.0783362858
C   C12       1.0  0.44768  0.44218  0.87238  1.0000 -0.0883537516
C   C13       1.0  0.53711  0.44301  0.87611  1.0000 -0.1496018902
C   C14       1.0  0.28419  0.51689  0.86669  1.0000 0.5999577619
C   C15       1.0  0.51924  0.89264  0.94304  1.0000 0.5999577619
C   C16       1.0  0.52117  0.88587  0.84477  1.0000 -0.0694832079
C   C17       1.0  0.58812  0.91872  0.77302  1.0000 -0.0883537516
C   C18       1.0  0.59312  0.91482  0.68162  1.0000 -0.1496018902
C   C19       1.0  0.52650  0.87830  0.66020  1.0000 0.0923085072
C   C20       1.0  0.46063  0.84323  0.73243  1.0000 -0.2138281437
C   C21       1.0  0.45555  0.84555  0.82495  1.0000 0.0485778689
C   C22       1.0  0.52593  0.87513  0.56353  1.0000 0.0923085072
C   C23       1.0  0.60664  0.86994  0.49674  1.0000 -0.1999155703
C   C24       1.0  0.60685  0.86845  0.40535  1.0000 0.0485778689
C   C25       1.0  0.52346  0.86966  0.38046  1.0000 -0.0783362858
C   C26       1.0  0.44218  0.87238  0.44768  1.0000 -0.0883537516
C   C27       1.0  0.44301  0.87611  0.53711  1.0000 -0.1496018902
C   C28       1.0  0.51689  0.86669  0.28419  1.0000 0.5999577619
C   C29       1.0  0.89264  0.94304  0.51924  1.0000 0.5999577619
C   C30       1.0  0.88587  0.84477  0.52117  1.0000 -0.0694832079
C   C31       1.0  0.91872  0.77302  0.58812  1.0000 -0.0883537516
C   C32       1.0  0.91482  0.68162  0.59312  1.0000 -0.1496018902
C   C33       1.0  0.87830  0.66020  0.52650  1.0000 0.0923085072
C   C34       1.0  0.84323  0.73243  0.46063  1.0000 -0.2138281437
C   C35       1.0  0.84555  0.82495  0.45555  1.0000 0.0485778689
C   C36       1.0  0.87513  0.56353  0.52593  1.0000 0.0923085072
C   C37       1.0  0.86994  0.49674  0.60664  1.0000 -0.1999155703
C   C38       1.0  0.86845  0.40535  0.60685  1.0000 0.0485778689
C   C39       1.0  0.86966  0.38046  0.52346  1.0000 -0.0783362858
C   C40       1.0  0.87238  0.44768  0.44218  1.0000 -0.0883537516
C   C41       1.0  0.87611  0.53711  0.44301  1.0000 -0.1496018902
C   C42       1.0  0.86669  0.28419  0.51689  1.0000 0.5999577619
C   C43       1.0  0.05696  0.10736  0.48076  1.0000 0.5999577619
C   C44       1.0  0.15523  0.11413  0.47883  1.0000 -0.0694832079
C   C45       1.0  0.22698  0.08128  0.41188  1.0000 -0.0883537516
C   C46       1.0  0.31838  0.08518  0.40688  1.0000 -0.1496018902
C   C47       1.0  0.33980  0.12170  0.47350  1.0000 0.0923085072
C   C48       1.0  0.26757  0.15677  0.53937  1.0000 -0.2138281437
C   C49       1.0  0.17505  0.15445  0.54445  1.0000 0.0485778689
C   C50       1.0  0.43647  0.12487  0.47407  1.0000 0.0923085072
C   C51       1.0  0.50326  0.13006  0.39336  1.0000 -0.1999155703
C   C52       1.0  0.59465  0.13155  0.39315  1.0000 0.0485778689
C   C53       1.0  0.61954  0.13034  0.47654  1.0000 -0.0783362858
C   C54       1.0  0.55232  0.12762  0.55782  1.0000 -0.0883537516
C   C55       1.0  0.46289  0.12389  0.55699  1.0000 -0.1496018902
C   C56       1.0  0.71581  0.13331  0.48311  1.0000 0.5999577619
C   C57       1.0  0.48076  0.05696  0.10736  1.0000 0.5999577619
C   C58       1.0  0.47883  0.15523  0.11413  1.0000 -0.0694832079
C   C59       1.0  0.41188  0.22698  0.08128  1.0000 -0.0883537516
C   C60       1.0  0.40688  0.31838  0.08518  1.0000 -0.1496018902
C   C61       1.0  0.47350  0.33980  0.12170  1.0000 0.0923085072
C   C62       1.0  0.53937  0.26757  0.15677  1.0000 -0.2138281437
C   C63       1.0  0.54445  0.17505  0.15445  1.0000 0.0485778689
C   C64       1.0  0.47407  0.43647  0.12487  1.0000 0.0923085072
C   C65       1.0  0.39336  0.50326  0.13006  1.0000 -0.1999155703
C   C66       1.0  0.39315  0.59465  0.13155  1.0000 0.0485778689
C   C67       1.0  0.47654  0.61954  0.13034  1.0000 -0.0783362858
C   C68       1.0  0.55782  0.55232  0.12762  1.0000 -0.0883537516
C   C69       1.0  0.55699  0.46289  0.12389  1.0000 -0.1496018902
C   C70       1.0  0.48311  0.71581  0.13331  1.0000 0.5999577619
C   C71       1.0  0.10736  0.48076  0.05696  1.0000 0.5999577619
C   C72       1.0  0.11413  0.47883  0.15523  1.0000 -0.0694832079
C   C73       1.0  0.08128  0.41188  0.22698  1.0000 -0.0883537516
C   C74       1.0  0.08518  0.40688  0.31838  1.0000 -0.1496018902
C   C75       1.0  0.12170  0.47350  0.33980  1.0000 0.0923085072
C   C76       1.0  0.15677  0.53937  0.26757  1.0000 -0.2138281437
C   C77       1.0  0.15445  0.54445  0.17505  1.0000 0.0485778689
C   C78       1.0  0.12487  0.47407  0.43647  1.0000 0.0923085072
C   C79       1.0  0.13006  0.39336  0.50326  1.0000 -0.1999155703
C   C80       1.0  0.13155  0.39315  0.59465  1.0000 0.0485778689
C   C81       1.0  0.13034  0.47654  0.61954  1.0000 -0.0783362858
C   C82       1.0  0.12762  0.55782  0.55232  1.0000 -0.0883537516
C   C83       1.0  0.12389  0.55699  0.46289  1.0000 -0.1496018902
C   C84       1.0  0.13331  0.48311  0.71581  1.0000 0.5999577619
S   S1        1.0  0.91750  0.37338  0.79596  1.0000 0.0123697332
S   S2        1.0  0.32174  0.71304  0.86261  1.0000 0.0231536946
S   S3        1.0  0.37338  0.79596  0.91750  1.0000 0.0123697332
S   S4        1.0  0.71304  0.86261  0.32174  1.0000 0.0231536946
S   S5        1.0  0.79596  0.91750  0.37338  1.0000 0.0123697332
S   S6        1.0  0.86261  0.32174  0.71304  1.0000 0.0231536946
S   S7        1.0  0.08250  0.20404  0.62662  1.0000 0.0123697332
S   S8        1.0  0.67826  0.13739  0.28696  1.0000 0.0231536946
S   S9        1.0  0.62662  0.08250  0.20404  1.0000 0.0123697332
S   S10       1.0  0.28696  0.67826  0.13739  1.0000 0.0231536946
S   S11       1.0  0.20404  0.62662  0.08250  1.0000 0.0123697332
S   S12       1.0  0.13739  0.28696  0.67826  1.0000 0.0231536946
O   O1        1.0  0.96064  0.59514  0.89364  1.0000 -0.532468096
O   O2        1.0  0.99689  0.44219  0.89949  1.0000 -0.532468096
O   O3        1.0  0.23236  0.59086  0.83696  1.0000 -0.532468096
O   O4        1.0  0.26163  0.43843  0.89613  1.0000 -0.5626127345
O   O5        1.0  0.59514  0.89364  0.96064  1.0000 -0.532468096
O   O6        1.0  0.44219  0.89949  0.99689  1.0000 -0.532468096
O   O7        1.0  0.59086  0.83696  0.23236  1.0000 -0.532468096
O   O8        1.0  0.43843  0.89613  0.26163  1.0000 -0.5626127345
O   O9        1.0  0.89364  0.96064  0.59514  1.0000 -0.532468096
O   O10       1.0  0.89949  0.99689  0.44219  1.0000 -0.532468096
O   O11       1.0  0.83696  0.23236  0.59086  1.0000 -0.532468096
O   O12       1.0  0.89613  0.26163  0.43843  1.0000 -0.5626127345
O   O13       1.0  0.03936  0.10636  0.40486  1.0000 -0.532468096
O   O14       1.0  0.00311  0.10051  0.55781  1.0000 -0.532468096
O   O15       1.0  0.76764  0.16304  0.40914  1.0000 -0.532468096
O   O16       1.0  0.73837  0.10387  0.56157  1.0000 -0.5626127345
O   O17       1.0  0.40486  0.03936  0.10636  1.0000 -0.532468096
O   O18       1.0  0.55781  0.00311  0.10051  1.0000 -0.532468096
O   O19       1.0  0.40914  0.76764  0.16304  1.0000 -0.532468096
O   O20       1.0  0.56157  0.73837  0.10387  1.0000 -0.5626127345
O   O21       1.0  0.10636  0.40486  0.03936  1.0000 -0.532468096
O   O22       1.0  0.10051  0.55781  0.00311  1.0000 -0.532468096
O   O23       1.0  0.16304  0.40914  0.76764  1.0000 -0.532468096
O   O24       1.0  0.10387  0.56157  0.73837  1.0000 -0.5626127345
