# DDEC6 charges by PACMAN v1.1 (https://github.com/mtap-research/PACMAN-charge/)
data_2022[Eu][kgd]2[ASR]1
_chemical_formula_sum              "Eu10 H120 C132 N24 O72"
_cell_length_a       13.7577
_cell_length_b       13.7577
_cell_length_c       41.76
_cell_angle_alpha    90
_cell_angle_beta     90
_cell_angle_gamma    120

_symmetry_space_group_name_H-M    "P 1"
_symmetry_Int_Tables_number       1

loop_
  _symmetry_equiv_pos_as_xyz
  'x, y, z'

loop_
  _atom_site_type_symbol
  _atom_site_label
  _atom_site_symmetry_multiplicity
  _atom_site_fract_x
  _atom_site_fract_y
  _atom_site_fract_z
  _atom_site_occupancy
  _atom_site_charge
Eu  Eu1       1.0  0.33333  0.66667  0.57441  1.0000 1.9805328497
Eu  Eu2       1.0  0.66667  0.33333  0.92559  1.0000 1.9805328497
Eu  Eu3       1.0  0.83575  0.00000  0.75000  1.0000 1.993362829
Eu  Eu4       1.0  0.16425  0.16425  0.75000  1.0000 1.993362829
Eu  Eu5       1.0  0.00000  0.83575  0.75000  1.0000 1.993362829
Eu  Eu6       1.0  0.66667  0.33333  0.42559  1.0000 1.9805328497
Eu  Eu7       1.0  0.33333  0.66667  0.07441  1.0000 1.9805328497
Eu  Eu8       1.0  0.16425  0.00000  0.25000  1.0000 1.993362829
Eu  Eu9       1.0  0.83575  0.83575  0.25000  1.0000 1.993362829
Eu  Eu10      1.0  0.00000  0.16425  0.25000  1.0000 1.993362829
H   H1        1.0  0.62895  0.80243  0.65868  1.0000 0.109929445
H   H2        1.0  0.66268  0.61455  0.59073  1.0000 0.1041217781
H   H3        1.0  0.88436  0.73985  0.66309  1.0000 0.1041217781
H   H4        1.0  0.73393  0.49794  0.57771  1.0000 0.1041217781
H   H5        1.0  0.00247  0.69926  0.62888  1.0000 0.109929445
H   H6        1.0  0.03697  0.57661  0.59553  1.0000 0.2589811309
H   H7        1.0  0.58853  0.83509  0.78116  1.0000 0.236449475
H   H8        1.0  0.60988  0.75074  0.75284  1.0000 0.3018204196
H   H9        1.0  0.63132  0.01204  0.78706  1.0000 0.3506047699
H   H10       1.0  0.57909  0.86649  0.77832  1.0000 0.2458342958
H   H11       1.0  0.17348  0.37105  0.65868  1.0000 0.109929445
H   H12       1.0  0.95187  0.33732  0.59073  1.0000 0.1041217781
H   H13       1.0  0.85549  0.11564  0.66309  1.0000 0.1041217781
H   H14       1.0  0.76401  0.26607  0.57771  1.0000 0.1041217781
H   H15       1.0  0.69679  0.99753  0.62888  1.0000 0.109929445
H   H16       1.0  0.53964  0.96303  0.59553  1.0000 0.2589811309
H   H17       1.0  0.24656  0.41147  0.78116  1.0000 0.236449475
H   H18       1.0  0.14086  0.39012  0.75284  1.0000 0.3018204196
H   H19       1.0  0.38072  0.36868  0.78706  1.0000 0.3506047699
H   H20       1.0  0.28740  0.42091  0.77832  1.0000 0.2458342958
H   H21       1.0  0.19757  0.82652  0.65868  1.0000 0.109929445
H   H22       1.0  0.38545  0.04813  0.59073  1.0000 0.1041217781
H   H23       1.0  0.26015  0.14451  0.66309  1.0000 0.1041217781
H   H24       1.0  0.50206  0.23599  0.57771  1.0000 0.1041217781
H   H25       1.0  0.30074  0.30321  0.62888  1.0000 0.109929445
H   H26       1.0  0.42339  0.46036  0.59553  1.0000 0.2589811309
H   H27       1.0  0.16491  0.75344  0.78116  1.0000 0.236449475
H   H28       1.0  0.24926  0.85914  0.75284  1.0000 0.3018204196
H   H29       1.0  0.98796  0.61928  0.78706  1.0000 0.3506047699
H   H30       1.0  0.13351  0.71260  0.77832  1.0000 0.2458342958
H   H31       1.0  0.82652  0.19757  0.84132  1.0000 0.109929445
H   H32       1.0  0.04813  0.38545  0.90927  1.0000 0.1041217781
H   H33       1.0  0.14451  0.26015  0.83691  1.0000 0.1041217781
H   H34       1.0  0.23599  0.50206  0.92229  1.0000 0.1041217781
H   H35       1.0  0.30321  0.30074  0.87112  1.0000 0.109929445
H   H36       1.0  0.46036  0.42339  0.90447  1.0000 0.2589811309
H   H37       1.0  0.75344  0.16491  0.71884  1.0000 0.236449475
H   H38       1.0  0.85914  0.24926  0.74716  1.0000 0.3018204196
H   H39       1.0  0.61928  0.98796  0.71294  1.0000 0.3506047699
H   H40       1.0  0.71260  0.13351  0.72168  1.0000 0.2458342958
H   H41       1.0  0.80243  0.62895  0.84132  1.0000 0.109929445
H   H42       1.0  0.61455  0.66268  0.90927  1.0000 0.109929445
H   H43       1.0  0.73985  0.88436  0.83691  1.0000 0.1041217781
H   H44       1.0  0.49794  0.73393  0.92229  1.0000 0.1041217781
H   H45       1.0  0.69926  0.00247  0.87112  1.0000 0.109929445
H   H46       1.0  0.57661  0.03697  0.90447  1.0000 0.2589811309
H   H47       1.0  0.83509  0.58853  0.71884  1.0000 0.236449475
H   H48       1.0  0.75074  0.60988  0.74716  1.0000 0.3018204196
H   H49       1.0  0.01204  0.63132  0.71294  1.0000 0.3506047699
H   H50       1.0  0.86649  0.57909  0.72168  1.0000 0.2458342958
H   H51       1.0  0.37105  0.17348  0.84132  1.0000 0.109929445
H   H52       1.0  0.33732  0.95187  0.90927  1.0000 0.109929445
H   H53       1.0  0.11564  0.85549  0.83691  1.0000 0.1041217781
H   H54       1.0  0.26607  0.76401  0.92229  1.0000 0.1041217781
H   H55       1.0  0.99753  0.69679  0.87112  1.0000 0.109929445
H   H56       1.0  0.96303  0.53964  0.90447  1.0000 0.2589811309
H   H57       1.0  0.41147  0.24656  0.71884  1.0000 0.236449475
H   H58       1.0  0.39012  0.14086  0.74716  1.0000 0.3018204196
H   H59       1.0  0.36868  0.38072  0.71294  1.0000 0.3506047699
H   H60       1.0  0.42091  0.28740  0.72168  1.0000 0.2458342958
H   H61       1.0  0.37105  0.19757  0.34132  1.0000 0.109929445
H   H62       1.0  0.33732  0.38545  0.40927  1.0000 0.1041217781
H   H63       1.0  0.11564  0.26015  0.33691  1.0000 0.1041217781
H   H64       1.0  0.26607  0.50206  0.42229  1.0000 0.1041217781
H   H65       1.0  0.99753  0.30074  0.37112  1.0000 0.109929445
H   H66       1.0  0.96303  0.42339  0.40447  1.0000 0.2589811309
H   H67       1.0  0.41147  0.16491  0.21884  1.0000 0.236449475
H   H68       1.0  0.39012  0.24926  0.24716  1.0000 0.3018204196
H   H69       1.0  0.36868  0.98796  0.21294  1.0000 0.3506047699
H   H70       1.0  0.42091  0.13351  0.22168  1.0000 0.2458342958
H   H71       1.0  0.82652  0.62895  0.34132  1.0000 0.109929445
H   H72       1.0  0.04813  0.66268  0.40927  1.0000 0.1041217781
H   H73       1.0  0.14451  0.88436  0.33691  1.0000 0.1041217781
H   H74       1.0  0.23599  0.73393  0.42229  1.0000 0.1041217781
H   H75       1.0  0.30321  0.00247  0.37112  1.0000 0.109929445
H   H76       1.0  0.46036  0.03697  0.40447  1.0000 0.2589811309
H   H77       1.0  0.75344  0.58853  0.21884  1.0000 0.236449475
H   H78       1.0  0.85914  0.60988  0.24716  1.0000 0.3018204196
H   H79       1.0  0.61928  0.63132  0.21294  1.0000 0.3506047699
H   H80       1.0  0.71260  0.57909  0.22168  1.0000 0.2458342958
H   H81       1.0  0.80243  0.17348  0.34132  1.0000 0.109929445
H   H82       1.0  0.61455  0.95187  0.40927  1.0000 0.1041217781
H   H83       1.0  0.73985  0.85549  0.33691  1.0000 0.1041217781
H   H84       1.0  0.49794  0.76401  0.42229  1.0000 0.1041217781
H   H85       1.0  0.69926  0.69679  0.37112  1.0000 0.109929445
H   H86       1.0  0.57661  0.53964  0.40447  1.0000 0.2589811309
H   H87       1.0  0.83509  0.24656  0.21884  1.0000 0.236449475
H   H88       1.0  0.75074  0.14086  0.24716  1.0000 0.3018204196
H   H89       1.0  0.01204  0.38072  0.21294  1.0000 0.3506047699
H   H90       1.0  0.86649  0.28740  0.22168  1.0000 0.2458342958
H   H91       1.0  0.17348  0.80243  0.15868  1.0000 0.109929445
H   H92       1.0  0.95187  0.61455  0.09073  1.0000 0.1041217781
H   H93       1.0  0.85549  0.73985  0.16309  1.0000 0.1041217781
H   H94       1.0  0.76401  0.49794  0.07771  1.0000 0.1041217781
H   H95       1.0  0.69679  0.69926  0.12888  1.0000 0.109929445
H   H96       1.0  0.53964  0.57661  0.09553  1.0000 0.2589811309
H   H97       1.0  0.24656  0.83509  0.28116  1.0000 0.236449475
H   H98       1.0  0.14086  0.75074  0.25284  1.0000 0.3018204196
H   H99       1.0  0.38072  0.01204  0.28706  1.0000 0.3506047699
H   H100      1.0  0.28740  0.86649  0.27832  1.0000 0.2458342958
H   H101      1.0  0.19757  0.37105  0.15868  1.0000 0.109929445
H   H102      1.0  0.38545  0.33732  0.09073  1.0000 0.1041217781
H   H103      1.0  0.26015  0.11564  0.16309  1.0000 0.1041217781
H   H104      1.0  0.50206  0.26607  0.07771  1.0000 0.1041217781
H   H105      1.0  0.30074  0.99753  0.12888  1.0000 0.109929445
H   H106      1.0  0.42339  0.96303  0.09553  1.0000 0.2589811309
H   H107      1.0  0.16491  0.41147  0.28116  1.0000 0.236449475
H   H108      1.0  0.24926  0.39012  0.25284  1.0000 0.3018204196
H   H109      1.0  0.98796  0.36868  0.28706  1.0000 0.3506047699
H   H110      1.0  0.13351  0.42091  0.27832  1.0000 0.2458342958
H   H111      1.0  0.62895  0.82652  0.15868  1.0000 0.109929445
H   H112      1.0  0.66268  0.04813  0.09073  1.0000 0.1041217781
H   H113      1.0  0.88436  0.14451  0.16309  1.0000 0.1041217781
H   H114      1.0  0.73393  0.23599  0.07771  1.0000 0.1041217781
H   H115      1.0  0.00247  0.30321  0.12888  1.0000 0.109929445
H   H116      1.0  0.03697  0.46036  0.09553  1.0000 0.2589811309
H   H117      1.0  0.58853  0.75344  0.28116  1.0000 0.236449475
H   H118      1.0  0.60988  0.85914  0.25284  1.0000 0.3018204196
H   H119      1.0  0.63132  0.61928  0.28706  1.0000 0.3506047699
H   H120      1.0  0.57909  0.71260  0.27832  1.0000 0.2458342958
C   C1        1.0  0.76290  0.78150  0.66550  1.0000 -0.0155357371
C   C2        1.0  0.66760  0.76900  0.65020  1.0000 -0.1607947116
C   C3        1.0  0.63010  0.70650  0.62220  1.0000 -0.0387383112
C   C4        1.0  0.68780  0.65640  0.60950  1.0000 -0.1607947116
C   C5        1.0  0.78310  0.66900  0.62480  1.0000 0.0775048185
C   C6        1.0  0.82060  0.73150  0.65280  1.0000 -0.2082772604
C   C7        1.0  0.78860  0.84610  0.69760  1.0000 0.5703997387
C   C8        1.0  0.52990  0.69500  0.60590  1.0000 0.5703997387
C   C9        1.0  0.84500  0.61710  0.60860  1.0000 -0.0387383112
C   C10       1.0  0.80580  0.53100  0.58630  1.0000 -0.1016445062
C   C11       1.0  0.95280  0.64450  0.61480  1.0000 -0.1166754143
C   C12       1.0  0.01860  0.23710  0.66550  1.0000 -0.0155357371
C   C13       1.0  0.10140  0.33240  0.65020  1.0000 -0.1607947116
C   C14       1.0  0.07640  0.36990  0.62220  1.0000 -0.0387383112
C   C15       1.0  0.96860  0.31220  0.60950  1.0000 -0.1607947116
C   C16       1.0  0.88590  0.21690  0.62480  1.0000 0.0775048185
C   C17       1.0  0.91090  0.17940  0.65280  1.0000 -0.2082772604
C   C18       1.0  0.05750  0.21140  0.69760  1.0000 0.5703997387
C   C19       1.0  0.16510  0.47010  0.60590  1.0000 0.5703997387
C   C20       1.0  0.77210  0.15500  0.60860  1.0000 -0.0387383112
C   C21       1.0  0.72520  0.19420  0.58630  1.0000 -0.1016445062
C   C22       1.0  0.69170  0.04720  0.61480  1.0000 -0.1166754143
C   C23       1.0  0.21850  0.98140  0.66550  1.0000 -0.0155357371
C   C24       1.0  0.23100  0.89860  0.65020  1.0000 -0.1607947116
C   C25       1.0  0.29350  0.92360  0.62220  1.0000 -0.0387383112
C   C26       1.0  0.34360  0.03140  0.60950  1.0000 -0.1607947116
C   C27       1.0  0.33100  0.11410  0.62480  1.0000 0.0775048185
C   C28       1.0  0.26850  0.08910  0.65280  1.0000 -0.2082772604
C   C29       1.0  0.15390  0.94250  0.69760  1.0000 0.5703997387
C   C30       1.0  0.30500  0.83490  0.60590  1.0000 0.5703997387
C   C31       1.0  0.38290  0.22790  0.60860  1.0000 -0.0387383112
C   C32       1.0  0.46900  0.27480  0.58630  1.0000 -0.1016445062
C   C33       1.0  0.35550  0.30830  0.61480  1.0000 -0.1166754143
C   C34       1.0  0.98140  0.21850  0.83450  1.0000 -0.0155357371
C   C35       1.0  0.89860  0.23100  0.84980  1.0000 -0.1607947116
C   C36       1.0  0.92360  0.29350  0.87780  1.0000 -0.0387383112
C   C37       1.0  0.03140  0.34360  0.89050  1.0000 -0.1607947116
C   C38       1.0  0.11410  0.33100  0.87520  1.0000 0.0775048185
C   C39       1.0  0.08910  0.26850  0.84720  1.0000 -0.2082772604
C   C40       1.0  0.94250  0.15390  0.80240  1.0000 0.5703997387
C   C41       1.0  0.83490  0.30500  0.89410  1.0000 0.5703997387
C   C42       1.0  0.22790  0.38290  0.89140  1.0000 -0.0387383112
C   C43       1.0  0.27480  0.46900  0.91370  1.0000 -0.1016445062
C   C44       1.0  0.30830  0.35550  0.88520  1.0000 -0.1166754143
C   C45       1.0  0.78150  0.76290  0.83450  1.0000 -0.0155357371
C   C46       1.0  0.76900  0.66760  0.84980  1.0000 -0.1607947116
C   C47       1.0  0.70650  0.63010  0.87780  1.0000 -0.0387383112
C   C48       1.0  0.65640  0.68780  0.89050  1.0000 -0.1607947116
C   C49       1.0  0.66900  0.78310  0.87520  1.0000 0.0775048185
C   C50       1.0  0.73150  0.82060  0.84720  1.0000 -0.2082772604
C   C51       1.0  0.84610  0.78860  0.80240  1.0000 0.5703997387
C   C52       1.0  0.69500  0.52990  0.89410  1.0000 0.5703997387
C   C53       1.0  0.61710  0.84500  0.89140  1.0000 -0.0387383112
C   C54       1.0  0.53100  0.80580  0.91370  1.0000 -0.1016445062
C   C55       1.0  0.64450  0.95280  0.88520  1.0000 -0.1166754143
C   C56       1.0  0.23710  0.01860  0.83450  1.0000 -0.0155357371
C   C57       1.0  0.33240  0.10140  0.84980  1.0000 -0.1607947116
C   C58       1.0  0.36990  0.07640  0.87780  1.0000 -0.0387383112
C   C59       1.0  0.31220  0.96860  0.89050  1.0000 -0.1607947116
C   C60       1.0  0.21690  0.88590  0.87520  1.0000 0.0775048185
C   C61       1.0  0.17940  0.91090  0.84720  1.0000 -0.2082772604
C   C62       1.0  0.21140  0.05750  0.80240  1.0000 0.5703997387
C   C63       1.0  0.47010  0.16510  0.89410  1.0000 0.5703997387
C   C64       1.0  0.15500  0.77210  0.89140  1.0000 -0.0387383112
C   C65       1.0  0.19420  0.72520  0.91370  1.0000 -0.1016445062
C   C66       1.0  0.04720  0.69170  0.88520  1.0000 -0.1166754143
C   C67       1.0  0.23710  0.21850  0.33450  1.0000 -0.0155357371
C   C68       1.0  0.33240  0.23100  0.34980  1.0000 -0.1650447897
C   C69       1.0  0.36990  0.29350  0.37780  1.0000 -0.0387383112
C   C70       1.0  0.31220  0.34360  0.39050  1.0000 -0.1607947116
C   C71       1.0  0.21690  0.33100  0.37520  1.0000 0.0775048185
C   C72       1.0  0.17940  0.26850  0.34720  1.0000 -0.2082772604
C   C73       1.0  0.21140  0.15390  0.30240  1.0000 0.5703997387
C   C74       1.0  0.47010  0.30500  0.39410  1.0000 0.5703997387
C   C75       1.0  0.15500  0.38290  0.39140  1.0000 -0.0387383112
C   C76       1.0  0.19420  0.46900  0.41370  1.0000 -0.1016445062
C   C77       1.0  0.04720  0.35550  0.38520  1.0000 -0.1166754143
C   C78       1.0  0.98140  0.76290  0.33450  1.0000 -0.0155357371
C   C79       1.0  0.89860  0.66760  0.34980  1.0000 -0.1607947116
C   C80       1.0  0.92360  0.63010  0.37780  1.0000 -0.0387383112
C   C81       1.0  0.03140  0.68780  0.39050  1.0000 -0.1607947116
C   C82       1.0  0.11410  0.78310  0.37520  1.0000 0.0775048185
C   C83       1.0  0.08910  0.82060  0.34720  1.0000 -0.2082772604
C   C84       1.0  0.94250  0.78860  0.30240  1.0000 0.5703997387
C   C85       1.0  0.83490  0.52990  0.39410  1.0000 0.5703997387
C   C86       1.0  0.22790  0.84500  0.39140  1.0000 -0.0387383112
C   C87       1.0  0.27480  0.80580  0.41370  1.0000 -0.1016445062
C   C88       1.0  0.30830  0.95280  0.38520  1.0000 -0.1166754143
C   C89       1.0  0.78150  0.01860  0.33450  1.0000 -0.0155357371
C   C90       1.0  0.76900  0.10140  0.34980  1.0000 -0.1607947116
C   C91       1.0  0.70650  0.07640  0.37780  1.0000 -0.0387383112
C   C92       1.0  0.65640  0.96860  0.39050  1.0000 -0.1607947116
C   C93       1.0  0.66900  0.88590  0.37520  1.0000 0.0775048185
C   C94       1.0  0.73150  0.91090  0.34720  1.0000 -0.2082772604
C   C95       1.0  0.84610  0.05750  0.30240  1.0000 0.5703997387
C   C96       1.0  0.69500  0.16510  0.39410  1.0000 0.5703997387
C   C97       1.0  0.61710  0.77210  0.39140  1.0000 -0.0387383112
C   C98       1.0  0.53100  0.72520  0.41370  1.0000 -0.1016445062
C   C99       1.0  0.64450  0.69170  0.38520  1.0000 -0.1166754143
C   C100      1.0  0.01860  0.78150  0.16550  1.0000 -0.0155357371
C   C101      1.0  0.10140  0.76900  0.15020  1.0000 -0.1650447897
C   C102      1.0  0.07640  0.70650  0.12220  1.0000 -0.0387383112
C   C103      1.0  0.96860  0.65640  0.10950  1.0000 -0.1607947116
C   C104      1.0  0.88590  0.66900  0.12480  1.0000 0.0775048185
C   C105      1.0  0.91090  0.73150  0.15280  1.0000 -0.2082772604
C   C106      1.0  0.05750  0.84610  0.19760  1.0000 0.5703997387
C   C107      1.0  0.16510  0.69500  0.10590  1.0000 0.5703997387
C   C108      1.0  0.77210  0.61710  0.10860  1.0000 -0.0387383112
C   C109      1.0  0.72520  0.53100  0.08630  1.0000 -0.1016445062
C   C110      1.0  0.69170  0.64450  0.11480  1.0000 -0.1166754143
C   C111      1.0  0.21850  0.23710  0.16550  1.0000 -0.0155357371
C   C112      1.0  0.23100  0.33240  0.15020  1.0000 -0.1607947116
C   C113      1.0  0.29350  0.36990  0.12220  1.0000 -0.0387383112
C   C114      1.0  0.34360  0.31220  0.10950  1.0000 -0.1607947116
C   C115      1.0  0.33100  0.21690  0.12480  1.0000 0.0775048185
C   C116      1.0  0.26850  0.17940  0.15280  1.0000 -0.2082772604
C   C117      1.0  0.15390  0.21140  0.19760  1.0000 0.5703997387
C   C118      1.0  0.30500  0.47010  0.10590  1.0000 0.5703997387
C   C119      1.0  0.38290  0.15500  0.10860  1.0000 -0.0387383112
C   C120      1.0  0.46900  0.19420  0.08630  1.0000 -0.1016445062
C   C121      1.0  0.35550  0.04720  0.11480  1.0000 -0.1166754143
C   C122      1.0  0.76290  0.98140  0.16550  1.0000 -0.0155357371
C   C123      1.0  0.66760  0.89860  0.15020  1.0000 -0.1607947116
C   C124      1.0  0.63010  0.92360  0.12220  1.0000 -0.0387383112
C   C125      1.0  0.68780  0.03140  0.10950  1.0000 -0.1607947116
C   C126      1.0  0.78310  0.11410  0.12480  1.0000 0.0775048185
C   C127      1.0  0.82060  0.08910  0.15280  1.0000 -0.2082772604
C   C128      1.0  0.78860  0.94250  0.19760  1.0000 0.5703997387
C   C129      1.0  0.52990  0.83490  0.10590  1.0000 0.5703997387
C   C130      1.0  0.84500  0.22790  0.10860  1.0000 -0.0387383112
C   C131      1.0  0.80580  0.27480  0.08630  1.0000 -0.1016445062
C   C132      1.0  0.95280  0.30830  0.11480  1.0000 -0.1166754143
N   N1        1.0  0.97320  0.57400  0.59600  1.0000 -0.0597261024
N   N2        1.0  0.88150  0.49880  0.57810  1.0000 -0.2016688475
N   N3        1.0  0.60080  0.02680  0.59600  1.0000 -0.0597261024
N   N4        1.0  0.61730  0.11850  0.57810  1.0000 -0.2016688475
N   N5        1.0  0.42600  0.39920  0.59600  1.0000 -0.0597261024
N   N6        1.0  0.50120  0.38270  0.57810  1.0000 -0.2016688475
N   N7        1.0  0.39920  0.42600  0.90400  1.0000 -0.0597261024
N   N8        1.0  0.38270  0.50120  0.92190  1.0000 -0.2016688475
N   N9        1.0  0.57400  0.97320  0.90400  1.0000 -0.0597261024
N   N10       1.0  0.49880  0.88150  0.92190  1.0000 -0.2016688475
N   N11       1.0  0.02680  0.60080  0.90400  1.0000 -0.0597261024
N   N12       1.0  0.11850  0.61730  0.92190  1.0000 -0.2016688475
N   N13       1.0  0.02680  0.42600  0.40400  1.0000 -0.0597261024
N   N14       1.0  0.11850  0.50120  0.42190  1.0000 -0.2016688475
N   N15       1.0  0.39920  0.97320  0.40400  1.0000 -0.0597261024
N   N16       1.0  0.38270  0.88150  0.42190  1.0000 -0.2016688475
N   N17       1.0  0.57400  0.60080  0.40400  1.0000 -0.0597261024
N   N18       1.0  0.49880  0.61730  0.42190  1.0000 -0.2016688475
N   N19       1.0  0.60080  0.57400  0.09600  1.0000 -0.0597261024
N   N20       1.0  0.61730  0.49880  0.07810  1.0000 -0.2016688475
N   N21       1.0  0.42600  0.02680  0.09600  1.0000 -0.0597261024
N   N22       1.0  0.50120  0.11850  0.07810  1.0000 -0.2016688475
N   N23       1.0  0.97320  0.39920  0.09600  1.0000 -0.0597261024
N   N24       1.0  0.88150  0.38270  0.07810  1.0000 -0.2016688475
O   O1        1.0  0.48590  0.62430  0.58325  1.0000 -0.6922604592
O   O2        1.0  0.48930  0.75610  0.61400  1.0000 -0.6346289865
O   O3        1.0  0.75170  0.91520  0.69660  1.0000 -0.6804675213
O   O4        1.0  0.86480  0.85790  0.71750  1.0000 -0.793915406
O   O5        1.0  0.65290  0.83990  0.76300  1.0000 -0.4483681633
O   O6        1.0  0.65800  0.95300  0.77520  1.0000 -0.4483681633
O   O7        1.0  0.13840  0.51410  0.58325  1.0000 -0.6922604592
O   O8        1.0  0.26680  0.51070  0.61400  1.0000 -0.6356084895
O   O9        1.0  0.16350  0.24830  0.69660  1.0000 -0.6804675213
O   O10       1.0  0.99310  0.13520  0.71750  1.0000 -0.793915406
O   O11       1.0  0.18700  0.34710  0.76300  1.0000 -0.4483681633
O   O12       1.0  0.29500  0.34200  0.77520  1.0000 -0.4483681633
O   O13       1.0  0.37570  0.86160  0.58325  1.0000 -0.6922604592
O   O14       1.0  0.24390  0.73320  0.61400  1.0000 -0.6346289865
O   O15       1.0  0.08480  0.83650  0.69660  1.0000 -0.6804675213
O   O16       1.0  0.14210  0.00690  0.71750  1.0000 -0.793915406
O   O17       1.0  0.16010  0.81300  0.76300  1.0000 -0.4483681633
O   O18       1.0  0.04700  0.70500  0.77520  1.0000 -0.4483681633
O   O19       1.0  0.86160  0.37570  0.91675  1.0000 -0.6922604592
O   O20       1.0  0.73320  0.24390  0.88600  1.0000 -0.6356084895
O   O21       1.0  0.83650  0.08480  0.80340  1.0000 -0.6804675213
O   O22       1.0  0.00690  0.14210  0.78250  1.0000 -0.793915406
O   O23       1.0  0.81300  0.16010  0.73700  1.0000 -0.4483681633
O   O24       1.0  0.70500  0.04700  0.72480  1.0000 -0.4483681633
O   O25       1.0  0.62430  0.48590  0.91675  1.0000 -0.6922604592
O   O26       1.0  0.75610  0.48930  0.88600  1.0000 -0.6356084895
O   O27       1.0  0.91520  0.75170  0.80340  1.0000 -0.6804675213
O   O28       1.0  0.85790  0.86480  0.78250  1.0000 -0.793915406
O   O29       1.0  0.83990  0.65290  0.73700  1.0000 -0.4483681633
O   O30       1.0  0.95300  0.65800  0.72480  1.0000 -0.4483681633
O   O31       1.0  0.51410  0.13840  0.91675  1.0000 -0.6922604592
O   O32       1.0  0.51070  0.26680  0.88600  1.0000 -0.6356084895
O   O33       1.0  0.24830  0.16350  0.80340  1.0000 -0.6804675213
O   O34       1.0  0.13520  0.99310  0.78250  1.0000 -0.793915406
O   O35       1.0  0.34710  0.18700  0.73700  1.0000 -0.4483681633
O   O36       1.0  0.34200  0.29500  0.72480  1.0000 -0.4483681633
O   O37       1.0  0.51410  0.37570  0.41675  1.0000 -0.6922604592
O   O38       1.0  0.51070  0.24390  0.38600  1.0000 -0.6356084895
O   O39       1.0  0.24830  0.08480  0.30340  1.0000 -0.6804675213
O   O40       1.0  0.13520  0.14210  0.28250  1.0000 -0.793915406
O   O41       1.0  0.34710  0.16010  0.23700  1.0000 -0.4483681633
O   O42       1.0  0.34200  0.04700  0.22480  1.0000 -0.4483681633
O   O43       1.0  0.86160  0.48590  0.41675  1.0000 -0.6922604592
O   O44       1.0  0.73320  0.48930  0.38600  1.0000 -0.6356084895
O   O45       1.0  0.83650  0.75170  0.30340  1.0000 -0.6804675213
O   O46       1.0  0.00690  0.86480  0.28250  1.0000 -0.793915406
O   O47       1.0  0.81300  0.65290  0.23700  1.0000 -0.4483681633
O   O48       1.0  0.70500  0.65800  0.22480  1.0000 -0.4483681633
O   O49       1.0  0.62430  0.13840  0.41675  1.0000 -0.6922604592
O   O50       1.0  0.75610  0.26680  0.38600  1.0000 -0.6356084895
O   O51       1.0  0.91520  0.16350  0.30340  1.0000 -0.6804675213
O   O52       1.0  0.85790  0.99310  0.28250  1.0000 -0.793915406
O   O53       1.0  0.83990  0.18700  0.23700  1.0000 -0.4483681633
O   O54       1.0  0.95300  0.29500  0.22480  1.0000 -0.4483681633
O   O55       1.0  0.13840  0.62430  0.08325  1.0000 -0.6922604592
O   O56       1.0  0.26680  0.75610  0.11400  1.0000 -0.6346289865
O   O57       1.0  0.16350  0.91520  0.19660  1.0000 -0.6804675213
O   O58       1.0  0.99310  0.85790  0.21750  1.0000 -0.793915406
O   O59       1.0  0.18700  0.83990  0.26300  1.0000 -0.4483681633
O   O60       1.0  0.29500  0.95300  0.27520  1.0000 -0.4483681633
O   O61       1.0  0.37570  0.51410  0.08325  1.0000 -0.6922604592
O   O62       1.0  0.24390  0.51070  0.11400  1.0000 -0.6356084895
O   O63       1.0  0.08480  0.24830  0.19660  1.0000 -0.6804675213
O   O64       1.0  0.14210  0.13520  0.21750  1.0000 -0.793915406
O   O65       1.0  0.16010  0.34710  0.26300  1.0000 -0.4483681633
O   O66       1.0  0.04700  0.34200  0.27520  1.0000 -0.4483681633
O   O67       1.0  0.48590  0.86160  0.08325  1.0000 -0.6922604592
O   O68       1.0  0.48930  0.73320  0.11400  1.0000 -0.6356084895
O   O69       1.0  0.75170  0.83650  0.19660  1.0000 -0.6804675213
O   O70       1.0  0.86480  0.00690  0.21750  1.0000 -0.793915406
O   O71       1.0  0.65290  0.81300  0.26300  1.0000 -0.4483681633
O   O72       1.0  0.65800  0.70500  0.27520  1.0000 -0.4483681633
