# DDEC6 charges by PACMAN v1.1 (https://github.com/mtap-research/PACMAN-charge/)
data_2022[Cd][tfz]3[ASR]1
_chemical_formula_sum              "Cd9 H108 C162 N12 O36"
_cell_length_a       14.3515
_cell_length_b       14.3515
_cell_length_c       25.8427
_cell_angle_alpha    90
_cell_angle_beta     90
_cell_angle_gamma    120

_symmetry_space_group_name_H-M    "P 1"
_symmetry_Int_Tables_number       1

loop_
  _symmetry_equiv_pos_as_xyz
  'x, y, z'

loop_
  _atom_site_type_symbol
  _atom_site_label
  _atom_site_symmetry_multiplicity
  _atom_site_fract_x
  _atom_site_fract_y
  _atom_site_fract_z
  _atom_site_occupancy
  _atom_site_charge
Cd  Cd1       1.0  0.98210  0.81295  0.55479  1.0000 0.8941351626
Cd  Cd2       1.0  0.12476  0.63655  0.78194  1.0000 0.8844675078
Cd  Cd3       1.0  0.94020  0.59723  0.65702  1.0000 1.0609134887
Cd  Cd4       1.0  0.83085  0.01790  0.22146  1.0000 0.8941351626
Cd  Cd5       1.0  0.51179  0.87524  0.44861  1.0000 0.8844675078
Cd  Cd6       1.0  0.65703  0.05980  0.32369  1.0000 1.0609134887
Cd  Cd7       1.0  0.18705  0.16915  0.88812  1.0000 0.8941351626
Cd  Cd8       1.0  0.36345  0.48821  0.11527  1.0000 0.8844675078
Cd  Cd9       1.0  0.40277  0.34297  0.99035  1.0000 1.0609134887
H   H1        1.0  0.01616  0.79222  0.43192  1.0000 0.1119698286
H   H2        1.0  0.18566  0.68626  0.65068  1.0000 0.1209913794
H   H3        1.0  0.79484  0.86964  0.81461  1.0000 0.1209913794
H   H4        1.0  0.01019  0.85488  0.68475  1.0000 0.1209913794
H   H5        1.0  0.46542  0.67567  0.72593  1.0000 0.1209913794
H   H6        1.0  0.28104  0.17600  0.54563  1.0000 0.1209913794
H   H7        1.0  0.28675  0.60443  0.66713  1.0000 0.1295022436
H   H8        1.0  0.87495  0.76144  0.82425  1.0000 0.1209913794
H   H9        1.0  0.01772  0.15234  0.61368  1.0000 0.1209913794
H   H10       1.0  0.47266  0.66270  0.57090  1.0000 0.1295022436
H   H11       1.0  0.91893  0.94876  0.67183  1.0000 0.1399977882
H   H12       1.0  0.14439  0.59021  0.50381  1.0000 0.1209913794
H   H13       1.0  0.67751  0.74184  0.43121  1.0000 0.1509524588
H   H14       1.0  0.92402  0.75398  0.35503  1.0000 0.1295022436
H   H15       1.0  0.66667  0.03591  0.77471  1.0000 0.1209913794
H   H16       1.0  0.66862  0.72334  0.24036  1.0000 0.1399977882
H   H17       1.0  0.11481  0.33873  0.62545  1.0000 0.1295022436
H   H18       1.0  0.41593  0.49475  0.31719  1.0000 0.1295022436
H   H19       1.0  0.32814  0.43299  0.23799  1.0000 0.1119698286
H   H20       1.0  0.65435  0.72911  0.57677  1.0000 0.1209913794
H   H21       1.0  0.37375  0.34899  0.56361  1.0000 0.1295022436
H   H22       1.0  0.22839  0.49461  0.52092  1.0000 0.1209913794
H   H23       1.0  0.77433  0.78337  0.50363  1.0000 0.1119698286
H   H24       1.0  0.60752  0.50388  0.67803  1.0000 0.1295022436
H   H25       1.0  0.64784  0.77393  0.70875  1.0000 0.1295022436
H   H26       1.0  0.04454  0.30692  0.76466  1.0000 0.1209913794
H   H27       1.0  0.96576  0.12218  0.77505  1.0000 0.1295022436
H   H28       1.0  0.73844  0.07683  0.67120  1.0000 0.1209913794
H   H29       1.0  0.81722  0.26157  0.66080  1.0000 0.1209913794
H   H30       1.0  0.48047  0.94283  0.78207  1.0000 0.1209913794
H   H31       1.0  0.73608  0.78689  0.32047  1.0000 0.1295022436
H   H32       1.0  0.76478  0.69619  0.31181  1.0000 0.1119698286
H   H33       1.0  0.57332  0.65852  0.16586  1.0000 0.1119698286
H   H34       1.0  0.41884  0.42625  0.67121  1.0000 0.1295022436
H   H35       1.0  0.58124  0.66872  0.36029  1.0000 0.1209913794
H   H36       1.0  0.61040  0.57777  0.35459  1.0000 0.1209913794
H   H37       1.0  0.77606  0.98384  0.09859  1.0000 0.1119698286
H   H38       1.0  0.50060  0.81434  0.31735  1.0000 0.1209913794
H   H39       1.0  0.07480  0.20516  0.48128  1.0000 0.1209913794
H   H40       1.0  0.84469  0.98981  0.35142  1.0000 0.1209913794
H   H41       1.0  0.21025  0.53458  0.39260  1.0000 0.1209913794
H   H42       1.0  0.89496  0.71896  0.21230  1.0000 0.1209913794
H   H43       1.0  0.31768  0.71325  0.33380  1.0000 0.1295022436
H   H44       1.0  0.88649  0.12505  0.49092  1.0000 0.1209913794
H   H45       1.0  0.13462  0.98228  0.28035  1.0000 0.1209913794
H   H46       1.0  0.19004  0.52734  0.23757  1.0000 0.1295022436
H   H47       1.0  0.02983  0.08107  0.33850  1.0000 0.1399977882
H   H48       1.0  0.44582  0.85561  0.17048  1.0000 0.1209913794
H   H49       1.0  0.06433  0.32249  0.09788  1.0000 0.1509524588
H   H50       1.0  0.82996  0.07598  0.02170  1.0000 0.1295022436
H   H51       1.0  0.36924  0.33333  0.44138  1.0000 0.1209913794
H   H52       1.0  0.05472  0.33138  0.90703  1.0000 0.1399977882
H   H53       1.0  0.22392  0.88519  0.29212  1.0000 0.1295022436
H   H54       1.0  0.07882  0.58407  0.98386  1.0000 0.1295022436
H   H55       1.0  0.10485  0.67186  0.90466  1.0000 0.1119698286
H   H56       1.0  0.07476  0.34565  0.24344  1.0000 0.1209913794
H   H57       1.0  0.97524  0.62625  0.23028  1.0000 0.1295022436
H   H58       1.0  0.26622  0.77161  0.18759  1.0000 0.1209913794
H   H59       1.0  0.00904  0.22567  0.17030  1.0000 0.1119698286
H   H60       1.0  0.89636  0.39248  0.34470  1.0000 0.1295022436
H   H61       1.0  0.12609  0.35216  0.37542  1.0000 0.1295022436
H   H62       1.0  0.26238  0.95546  0.43133  1.0000 0.1209913794
H   H63       1.0  0.15642  0.03424  0.44172  1.0000 0.1295022436
H   H64       1.0  0.33839  0.26156  0.33787  1.0000 0.1209913794
H   H65       1.0  0.44435  0.18278  0.32747  1.0000 0.1209913794
H   H66       1.0  0.46236  0.51953  0.44874  1.0000 0.1209913794
H   H67       1.0  0.05081  0.26392  0.98714  1.0000 0.1295022436
H   H68       1.0  0.93141  0.23522  0.97848  1.0000 0.1119698286
H   H69       1.0  0.08520  0.42668  0.83253  1.0000 0.1119698286
H   H70       1.0  0.00741  0.58116  0.33788  1.0000 0.1295022436
H   H71       1.0  0.08748  0.41876  0.02696  1.0000 0.1209913794
H   H72       1.0  0.96737  0.38960  0.02126  1.0000 0.1209913794
H   H73       1.0  0.20778  0.22394  0.76525  1.0000 0.1119698286
H   H74       1.0  0.31374  0.49940  0.98401  1.0000 0.1209913794
H   H75       1.0  0.13036  0.92520  0.14794  1.0000 0.1209913794
H   H76       1.0  0.14512  0.15531  0.01808  1.0000 0.1209913794
H   H77       1.0  0.32433  0.78975  0.05926  1.0000 0.1209913794
H   H78       1.0  0.82400  0.10504  0.87896  1.0000 0.1209913794
H   H79       1.0  0.39557  0.68232  0.00046  1.0000 0.1295022436
H   H80       1.0  0.23856  0.11351  0.15758  1.0000 0.1209913794
H   H81       1.0  0.84766  0.86538  0.94701  1.0000 0.1209913794
H   H82       1.0  0.33730  0.80996  0.90423  1.0000 0.1295022436
H   H83       1.0  0.05124  0.97017  0.00516  1.0000 0.1399977882
H   H84       1.0  0.40979  0.55418  0.83714  1.0000 0.1209913794
H   H85       1.0  0.25816  0.93567  0.76454  1.0000 0.1509524588
H   H86       1.0  0.24602  0.17004  0.68836  1.0000 0.1295022436
H   H87       1.0  0.96409  0.63076  0.10804  1.0000 0.1209913794
H   H88       1.0  0.27666  0.94528  0.57369  1.0000 0.1399977882
H   H89       1.0  0.66127  0.77608  0.95878  1.0000 0.1295022436
H   H90       1.0  0.50525  0.92118  0.65052  1.0000 0.1295022436
H   H91       1.0  0.56701  0.89515  0.57132  1.0000 0.1119698286
H   H92       1.0  0.27089  0.92524  0.91010  1.0000 0.1209913794
H   H93       1.0  0.65101  0.02476  0.89694  1.0000 0.1295022436
H   H94       1.0  0.50539  0.73378  0.85425  1.0000 0.1209913794
H   H95       1.0  0.21663  0.99096  0.83696  1.0000 0.1119698286
H   H96       1.0  0.49612  0.10364  0.01136  1.0000 0.1295022436
H   H97       1.0  0.22607  0.87391  0.04208  1.0000 0.1295022436
H   H98       1.0  0.69308  0.73762  0.09799  1.0000 0.1209913794
H   H99       1.0  0.87782  0.84358  0.10838  1.0000 0.1295022436
H   H100      1.0  0.92317  0.66161  0.00453  1.0000 0.1209913794
H   H101      1.0  0.73843  0.55565  0.99413  1.0000 0.1209913794
H   H102      1.0  0.05717  0.53764  0.11540  1.0000 0.1209913794
H   H103      1.0  0.21311  0.94919  0.65380  1.0000 0.1295022436
H   H104      1.0  0.30381  0.06859  0.64514  1.0000 0.1119698286
H   H105      1.0  0.34148  0.91480  0.49919  1.0000 0.1119698286
H   H106      1.0  0.57375  0.99259  0.00454  1.0000 0.1295022436
H   H107      1.0  0.33128  0.91252  0.69362  1.0000 0.1209913794
H   H108      1.0  0.42223  0.03263  0.68792  1.0000 0.1119698286
C   C1        1.0  0.16060  0.65320  0.57510  1.0000 -0.0649131309
C   C2        1.0  0.13740  0.14130  0.57880  1.0000 -0.0334570373
C   C3        1.0  0.33510  0.74010  0.76560  1.0000 0.5088757728
C   C4        1.0  0.94750  0.78360  0.43160  1.0000 0.0775633682
C   C5        1.0  0.00940  0.73840  0.76410  1.0000 0.5530211781
C   C6        1.0  0.67790  0.91230  0.74190  1.0000 0.1937266145
C   C7        1.0  0.95340  0.80060  0.75580  1.0000 -0.0394194122
C   C8        1.0  0.19870  0.65090  0.62390  1.0000 -0.1171302344
C   C9        1.0  0.09760  0.70670  0.56510  1.0000 0.5449503515
C   C10       1.0  0.83530  0.86340  0.78820  1.0000 -0.1812534477
C   C11       1.0  0.96540  0.85560  0.71060  1.0000 -0.0999441838
C   C12       1.0  0.84860  0.91550  0.73990  1.0000 0.1615866427
C   C13       1.0  0.50480  0.74790  0.73510  1.0000 -0.0999441838
C   C14       1.0  0.24740  0.20740  0.56340  1.0000 -0.0999441838
C   C15       1.0  0.25520  0.59860  0.63500  1.0000 -0.1692313101
C   C16       1.0  0.07690  0.02240  0.56930  1.0000 0.5181665872
C   C17       1.0  0.88630  0.80160  0.79430  1.0000 -0.0785416882
C   C18       1.0  0.42700  0.52760  0.61410  1.0000 0.195687354
C   C19       1.0  0.08900  0.19190  0.60290  1.0000 -0.0999441838
C   C20       1.0  0.49890  0.62570  0.58990  1.0000 -0.1894430484
C   C21       1.0  0.26240  0.53730  0.59570  1.0000 0.1725002904
C   C22       1.0  0.91110  0.91270  0.70290  1.0000 -0.1629603724
C   C23       1.0  0.25730  0.36250  0.59770  1.0000 0.1769871344
C   C24       1.0  0.17150  0.59230  0.53670  1.0000 -0.0739059816
C   C25       1.0  0.74760  0.75440  0.42990  1.0000 -0.1629603724
C   C26       1.0  0.78800  0.74910  0.38680  1.0000 0.1509524588
C   C27       1.0  0.45430  0.79890  0.75810  1.0000 -0.0460238415
C   C28       1.0  0.89390  0.76120  0.38560  1.0000 -0.2100299444
C   C29       1.0  0.62690  0.96460  0.76410  1.0000 -0.2100299444
C   C30       1.0  0.55790  0.60880  0.28670  1.0000 0.1725002904
C   C31       1.0  0.64900  0.61540  0.62490  1.0000 -0.0785416882
C   C32       1.0  0.60050  0.66250  0.24110  1.0000 -0.1812534477
C   C33       1.0  0.14830  0.30360  0.61110  1.0000 -0.1894430484
C   C34       1.0  0.45110  0.52680  0.28640  1.0000 -0.2170232381
C   C35       1.0  0.76390  0.65270  0.62510  1.0000 0.584749863
C   C36       1.0  0.39680  0.49300  0.23850  1.0000 0.0945502673
C   C37       1.0  0.60740  0.66640  0.59440  1.0000 -0.0897530213
C   C38       1.0  0.30180  0.31010  0.57340  1.0000 -0.1692313101
C   C39       1.0  0.22150  0.53540  0.54700  1.0000 -0.1692313101
C   C40       1.0  0.80570  0.77780  0.47320  1.0000 0.0359871205
C   C41       1.0  0.98030  0.42390  0.71140  1.0000 0.5861013983
C   C42       1.0  0.57970  0.53200  0.65410  1.0000 -0.0785416882
C   C43       1.0  0.61520  0.80690  0.72610  1.0000 -0.1894430484
C   C44       1.0  0.93870  0.30260  0.71170  1.0000 -0.0394194122
C   C45       1.0  0.98320  0.26080  0.74590  1.0000 -0.0999441838
C   C46       1.0  0.93600  0.15010  0.75220  1.0000 -0.1894430484
C   C47       1.0  0.84430  0.08120  0.72420  1.0000 0.1769871344
C   C48       1.0  0.79980  0.12300  0.68990  1.0000 -0.1894430484
C   C49       1.0  0.84700  0.23360  0.68370  1.0000 -0.0897530213
C   C50       1.0  0.51510  0.90710  0.76990  1.0000 -0.0999441838
C   C51       1.0  0.72950  0.72170  0.33520  1.0000 -0.2287706232
C   C52       1.0  0.54100  0.62480  0.19680  1.0000 0.0652389903
C   C53       1.0  0.46510  0.48380  0.65040  1.0000 -0.2009761329
C   C54       1.0  0.61690  0.64150  0.33810  1.0000 -0.243962064
C   C55       1.0  0.49260  0.83940  0.24177  1.0000 -0.0649131309
C   C56       1.0  0.00390  0.86260  0.24547  1.0000 -0.0334570373
C   C57       1.0  0.40500  0.66490  0.43227  1.0000 0.5088757728
C   C58       1.0  0.83610  0.05250  0.09827  1.0000 0.0775633682
C   C59       1.0  0.72900  0.99060  0.43077  1.0000 0.5530211781
C   C60       1.0  0.23440  0.32210  0.40857  1.0000 0.1937266145
C   C61       1.0  0.84720  0.04660  0.42247  1.0000 -0.0394194122
C   C62       1.0  0.45220  0.80130  0.29057  1.0000 -0.1171302344
C   C63       1.0  0.60910  0.90240  0.23177  1.0000 0.5449503515
C   C64       1.0  0.02810  0.16470  0.45487  1.0000 -0.1812534477
C   C65       1.0  0.89020  0.03460  0.37727  1.0000 -0.0999441838
C   C66       1.0  0.06690  0.15140  0.40657  1.0000 0.1615866427
C   C67       1.0  0.24310  0.49520  0.40177  1.0000 -0.0999441838
C   C68       1.0  0.96000  0.75260  0.23007  1.0000 -0.0999441838
C   C69       1.0  0.34340  0.74480  0.30167  1.0000 -0.1692313101
C   C70       1.0  0.94550  0.92310  0.23597  1.0000 0.5181665872
C   C71       1.0  0.91530  0.11370  0.46097  1.0000 -0.0785416882
C   C72       1.0  0.10060  0.57300  0.28077  1.0000 0.195687354
C   C73       1.0  0.10290  0.91100  0.26957  1.0000 -0.0999441838
C   C74       1.0  0.12680  0.50110  0.25657  1.0000 -0.1894430484
C   C75       1.0  0.27490  0.73760  0.26237  1.0000 0.1725002904
C   C76       1.0  0.00160  0.08890  0.36957  1.0000 -0.1629603724
C   C77       1.0  0.10520  0.74270  0.26437  1.0000 0.1769871344
C   C78       1.0  0.42080  0.82850  0.20337  1.0000 -0.0739059816
C   C79       1.0  0.00680  0.25240  0.09657  1.0000 -0.1629603724
C   C80       1.0  0.96110  0.21200  0.05347  1.0000 0.1509524588
C   C81       1.0  0.34460  0.54570  0.42477  1.0000 -0.0460238415
C   C82       1.0  0.86730  0.10610  0.05227  1.0000 -0.2100299444
C   C83       1.0  0.33770  0.37310  0.43077  1.0000 -0.2100299444
C   C84       1.0  0.05090  0.44210  0.95337  1.0000 0.1725002904
C   C85       1.0  0.96640  0.35100  0.29157  1.0000 -0.0785416882
C   C86       1.0  0.06200  0.39950  0.90777  1.0000 -0.1812534477
C   C87       1.0  0.15530  0.85170  0.27777  1.0000 -0.1894430484
C   C88       1.0  0.07570  0.54890  0.95307  1.0000 -0.2170232381
C   C89       1.0  0.88880  0.23610  0.29177  1.0000 0.584749863
C   C90       1.0  0.09620  0.60320  0.90517  1.0000 0.0945502673
C   C91       1.0  0.05900  0.39260  0.26107  1.0000 -0.0897530213
C   C92       1.0  0.00830  0.69820  0.24007  1.0000 -0.1692313101
C   C93       1.0  0.31390  0.77850  0.21367  1.0000 -0.1692313101
C   C94       1.0  0.97210  0.19430  0.13987  1.0000 0.0359871205
C   C95       1.0  0.44360  0.01970  0.37807  1.0000 0.5861013983
C   C96       1.0  0.95230  0.42030  0.32077  1.0000 -0.0785416882
C   C97       1.0  0.19170  0.38480  0.39277  1.0000 -0.1894430484
C   C98       1.0  0.36390  0.06130  0.37837  1.0000 -0.0394194122
C   C99       1.0  0.27760  0.01680  0.41257  1.0000 -0.0999441838
C   C100      1.0  0.21410  0.06400  0.41887  1.0000 -0.1894430484
C   C101      1.0  0.23690  0.15570  0.39087  1.0000 0.1769871344
C   C102      1.0  0.32320  0.20020  0.35657  1.0000 -0.1894430484
C   C103      1.0  0.38660  0.15300  0.35037  1.0000 -0.0897530213
C   C104      1.0  0.39200  0.48490  0.43657  1.0000 -0.0999441838
C   C105      1.0  0.99220  0.27050  0.00187  1.0000 -0.2287706232
C   C106      1.0  0.08380  0.45900  0.86347  1.0000 0.0652389903
C   C107      1.0  0.01870  0.53490  0.31707  1.0000 -0.2009761329
C   C108      1.0  0.02460  0.38310  0.00477  1.0000 -0.243962064
C   C109      1.0  0.34680  0.50740  0.90843  1.0000 -0.0649131309
C   C110      1.0  0.85870  0.99610  0.91213  1.0000 -0.0334570373
C   C111      1.0  0.25990  0.59500  0.09893  1.0000 0.5088757728
C   C112      1.0  0.21640  0.16390  0.76493  1.0000 0.0775633682
C   C113      1.0  0.26160  0.27100  0.09743  1.0000 0.5530211781
C   C114      1.0  0.08770  0.76560  0.07523  1.0000 0.1937266145
C   C115      1.0  0.19940  0.15280  0.08913  1.0000 -0.0394194122
C   C116      1.0  0.34910  0.54780  0.95723  1.0000 -0.1171302344
C   C117      1.0  0.29330  0.39090  0.89843  1.0000 0.5449503515
C   C118      1.0  0.13660  0.97190  0.12153  1.0000 -0.1812534477
C   C119      1.0  0.14440  0.10980  0.04393  1.0000 -0.0999441838
C   C120      1.0  0.08450  0.93310  0.07323  1.0000 0.1615866427
C   C121      1.0  0.25210  0.75690  0.06843  1.0000 -0.0999441838
C   C122      1.0  0.79260  0.04000  0.89673  1.0000 -0.0999441838
C   C123      1.0  0.40140  0.65660  0.96833  1.0000 -0.1692313101
C   C124      1.0  0.97760  0.05450  0.90263  1.0000 0.5181665872
C   C125      1.0  0.19840  0.08470  0.12763  1.0000 -0.0785416882
C   C126      1.0  0.47240  0.89940  0.94743  1.0000 0.195687354
C   C127      1.0  0.80810  0.89710  0.93623  1.0000 -0.0999441838
C   C128      1.0  0.37430  0.87320  0.92323  1.0000 -0.1894430484
C   C129      1.0  0.46270  0.72510  0.92903  1.0000 0.1725002904
C   C130      1.0  0.08730  0.99840  0.03623  1.0000 -0.1629603724
C   C131      1.0  0.63750  0.89480  0.93103  1.0000 0.1769871344
C   C132      1.0  0.40770  0.57920  0.87003  1.0000 -0.0739059816
C   C133      1.0  0.24560  0.99320  0.76323  1.0000 -0.1629603724
C   C134      1.0  0.25090  0.03890  0.72013  1.0000 0.1509524588
C   C135      1.0  0.20110  0.65540  0.09143  1.0000 -0.0460238415
C   C136      1.0  0.23880  0.13270  0.71893  1.0000 -0.2100299444
C   C137      1.0  0.03540  0.66230  0.09743  1.0000 -0.2100299444
C   C138      1.0  0.39120  0.94910  0.62003  1.0000 0.1725002904
C   C139      1.0  0.38460  0.03360  0.95823  1.0000 -0.0785416882
C   C140      1.0  0.33750  0.93800  0.57443  1.0000 -0.1812534477
C   C141      1.0  0.69640  0.84470  0.94443  1.0000 -0.1894430484
C   C142      1.0  0.47320  0.92430  0.61973  1.0000 -0.2170232381
C   C143      1.0  0.34730  0.11120  0.95843  1.0000 0.584749863
C   C144      1.0  0.50700  0.90380  0.57183  1.0000 0.0945502673
C   C145      1.0  0.33360  0.94100  0.92773  1.0000 -0.0897530213
C   C146      1.0  0.68990  0.99170  0.90673  1.0000 -0.1692313101
C   C147      1.0  0.46460  0.68610  0.88033  1.0000 -0.1692313101
C   C148      1.0  0.22220  0.02790  0.80653  1.0000 0.0359871205
C   C149      1.0  0.57610  0.55640  0.04473  1.0000 0.5861013983
C   C150      1.0  0.46800  0.04770  0.98743  1.0000 -0.0785416882
C   C151      1.0  0.19310  0.80830  0.05943  1.0000 -0.1894430484
C   C152      1.0  0.69740  0.63610  0.04503  1.0000 -0.0394194122
C   C153      1.0  0.73920  0.72240  0.07923  1.0000 -0.0999441838
C   C154      1.0  0.84990  0.78590  0.08553  1.0000 -0.1894430484
C   C155      1.0  0.91880  0.76310  0.05753  1.0000 0.1769871344
C   C156      1.0  0.87700  0.67680  0.02323  1.0000 -0.1894430484
C   C157      1.0  0.76640  0.61340  0.01703  1.0000 -0.0897530213
C   C158      1.0  0.09290  0.60800  0.10323  1.0000 -0.0999441838
C   C159      1.0  0.27830  0.00780  0.66853  1.0000 -0.2287706232
C   C160      1.0  0.37520  0.91620  0.53013  1.0000 0.0652389903
C   C161      1.0  0.51620  0.98130  0.98373  1.0000 -0.2009761329
C   C162      1.0  0.35850  0.97540  0.67143  1.0000 -0.243962064
N   N1        1.0  0.43890  0.54250  0.19470  1.0000 -0.2572682347
N   N2        1.0  0.78660  0.96780  0.73200  1.0000 -0.1692313101
N   N3        1.0  0.31370  0.47410  0.60570  1.0000 -0.1812534477
N   N4        1.0  0.90630  0.79390  0.47610  1.0000 -0.2542080229
N   N5        1.0  0.10360  0.56110  0.86137  1.0000 -0.2572682347
N   N6        1.0  0.18120  0.21340  0.39867  1.0000 -0.1692313101
N   N7        1.0  0.16040  0.68630  0.27237  1.0000 -0.1812534477
N   N8        1.0  0.88760  0.09370  0.14277  1.0000 -0.2542080229
N   N9        1.0  0.45750  0.89640  0.52803  1.0000 -0.2572682347
N   N10       1.0  0.03220  0.81880  0.06533  1.0000 -0.1692313101
N   N11       1.0  0.52590  0.83960  0.93903  1.0000 -0.1812534477
N   N12       1.0  0.20610  0.11240  0.80943  1.0000 -0.2542080229
O   O1        1.0  0.05300  0.72840  0.60420  1.0000 -0.6176246947
O   O2        1.0  0.04230  0.70830  0.72540  1.0000 -0.5937792207
O   O3        1.0  0.12950  0.97950  0.55330  1.0000 -0.545297816
O   O4        1.0  0.28400  0.64300  0.75770  1.0000 -0.4875014469
O   O5        1.0  0.02940  0.72250  0.80820  1.0000 -0.5062469389
O   O6        1.0  0.97990  0.97130  0.57960  1.0000 -0.520914122
O   O7        1.0  0.29190  0.78980  0.78230  1.0000 -0.520914122
O   O8        1.0  0.04820  0.47860  0.74350  1.0000 -0.5367517815
O   O9        1.0  0.80050  0.61340  0.65760  1.0000 -0.5606558865
O   O10       1.0  0.82220  0.71940  0.59320  1.0000 -0.5367517815
O   O11       1.0  0.08650  0.73560  0.52060  1.0000 -0.5282644178
O   O12       1.0  0.93950  0.45490  0.67710  1.0000 -0.5789598371
O   O13       1.0  0.67540  0.94700  0.27087  1.0000 -0.6176246947
O   O14       1.0  0.66600  0.95770  0.39207  1.0000 -0.5937792207
O   O15       1.0  0.85000  0.87050  0.21997  1.0000 -0.545297816
O   O16       1.0  0.35900  0.71600  0.42437  1.0000 -0.4875014469
O   O17       1.0  0.69310  0.97060  0.47487  1.0000 -0.5062469389
O   O18       1.0  0.99140  0.02010  0.24627  1.0000 -0.520914122
O   O19       1.0  0.49790  0.70810  0.44897  1.0000 -0.520914122
O   O20       1.0  0.43040  0.95180  0.41017  1.0000 -0.5367517815
O   O21       1.0  0.81290  0.19950  0.32427  1.0000 -0.5606558865
O   O22       1.0  0.89720  0.17780  0.25987  1.0000 -0.5367517815
O   O23       1.0  0.64910  0.91350  0.18727  1.0000 -0.5282644178
O   O24       1.0  0.51540  0.06050  0.34377  1.0000 -0.5789598371
O   O25       1.0  0.27160  0.32460  0.93753  1.0000 -0.6176246947
O   O26       1.0  0.29170  0.33400  0.05873  1.0000 -0.5937792207
O   O27       1.0  0.02050  0.15000  0.88663  1.0000 -0.545297816
O   O28       1.0  0.35700  0.64100  0.09103  1.0000 -0.4875014469
O   O29       1.0  0.27750  0.30690  0.14153  1.0000 -0.5062469389
O   O30       1.0  0.02870  0.00860  0.91293  1.0000 -0.520914122
O   O31       1.0  0.21020  0.50210  0.11563  1.0000 -0.520914122
O   O32       1.0  0.52140  0.56960  0.07683  1.0000 -0.5367517815
O   O33       1.0  0.38660  0.18710  0.99093  1.0000 -0.5606558865
O   O34       1.0  0.28060  0.10280  0.92653  1.0000 -0.5367517815
O   O35       1.0  0.26440  0.35090  0.85393  1.0000 -0.5282644178
O   O36       1.0  0.54510  0.48460  0.01043  1.0000 -0.5789598371
