# DDEC6 charges by PACMAN v1.1 (https://github.com/mtap-research/PACMAN-charge/)
data_2022[Cu][sql]2[ASR]9
_chemical_formula_sum              "Cu3 H60 C72 N24"
_cell_length_a       13.4309
_cell_length_b       13.4309
_cell_length_c       13.4309
_cell_angle_alpha    88.6618
_cell_angle_beta     88.6618
_cell_angle_gamma    88.6618

_symmetry_space_group_name_H-M    "P 1"
_symmetry_Int_Tables_number       1

loop_
  _symmetry_equiv_pos_as_xyz
  'x, y, z'

loop_
  _atom_site_type_symbol
  _atom_site_label
  _atom_site_symmetry_multiplicity
  _atom_site_fract_x
  _atom_site_fract_y
  _atom_site_fract_z
  _atom_site_occupancy
  _atom_site_charge
Cu  Cu1       1.0  0.50000  0.87540  0.12460  1.0000 0.2405931856
Cu  Cu2       1.0  0.87540  0.12460  0.50000  1.0000 0.2405931856
Cu  Cu3       1.0  0.12460  0.50000  0.87540  1.0000 0.2405931856
H   H1        1.0  0.55790  0.09580  0.14680  1.0000 0.1005755732
H   H2        1.0  0.29330  0.00430  0.08080  1.0000 0.1176607501
H   H3        1.0  0.28030  0.18880  0.08810  1.0000 0.1176607501
H   H4        1.0  0.61120  0.24390  0.15330  1.0000 0.1116525152
H   H5        1.0  0.66500  0.40610  0.16320  1.0000 0.1176607501
H   H6        1.0  0.38610  0.50890  0.11790  1.0000 0.1116525152
H   H7        1.0  0.33210  0.34660  0.10800  1.0000 0.1176607501
H   H8        1.0  0.43950  0.65700  0.12760  1.0000 0.1005755732
H   H9        1.0  0.71240  0.74640  0.15230  1.0000 0.1176607501
H   H10       1.0  0.72010  0.56760  0.15660  1.0000 0.1176607501
H   H11       1.0  0.44210  0.85320  0.90420  1.0000 0.1005755732
H   H12       1.0  0.70670  0.91920  0.99570  1.0000 0.1176607501
H   H13       1.0  0.71970  0.91190  0.81120  1.0000 0.1176607501
H   H14       1.0  0.38880  0.84670  0.75610  1.0000 0.1116525152
H   H15       1.0  0.33500  0.83680  0.59390  1.0000 0.1176607501
H   H16       1.0  0.61390  0.88210  0.49110  1.0000 0.1116525152
H   H17       1.0  0.66790  0.89200  0.65340  1.0000 0.1176607501
H   H18       1.0  0.56050  0.87240  0.34300  1.0000 0.1005755732
H   H19       1.0  0.28760  0.84770  0.25360  1.0000 0.1176607501
H   H20       1.0  0.27990  0.84340  0.43240  1.0000 0.1176607501
H   H21       1.0  0.09580  0.14680  0.55790  1.0000 0.1005755732
H   H22       1.0  0.00430  0.08080  0.29330  1.0000 0.1176607501
H   H23       1.0  0.18880  0.08810  0.28030  1.0000 0.1176607501
H   H24       1.0  0.24390  0.15330  0.61120  1.0000 0.1116525152
H   H25       1.0  0.40610  0.16320  0.66500  1.0000 0.1176607501
H   H26       1.0  0.50890  0.11790  0.38610  1.0000 0.1116525152
H   H27       1.0  0.34660  0.10800  0.33210  1.0000 0.1176607501
H   H28       1.0  0.65700  0.12760  0.43950  1.0000 0.1005755732
H   H29       1.0  0.74640  0.15230  0.71240  1.0000 0.1176607501
H   H30       1.0  0.56760  0.15660  0.72010  1.0000 0.1176607501
H   H31       1.0  0.85320  0.90420  0.44210  1.0000 0.1005755732
H   H32       1.0  0.91920  0.99570  0.70670  1.0000 0.1176607501
H   H33       1.0  0.91190  0.81120  0.71970  1.0000 0.1176607501
H   H34       1.0  0.84670  0.75610  0.38880  1.0000 0.1116525152
H   H35       1.0  0.83680  0.59390  0.33500  1.0000 0.1176607501
H   H36       1.0  0.88210  0.49110  0.61390  1.0000 0.1116525152
H   H37       1.0  0.89200  0.65340  0.66790  1.0000 0.1176607501
H   H38       1.0  0.87240  0.34300  0.56050  1.0000 0.1005755732
H   H39       1.0  0.84770  0.25360  0.28760  1.0000 0.1176607501
H   H40       1.0  0.84340  0.43240  0.27990  1.0000 0.1176607501
H   H41       1.0  0.14680  0.55790  0.09580  1.0000 0.1005755732
H   H42       1.0  0.08080  0.29330  0.00430  1.0000 0.1176607501
H   H43       1.0  0.08810  0.28030  0.18880  1.0000 0.1176607501
H   H44       1.0  0.15330  0.61120  0.24390  1.0000 0.1116525152
H   H45       1.0  0.16320  0.66500  0.40610  1.0000 0.1176607501
H   H46       1.0  0.11790  0.38610  0.50890  1.0000 0.1116525152
H   H47       1.0  0.10800  0.33210  0.34660  1.0000 0.1176607501
H   H48       1.0  0.12760  0.43950  0.65700  1.0000 0.1005755732
H   H49       1.0  0.15230  0.71240  0.74640  1.0000 0.1176607501
H   H50       1.0  0.15660  0.72010  0.56760  1.0000 0.1176607501
H   H51       1.0  0.90420  0.44210  0.85320  1.0000 0.1005755732
H   H52       1.0  0.99570  0.70670  0.91920  1.0000 0.1176607501
H   H53       1.0  0.81120  0.71970  0.91190  1.0000 0.1176607501
H   H54       1.0  0.75610  0.38880  0.84670  1.0000 0.1116525152
H   H55       1.0  0.59390  0.33500  0.83680  1.0000 0.1176607501
H   H56       1.0  0.49110  0.61390  0.88210  1.0000 0.1116525152
H   H57       1.0  0.65340  0.66790  0.89200  1.0000 0.1176607501
H   H58       1.0  0.34300  0.56050  0.87240  1.0000 0.1005755732
H   H59       1.0  0.25360  0.28760  0.84770  1.0000 0.1176607501
H   H60       1.0  0.43240  0.27990  0.84340  1.0000 0.1176607501
C   C1        1.0  0.49110  0.09560  0.13040  1.0000 0.0600675829
C   C2        1.0  0.34510  0.04640  0.09430  1.0000 -0.0573504468
C   C3        1.0  0.33670  0.14880  0.09840  1.0000 -0.151427179
C   C4        1.0  0.46629  0.27919  0.12969  1.0000 0.1432962285
C   C5        1.0  0.56610  0.29700  0.14620  1.0000 -0.1894658409
C   C6        1.0  0.59834  0.39424  0.15214  1.0000 -0.1894658409
C   C7        1.0  0.53089  0.47359  0.14159  1.0000 0.1521950384
C   C8        1.0  0.43120  0.45580  0.12500  1.0000 -0.1894658409
C   C9        1.0  0.39895  0.35855  0.11905  1.0000 -0.1832117134
C   C10       1.0  0.50790  0.65670  0.13630  1.0000 0.0600675829
C   C11       1.0  0.65790  0.70520  0.14900  1.0000 -0.0573504468
C   C12       1.0  0.66260  0.60730  0.15190  1.0000 -0.1372417702
C   C13       1.0  0.50890  0.86960  0.90440  1.0000 0.0600675829
C   C14       1.0  0.65490  0.90570  0.95360  1.0000 -0.0573504468
C   C15       1.0  0.66330  0.90160  0.85120  1.0000 -0.151427179
C   C16       1.0  0.53371  0.87031  0.72081  1.0000 0.1521950384
C   C17       1.0  0.43390  0.85380  0.70300  1.0000 -0.1894658409
C   C18       1.0  0.40166  0.84786  0.60576  1.0000 -0.1894658409
C   C19       1.0  0.46911  0.85841  0.52641  1.0000 0.1521950384
C   C20       1.0  0.56880  0.87500  0.54420  1.0000 -0.1894658409
C   C21       1.0  0.60105  0.88095  0.64145  1.0000 -0.1832117134
C   C22       1.0  0.49210  0.86370  0.34330  1.0000 0.0600675829
C   C23       1.0  0.34210  0.85100  0.29480  1.0000 -0.0573504468
C   C24       1.0  0.33740  0.84810  0.39270  1.0000 -0.1372417702
C   C25       1.0  0.09560  0.13040  0.49110  1.0000 0.0600675829
C   C26       1.0  0.04640  0.09430  0.34510  1.0000 -0.0573504468
C   C27       1.0  0.14880  0.09840  0.33670  1.0000 -0.151427179
C   C28       1.0  0.27919  0.12969  0.46629  1.0000 0.1432962285
C   C29       1.0  0.29700  0.14620  0.56610  1.0000 -0.1894658409
C   C30       1.0  0.39424  0.15214  0.59834  1.0000 -0.1894658409
C   C31       1.0  0.47359  0.14159  0.53089  1.0000 0.1521950384
C   C32       1.0  0.45580  0.12500  0.43120  1.0000 -0.1894658409
C   C33       1.0  0.35855  0.11905  0.39895  1.0000 -0.1832117134
C   C34       1.0  0.65670  0.13630  0.50790  1.0000 0.0600675829
C   C35       1.0  0.70520  0.14900  0.65790  1.0000 -0.0573504468
C   C36       1.0  0.60730  0.15190  0.66260  1.0000 -0.1372417702
C   C37       1.0  0.86960  0.90440  0.50890  1.0000 0.0600675829
C   C38       1.0  0.90570  0.95360  0.65490  1.0000 -0.0573504468
C   C39       1.0  0.90160  0.85120  0.66330  1.0000 -0.151427179
C   C40       1.0  0.87031  0.72081  0.53371  1.0000 0.1432962285
C   C41       1.0  0.85380  0.70300  0.43390  1.0000 -0.1894658409
C   C42       1.0  0.84786  0.60576  0.40166  1.0000 -0.1894658409
C   C43       1.0  0.85841  0.52641  0.46911  1.0000 0.1521950384
C   C44       1.0  0.87500  0.54420  0.56880  1.0000 -0.1894658409
C   C45       1.0  0.88095  0.64145  0.60105  1.0000 -0.1832117134
C   C46       1.0  0.86370  0.34330  0.49210  1.0000 0.0600675829
C   C47       1.0  0.85100  0.29480  0.34210  1.0000 -0.0573504468
C   C48       1.0  0.84810  0.39270  0.33740  1.0000 -0.1372417702
C   C49       1.0  0.13040  0.49110  0.09560  1.0000 0.0548680158
C   C50       1.0  0.09430  0.34510  0.04640  1.0000 -0.0573504468
C   C51       1.0  0.09840  0.33670  0.14880  1.0000 -0.151427179
C   C52       1.0  0.12969  0.46629  0.27919  1.0000 0.1432962285
C   C53       1.0  0.14620  0.56610  0.29700  1.0000 -0.1894658409
C   C54       1.0  0.15214  0.59834  0.39424  1.0000 -0.1894658409
C   C55       1.0  0.14159  0.53089  0.47359  1.0000 0.1521950384
C   C56       1.0  0.12500  0.43120  0.45580  1.0000 -0.1894658409
C   C57       1.0  0.11905  0.39895  0.35855  1.0000 -0.1832117134
C   C58       1.0  0.13630  0.50790  0.65670  1.0000 0.0600675829
C   C59       1.0  0.14900  0.65790  0.70520  1.0000 -0.0573504468
C   C60       1.0  0.15190  0.66260  0.60730  1.0000 -0.1372417702
C   C61       1.0  0.90440  0.50890  0.86960  1.0000 0.0600675829
C   C62       1.0  0.95360  0.65490  0.90570  1.0000 -0.0573504468
C   C63       1.0  0.85120  0.66330  0.90160  1.0000 -0.151427179
C   C64       1.0  0.72081  0.53371  0.87031  1.0000 0.1432962285
C   C65       1.0  0.70300  0.43390  0.85380  1.0000 -0.1894658409
C   C66       1.0  0.60576  0.40166  0.84786  1.0000 -0.1894658409
C   C67       1.0  0.52641  0.46911  0.85841  1.0000 0.1521950384
C   C68       1.0  0.54420  0.56880  0.87500  1.0000 -0.1894658409
C   C69       1.0  0.64145  0.60105  0.88095  1.0000 -0.1832117134
C   C70       1.0  0.34330  0.49210  0.86370  1.0000 0.0600675829
C   C71       1.0  0.29480  0.34210  0.85100  1.0000 -0.0573504468
C   C72       1.0  0.39270  0.33740  0.84810  1.0000 -0.1372417702
N   N1        1.0  0.44207  0.01537  0.11317  1.0000 -0.258054216
N   N2        1.0  0.43270  0.17860  0.12140  1.0000 0.0004714298
N   N3        1.0  0.56481  0.57371  0.14651  1.0000 0.0004714298
N   N4        1.0  0.56070  0.73750  0.14040  1.0000 -0.2543781592
N   N5        1.0  0.55793  0.88683  0.98463  1.0000 -0.258054216
N   N6        1.0  0.56730  0.87860  0.82140  1.0000 -0.0005118685
N   N7        1.0  0.43519  0.85349  0.42629  1.0000 0.0004714298
N   N8        1.0  0.43930  0.85960  0.26250  1.0000 -0.2543781592
N   N9        1.0  0.01537  0.11317  0.44207  1.0000 -0.258054216
N   N10       1.0  0.17860  0.12140  0.43270  1.0000 0.0004714298
N   N11       1.0  0.57371  0.14651  0.56481  1.0000 0.0004714298
N   N12       1.0  0.73750  0.14040  0.56070  1.0000 -0.2543781592
N   N13       1.0  0.88683  0.98463  0.55793  1.0000 -0.258054216
N   N14       1.0  0.87860  0.82140  0.56730  1.0000 -0.0005118685
N   N15       1.0  0.85349  0.42629  0.43519  1.0000 0.0004714298
N   N16       1.0  0.85960  0.26250  0.43930  1.0000 -0.2543781592
N   N17       1.0  0.11317  0.44207  0.01537  1.0000 -0.258054216
N   N18       1.0  0.12140  0.43270  0.17860  1.0000 0.0004714298
N   N19       1.0  0.14651  0.56481  0.57371  1.0000 0.0004714298
N   N20       1.0  0.14040  0.56070  0.73750  1.0000 -0.2543781592
N   N21       1.0  0.98463  0.55793  0.88683  1.0000 -0.258054216
N   N22       1.0  0.82140  0.56730  0.87860  1.0000 -0.0005118685
N   N23       1.0  0.42629  0.43519  0.85349  1.0000 0.0004714298
N   N24       1.0  0.26250  0.43930  0.85960  1.0000 -0.2543781592
