# DDEC6 charges by PACMAN v1.1 (https://github.com/mtap-research/PACMAN-charge/)
data_2022[Er][ant]3[ASR]1
_chemical_formula_sum              "Er2 H28 C44 N26 O14"
_cell_length_a       12.4279
_cell_length_b       12.4279
_cell_length_c       10.7324
_cell_angle_alpha    64.5584
_cell_angle_beta     115.442
_cell_angle_gamma    113.729

_symmetry_space_group_name_H-M    "P 1"
_symmetry_Int_Tables_number       1

loop_
  _symmetry_equiv_pos_as_xyz
  'x, y, z'

loop_
  _atom_site_type_symbol
  _atom_site_label
  _atom_site_symmetry_multiplicity
  _atom_site_fract_x
  _atom_site_fract_y
  _atom_site_fract_z
  _atom_site_occupancy
  _atom_site_charge
Er  Er1       1.0  0.03888  0.03888  0.75000  1.0000 1.9743461619
Er  Er2       1.0  0.96112  0.96112  0.25000  1.0000 1.9743461619
H   H1        1.0  0.76660  0.11320  0.59650  1.0000 0.1382332454
H   H2        1.0  0.44550  0.18830  0.48300  1.0000 0.1382332454
H   H3        1.0  0.64370  0.08230  0.90440  1.0000 0.1310716189
H   H4        1.0  0.62300  0.16020  0.12440  1.0000 0.1008038903
H   H5        1.0  0.49090  0.30930  0.25640  1.0000 0.1217926701
H   H6        1.0  0.34430  0.17810  0.92650  1.0000 0.1143475185
H   H7        1.0  0.27410  0.08110  0.59620  1.0000 0.1310716189
H   H8        1.0  0.11320  0.76660  0.90350  1.0000 0.1382332454
H   H9        1.0  0.18830  0.44550  0.01700  1.0000 0.1382332454
H   H10       1.0  0.08230  0.64370  0.59560  1.0000 0.1310716189
H   H11       1.0  0.16020  0.62300  0.37560  1.0000 0.1008038903
H   H12       1.0  0.30930  0.49090  0.24360  1.0000 0.1217926701
H   H13       1.0  0.17810  0.34430  0.57350  1.0000 0.1143475185
H   H14       1.0  0.08110  0.27410  0.90380  1.0000 0.1310716189
H   H15       1.0  0.23340  0.88680  0.40350  1.0000 0.1382332454
H   H16       1.0  0.55450  0.81170  0.51700  1.0000 0.1382332454
H   H17       1.0  0.35630  0.91770  0.09560  1.0000 0.1310716189
H   H18       1.0  0.37700  0.83980  0.87560  1.0000 0.1008038903
H   H19       1.0  0.50910  0.69070  0.74360  1.0000 0.1217926701
H   H20       1.0  0.65570  0.82190  0.07350  1.0000 0.1143475185
H   H21       1.0  0.72590  0.91890  0.40380  1.0000 0.1310716189
H   H22       1.0  0.88680  0.23340  0.09650  1.0000 0.1382332454
H   H23       1.0  0.81170  0.55450  0.98300  1.0000 0.1382332454
H   H24       1.0  0.91770  0.35630  0.40440  1.0000 0.1310716189
H   H25       1.0  0.83980  0.37700  0.62440  1.0000 0.1008038903
H   H26       1.0  0.69070  0.50910  0.75640  1.0000 0.1217926701
H   H27       1.0  0.82190  0.65570  0.42650  1.0000 0.1143475185
H   H28       1.0  0.91890  0.72590  0.09620  1.0000 0.1310716189
C   C1        1.0  0.72238  0.09202  0.76798  1.0000 0.0002965425
C   C2        1.0  0.70739  0.11881  0.62289  1.0000 -0.2008609166
C   C3        1.0  0.60307  0.15413  0.51807  1.0000 0.1578715751
C   C4        1.0  0.51475  0.16385  0.55435  1.0000 -0.2518975513
C   C5        1.0  0.53126  0.13634  0.69966  1.0000 0.1578715751
C   C6        1.0  0.63395  0.10045  0.80725  1.0000 -0.1917954375
C   C7        1.0  0.60308  0.17972  0.18498  1.0000 0.1310716189
C   C8        1.0  0.53045  0.26115  0.25365  1.0000 0.1008038903
C   C9        1.0  0.35537  0.16023  0.85777  1.0000 0.1578715751
C   C10       1.0  0.31431  0.10749  0.67791  1.0000 0.1310716189
C   C11       1.0  0.83771  0.05725  0.88203  1.0000 0.6642906676
C   C12       1.0  0.09202  0.72238  0.73202  1.0000 0.0002965425
C   C13       1.0  0.11881  0.70739  0.87711  1.0000 -0.2008609166
C   C14       1.0  0.15413  0.60307  0.98193  1.0000 0.1578715751
C   C15       1.0  0.16385  0.51475  0.94565  1.0000 -0.2518975513
C   C16       1.0  0.13634  0.53126  0.80034  1.0000 0.1578715751
C   C17       1.0  0.10045  0.63395  0.69275  1.0000 -0.1917954375
C   C18       1.0  0.17972  0.60308  0.31502  1.0000 0.1310716189
C   C19       1.0  0.26115  0.53045  0.24635  1.0000 0.1008038903
C   C20       1.0  0.16023  0.35537  0.64223  1.0000 0.1578715751
C   C21       1.0  0.10749  0.31431  0.82209  1.0000 0.1310716189
C   C22       1.0  0.05725  0.83771  0.61797  1.0000 0.6642906676
C   C23       1.0  0.27762  0.90798  0.23202  1.0000 0.0002965425
C   C24       1.0  0.29261  0.88119  0.37711  1.0000 -0.2008609166
C   C25       1.0  0.39693  0.84587  0.48193  1.0000 0.1578715751
C   C26       1.0  0.48525  0.83615  0.44565  1.0000 -0.2518975513
C   C27       1.0  0.46874  0.86366  0.30034  1.0000 0.1578715751
C   C28       1.0  0.36605  0.89955  0.19275  1.0000 -0.1917954375
C   C29       1.0  0.39692  0.82028  0.81502  1.0000 0.1310716189
C   C30       1.0  0.46955  0.73885  0.74635  1.0000 0.1008038903
C   C31       1.0  0.64463  0.83977  0.14223  1.0000 0.1578715751
C   C32       1.0  0.68569  0.89251  0.32209  1.0000 0.1310716189
C   C33       1.0  0.16229  0.94275  0.11797  1.0000 0.6642906676
C   C34       1.0  0.90798  0.27762  0.26798  1.0000 0.0002965425
C   C35       1.0  0.88119  0.29261  0.12289  1.0000 -0.2008609166
C   C36       1.0  0.84587  0.39693  0.01807  1.0000 0.1545555453
C   C37       1.0  0.83615  0.48525  0.05435  1.0000 -0.2518975513
C   C38       1.0  0.86366  0.46874  0.19966  1.0000 0.1578715751
C   C39       1.0  0.89955  0.36605  0.30725  1.0000 -0.1917954375
C   C40       1.0  0.82028  0.39692  0.68498  1.0000 0.1310716189
C   C41       1.0  0.73885  0.46955  0.75365  1.0000 0.1008038903
C   C42       1.0  0.83977  0.64463  0.35777  1.0000 0.1578715751
C   C43       1.0  0.89251  0.68569  0.17791  1.0000 0.1310716189
C   C44       1.0  0.94275  0.16229  0.38203  1.0000 0.6642906676
N   N1        1.0  0.58866  0.18308  0.36947  1.0000 0.1217926701
N   N2        1.0  0.43745  0.13949  0.73878  1.0000 0.1217926701
N   N3        1.0  0.63749  0.13031  0.32649  1.0000 -0.2518975513
N   N4        1.0  0.53684  0.26076  0.13454  1.0000 -0.3373723318
N   N5        1.0  0.46450  0.17250  0.85670  1.0000 -0.2518975513
N   N6        1.0  0.25896  0.11894  0.74971  1.0000 -0.4323625405
N   N7        1.0  0.18308  0.58866  0.13053  1.0000 0.1217926701
N   N8        1.0  0.13949  0.43745  0.76122  1.0000 0.1217926701
N   N9        1.0  0.13031  0.63749  0.17351  1.0000 -0.2518975513
N   N10       1.0  0.26076  0.53684  0.36546  1.0000 -0.3373723318
N   N11       1.0  0.17250  0.46450  0.64330  1.0000 -0.2518975513
N   N12       1.0  0.11894  0.25896  0.75029  1.0000 -0.4323625405
N   N13       1.0  0.41134  0.81692  0.63053  1.0000 0.1217926701
N   N14       1.0  0.56255  0.86051  0.26122  1.0000 0.1217926701
N   N15       1.0  0.36251  0.86969  0.67351  1.0000 -0.2518975513
N   N16       1.0  0.46316  0.73924  0.86546  1.0000 -0.3373723318
N   N17       1.0  0.53550  0.82750  0.14330  1.0000 -0.2518975513
N   N18       1.0  0.74104  0.88106  0.25029  1.0000 -0.4323625405
N   N19       1.0  0.81692  0.41134  0.86947  1.0000 0.1217926701
N   N20       1.0  0.86051  0.56255  0.23878  1.0000 0.1217926701
N   N21       1.0  0.86969  0.36251  0.82649  1.0000 -0.2518975513
N   N22       1.0  0.73924  0.46316  0.63454  1.0000 -0.3373723318
N   N23       1.0  0.82750  0.53550  0.35670  1.0000 -0.2518975513
N   N24       1.0  0.88106  0.74104  0.24971  1.0000 -0.4323625405
N   N25       1.0  0.82670  0.82670  0.75000  1.0000 0.7012234936
N   N26       1.0  0.17330  0.17330  0.25000  1.0000 0.7012234936
O   O1        1.0  0.92036  0.06620  0.83890  1.0000 -0.6747537842
O   O2        1.0  0.84273  0.02337  0.01266  1.0000 -0.6747537842
O   O3        1.0  0.82822  0.92318  0.64184  1.0000 -0.4880826985
O   O4        1.0  0.06620  0.92036  0.66110  1.0000 -0.6747537842
O   O5        1.0  0.02337  0.84273  0.48734  1.0000 -0.6747537842
O   O6        1.0  0.92318  0.82822  0.85816  1.0000 -0.4880826985
O   O7        1.0  0.07964  0.93380  0.16110  1.0000 -0.6757086505
O   O8        1.0  0.15727  0.97663  0.98734  1.0000 -0.6747537842
O   O9        1.0  0.17178  0.07682  0.35816  1.0000 -0.4880826985
O   O10       1.0  0.93380  0.07964  0.33890  1.0000 -0.6747537842
O   O11       1.0  0.97663  0.15727  0.51266  1.0000 -0.6747537842
O   O12       1.0  0.07682  0.17178  0.14184  1.0000 -0.4880826985
O   O13       1.0  0.73730  0.73730  0.75000  1.0000 -0.4026623358
O   O14       1.0  0.26270  0.26270  0.25000  1.0000 -0.4026623358
