# DDEC6 charges by PACMAN v1.1 (https://github.com/mtap-research/PACMAN-charge/)
data_2022[Mn][pcu]3[ASR]3
_chemical_formula_sum              "Mn8 H38 C96 O28 F36"
_cell_length_a       15.8133
_cell_length_b       16.8436
_cell_length_c       17.8207
_cell_angle_alpha    107.302
_cell_angle_beta     99.15
_cell_angle_gamma    114.93

_symmetry_space_group_name_H-M    "P 1"
_symmetry_Int_Tables_number       1

loop_
  _symmetry_equiv_pos_as_xyz
  'x, y, z'

loop_
  _atom_site_type_symbol
  _atom_site_label
  _atom_site_symmetry_multiplicity
  _atom_site_fract_x
  _atom_site_fract_y
  _atom_site_fract_z
  _atom_site_occupancy
  _atom_site_charge
Mn  Mn1       1.0  0.07591  0.60570  0.07972  1.0000 1.0761547603
Mn  Mn2       1.0  0.03760  0.38559  0.11730  1.0000 1.0761547603
Mn  Mn3       1.0  0.02024  0.22771  0.93003  1.0000 1.0761547603
Mn  Mn4       1.0  0.25157  0.58961  0.23382  1.0000 1.0367518224
Mn  Mn5       1.0  0.92409  0.39430  0.92028  1.0000 1.0761547603
Mn  Mn6       1.0  0.96240  0.61441  0.88270  1.0000 1.0761547603
Mn  Mn7       1.0  0.97976  0.77229  0.06997  1.0000 1.0742411174
Mn  Mn8       1.0  0.74843  0.41039  0.76618  1.0000 1.0367518224
H   H1        1.0  0.77663  0.50730  0.01256  1.0000 0.1296572295
H   H2        1.0  0.10217  0.25079  0.70031  1.0000 0.1296572295
H   H3        1.0  0.77444  0.38902  0.17625  1.0000 0.1296572295
H   H4        1.0  0.39714  0.53556  0.18327  1.0000 0.1204053755
H   H5        1.0  0.49667  0.76386  0.18136  1.0000 0.1204053755
H   H6        1.0  0.63348  0.50294  0.01985  1.0000 0.1204053755
H   H7        1.0  0.00319  0.44476  0.62412  1.0000 0.1296572295
H   H8        1.0  0.97078  0.40976  0.73450  1.0000 0.1296572295
H   H9        1.0  0.80705  0.19927  0.14074  1.0000 0.1296572295
H   H10       1.0  0.97920  0.32229  0.32009  1.0000 0.1296572295
H   H11       1.0  0.28291  0.27210  0.99849  1.0000 0.1296572295
H   H12       1.0  0.31407  0.80300  0.03436  1.0000 0.1296572295
H   H13       1.0  0.23749  0.54507  0.46756  1.0000 0.1296572295
H   H14       1.0  0.43809  0.29995  0.00869  1.0000 0.1204053755
H   H15       1.0  0.21533  0.50103  0.57743  1.0000 0.1296572295
H   H16       1.0  0.44695  0.91792  0.01795  1.0000 0.1204053755
H   H17       1.0  0.75535  0.98052  0.93719  1.0000 0.1204053755
H   H18       1.0  0.61635  0.88224  0.96007  1.0000 0.1296572295
H   H19       1.0  0.14900  0.53700  0.11200  1.0000 0.3334779449
H   H20       1.0  0.22337  0.49270  0.98744  1.0000 0.1296572295
H   H21       1.0  0.89783  0.74921  0.29969  1.0000 0.1296572295
H   H22       1.0  0.22556  0.61098  0.82375  1.0000 0.1296572295
H   H23       1.0  0.60286  0.46444  0.81673  1.0000 0.1204053755
H   H24       1.0  0.50333  0.23614  0.81864  1.0000 0.1204053755
H   H25       1.0  0.36652  0.49706  0.98015  1.0000 0.1204053755
H   H26       1.0  0.99681  0.55524  0.37588  1.0000 0.1296572295
H   H27       1.0  0.02922  0.59024  0.26550  1.0000 0.1296572295
H   H28       1.0  0.19295  0.80073  0.85926  1.0000 0.1296572295
H   H29       1.0  0.02080  0.67771  0.67991  1.0000 0.1296572295
H   H30       1.0  0.71709  0.72790  0.00151  1.0000 0.1296572295
H   H31       1.0  0.68593  0.19700  0.96564  1.0000 0.1296572295
H   H32       1.0  0.76251  0.45493  0.53244  1.0000 0.1296572295
H   H33       1.0  0.56191  0.70005  0.99131  1.0000 0.1204053755
H   H34       1.0  0.78467  0.49897  0.42257  1.0000 0.1296572295
H   H35       1.0  0.55305  0.08208  0.98205  1.0000 0.1204053755
H   H36       1.0  0.24465  0.01948  0.06281  1.0000 0.1204053755
H   H37       1.0  0.38365  0.11776  0.03993  1.0000 0.1296572295
H   H38       1.0  0.85100  0.46300  0.88800  1.0000 0.3334779449
C   C1        1.0  0.78890  0.44570  0.09100  1.0000 -0.0099066937
C   C2        1.0  0.74620  0.48140  0.04660  1.0000 -0.0786890262
C   C3        1.0  0.21970  0.37790  0.08630  1.0000 0.5942963717
C   C4        1.0  0.00080  0.29480  0.79390  1.0000 0.6018452404
C   C5        1.0  0.88020  0.44090  0.08210  1.0000 0.5813197427
C   C6        1.0  0.03130  0.32350  0.72670  1.0000 -0.0201904139
C   C7        1.0  0.30510  0.70630  0.12660  1.0000 0.5813197427
C   C8        1.0  0.12730  0.46270  0.30910  1.0000 0.6018452404
C   C9        1.0  0.08040  0.28840  0.68400  1.0000 -0.09052913
C   C10       1.0  0.32030  0.39860  0.09230  1.0000 -0.0452985756
C   C11       1.0  0.74510  0.41090  0.14410  1.0000 -0.1020728951
C   C12       1.0  0.40510  0.48800  0.14790  1.0000 -0.1020728951
C   C13       1.0  0.09850  0.30860  0.61530  1.0000 -0.1705752827
C   C14       1.0  0.06780  0.36700  0.59190  1.0000 0.0597415556
C   C15       1.0  0.51570  0.43490  0.10090  1.0000 0.0597415556
C   C16       1.0  0.48720  0.79590  0.14930  1.0000 -0.1020728951
C   C17       1.0  0.61370  0.44290  0.10310  1.0000 0.0597415556
C   C18       1.0  0.49830  0.50460  0.14970  1.0000 -0.1601525239
C   C19       1.0  0.10840  0.43690  0.38280  1.0000 -0.0201904139
C   C20       1.0  0.88870  0.16650  0.02340  1.0000 0.5813197427
C   C21       1.0  0.39280  0.77580  0.11170  1.0000 -0.0030798438
C   C22       1.0  0.66110  0.47950  0.05150  1.0000 -0.112787136
C   C23       1.0  0.65670  0.40870  0.14960  1.0000 -0.180727797
C   C24       1.0  0.02190  0.40420  0.63810  1.0000 -0.1229948524
C   C25       1.0  0.55730  0.91180  0.08830  1.0000 0.0509199023
C   C26       1.0  0.00270  0.38380  0.70440  1.0000 -0.0786890262
C   C27       1.0  0.77140  0.13460  0.10510  1.0000 -0.07090865
C   C28       1.0  0.02610  0.36070  0.37290  1.0000 -0.0786890262
C   C29       1.0  0.08320  0.38910  0.51760  1.0000 0.0765874058
C   C30       1.0  0.56820  0.86410  0.13920  1.0000 -0.1705752827
C   C31       1.0  0.80120  0.10310  0.03780  1.0000 -0.041166722
C   C32       1.0  0.63760  0.97860  0.06970  1.0000 0.0597415556
C   C33       1.0  0.33640  0.32960  0.03810  1.0000 -0.0786890262
C   C34       1.0  0.66760  0.88510  0.18140  1.0000 0.6372696318
C   C35       1.0  0.37790  0.81900  0.06160  1.0000 -0.09052913
C   C36       1.0  0.17970  0.49090  0.45960  1.0000 -0.0786890262
C   C37       1.0  0.69370  0.07610  0.12090  1.0000 -0.180727797
C   C38       1.0  0.00720  0.33590  0.44100  1.0000 -0.2177915416
C   C39       1.0  0.42970  0.34740  0.04380  1.0000 -0.1288390376
C   C40       1.0  0.15000  0.26860  0.56980  1.0000 0.6221720286
C   C41       1.0  0.61270  0.36940  0.20580  1.0000 0.6221720286
C   C42       1.0  0.58340  0.60140  0.20070  1.0000 0.6372696318
C   C43       1.0  0.16560  0.46460  0.52600  1.0000 -0.112787136
C   C44       1.0  0.45850  0.88740  0.05080  1.0000 -0.1229948524
C   C45       1.0  0.91440  0.26400  0.42740  1.0000 0.5813197427
C   C46       1.0  0.74030  0.00550  0.98380  1.0000 -0.0786890262
C   C47       1.0  0.65890  0.11670  0.18190  1.0000 0.6336037077
C   C48       1.0  0.65770  0.94530  0.99860  1.0000 -0.1288390376
C   C49       1.0  0.21110  0.55430  0.90900  1.0000 -0.0099066937
C   C50       1.0  0.25380  0.51860  0.95340  1.0000 -0.0786890262
C   C51       1.0  0.78030  0.62210  0.91370  1.0000 0.5942963717
C   C52       1.0  0.99920  0.70520  0.20610  1.0000 0.5942963717
C   C53       1.0  0.11980  0.55910  0.91790  1.0000 0.5813197427
C   C54       1.0  0.96870  0.67650  0.27330  1.0000 -0.0201904139
C   C55       1.0  0.69490  0.29370  0.87340  1.0000 0.5813197427
C   C56       1.0  0.87270  0.53730  0.69090  1.0000 0.6018452404
C   C57       1.0  0.91960  0.71160  0.31600  1.0000 -0.09052913
C   C58       1.0  0.67970  0.60140  0.90770  1.0000 -0.0452985756
C   C59       1.0  0.25490  0.58910  0.85590  1.0000 -0.1020728951
C   C60       1.0  0.59490  0.51200  0.85210  1.0000 -0.1020728951
C   C61       1.0  0.90150  0.69140  0.38470  1.0000 -0.1705752827
C   C62       1.0  0.93220  0.63300  0.40810  1.0000 0.0597415556
C   C63       1.0  0.48430  0.56510  0.89910  1.0000 0.0597415556
C   C64       1.0  0.51280  0.20410  0.85070  1.0000 -0.1020728951
C   C65       1.0  0.38630  0.55710  0.89690  1.0000 0.0597415556
C   C66       1.0  0.50170  0.49540  0.85030  1.0000 -0.1601525239
C   C67       1.0  0.89160  0.56310  0.61720  1.0000 -0.0099066937
C   C68       1.0  0.11130  0.83350  0.97660  1.0000 0.5813197427
C   C69       1.0  0.60720  0.22420  0.88830  1.0000 -0.0030798438
C   C70       1.0  0.33890  0.52050  0.94850  1.0000 -0.112787136
C   C71       1.0  0.34330  0.59130  0.85040  1.0000 -0.180727797
C   C72       1.0  0.97810  0.59580  0.36190  1.0000 -0.1229948524
C   C73       1.0  0.44270  0.08820  0.91170  1.0000 0.0509199023
C   C74       1.0  0.99730  0.61620  0.29560  1.0000 -0.0786890262
C   C75       1.0  0.22860  0.86540  0.89490  1.0000 -0.07090865
C   C76       1.0  0.97390  0.63930  0.62710  1.0000 -0.0786890262
C   C77       1.0  0.91680  0.61090  0.48240  1.0000 0.0765874058
C   C78       1.0  0.43180  0.13590  0.86080  1.0000 -0.1705752827
C   C79       1.0  0.19880  0.89690  0.96220  1.0000 -0.041166722
C   C80       1.0  0.36240  0.02140  0.93030  1.0000 0.0597415556
C   C81       1.0  0.66360  0.67040  0.96190  1.0000 -0.0786890262
C   C82       1.0  0.33240  0.11490  0.81860  1.0000 0.6372696318
C   C83       1.0  0.62210  0.18100  0.93840  1.0000 -0.09052913
C   C84       1.0  0.82030  0.50910  0.54040  1.0000 -0.0786890262
C   C85       1.0  0.30630  0.92390  0.87910  1.0000 -0.180727797
C   C86       1.0  0.99280  0.66410  0.55900  1.0000 -0.2177915416
C   C87       1.0  0.57030  0.65260  0.95620  1.0000 -0.1288390376
C   C88       1.0  0.85000  0.73140  0.43020  1.0000 0.6221720286
C   C89       1.0  0.38730  0.63060  0.79420  1.0000 0.6221720286
C   C90       1.0  0.41660  0.39860  0.79930  1.0000 0.6372696318
C   C91       1.0  0.83440  0.53540  0.47400  1.0000 -0.112787136
C   C92       1.0  0.54150  0.11260  0.94920  1.0000 -0.1229948524
C   C93       1.0  0.08560  0.73600  0.57260  1.0000 0.5813197427
C   C94       1.0  0.25970  0.99450  0.01620  1.0000 -0.0786890262
C   C95       1.0  0.34110  0.88330  0.81810  1.0000 0.6336037077
C   C96       1.0  0.34230  0.05470  0.00140  1.0000 -0.1288390376
O   O1        1.0  0.11180  0.53800  0.15200  1.0000 -0.8400657616
O   O2        1.0  0.92290  0.48120  0.03940  1.0000 -0.5488040961
O   O3        1.0  0.00120  0.34560  0.98600  1.0000 -0.7962506257
O   O4        1.0  0.92890  0.30210  0.81160  1.0000 -0.5404392473
O   O5        1.0  0.04720  0.26300  0.82970  1.0000 -0.5488040961
O   O6        1.0  0.22750  0.70190  0.10110  1.0000 -0.486382655
O   O7        1.0  0.90540  0.39560  0.11530  1.0000 -0.486382655
O   O8        1.0  0.20290  0.43370  0.13810  1.0000 -0.5613349817
O   O9        1.0  0.32150  0.65760  0.16230  1.0000 -0.5613349817
O   O10       1.0  0.95460  0.23600  0.08610  1.0000 -0.512985631
O   O11       1.0  0.15090  0.29880  0.02820  1.0000 -0.5488040961
O   O12       1.0  0.05850  0.40040  0.24050  1.0000 -0.5318617664
O   O13       1.0  0.20340  0.53600  0.32110  1.0000 -0.5488040961
O   O14       1.0  0.89260  0.13890  0.95100  1.0000 -0.5404392473
O   O15       1.0  0.88820  0.46200  0.84800  1.0000 -0.8400657616
O   O16       1.0  0.07710  0.51880  0.96060  1.0000 -0.5488040961
O   O17       1.0  0.99880  0.65440  0.01400  1.0000 -0.7962506257
O   O18       1.0  0.07110  0.69790  0.18840  1.0000 -0.5404392473
O   O19       1.0  0.95280  0.73700  0.17030  1.0000 -0.5488040961
O   O20       1.0  0.77250  0.29810  0.89890  1.0000 -0.486382655
O   O21       1.0  0.09460  0.60440  0.88470  1.0000 -0.486382655
O   O22       1.0  0.79710  0.56630  0.86190  1.0000 -0.5613349817
O   O23       1.0  0.67850  0.34240  0.83770  1.0000 -0.5613349817
O   O24       1.0  0.04540  0.76400  0.91390  1.0000 -0.512985631
O   O25       1.0  0.84910  0.70120  0.97180  1.0000 -0.5488040961
O   O26       1.0  0.94150  0.59960  0.75950  1.0000 -0.5318617664
O   O27       1.0  0.79660  0.46400  0.67890  1.0000 -0.5488040961
O   O28       1.0  0.10740  0.86110  0.04900  1.0000 -0.5404392473
F   F1        1.0  0.66810  0.35270  0.25540  1.0000 -0.1995185327
F   F2        1.0  0.17390  0.21360  0.60000  1.0000 -0.1995185327
F   F3        1.0  0.56160  0.66330  0.24360  1.0000 -0.1902872744
F   F4        1.0  0.23650  0.33390  0.56970  1.0000 -0.1995185327
F   F5        1.0  0.56750  0.40550  0.24320  1.0000 -0.180727797
F   F6        1.0  0.65910  0.60430  0.24270  1.0000 -0.1902872744
F   F7        1.0  0.73540  0.97730  0.22650  1.0000 -0.180727797
F   F8        1.0  0.09800  0.21380  0.48830  1.0000 -0.1995185327
F   F9        1.0  0.67040  0.84910  0.24070  1.0000 -0.1995185327
F   F10       1.0  0.90760  0.20220  0.46480  1.0000 -0.1601525239
F   F11       1.0  0.64350  0.07890  0.23970  1.0000 -0.180727797
F   F12       1.0  0.72090  0.21230  0.23020  1.0000 -0.2095865972
F   F13       1.0  0.85700  0.20190  0.34780  1.0000 -0.1902872744
F   F14       1.0  0.70990  0.85370  0.12990  1.0000 -0.1995185327
F   F15       1.0  0.53310  0.27490  0.16240  1.0000 -0.1995185327
F   F16       1.0  0.85150  0.29220  0.45700  1.0000 -0.1902872744
F   F17       1.0  0.56710  0.10640  0.14900  1.0000 -0.2177915416
F   F18       1.0  0.62200  0.64460  0.14920  1.0000 -0.1995185327
F   F19       1.0  0.33190  0.64730  0.74460  1.0000 -0.1995185327
F   F20       1.0  0.82610  0.78640  0.40000  1.0000 -0.1995185327
F   F21       1.0  0.43840  0.33670  0.75640  1.0000 -0.1902872744
F   F22       1.0  0.76350  0.66610  0.43030  1.0000 -0.1995185327
F   F23       1.0  0.43250  0.59450  0.75680  1.0000 -0.180727797
F   F24       1.0  0.34090  0.39570  0.75730  1.0000 -0.1902872744
F   F25       1.0  0.26460  0.02270  0.77350  1.0000 -0.180727797
F   F26       1.0  0.90200  0.78620  0.51170  1.0000 -0.1995185327
F   F27       1.0  0.32960  0.15090  0.75930  1.0000 -0.1995185327
F   F28       1.0  0.09240  0.79780  0.53520  1.0000 -0.1601525239
F   F29       1.0  0.35650  0.92110  0.76030  1.0000 -0.180727797
F   F30       1.0  0.27910  0.78770  0.76980  1.0000 -0.2095865972
F   F31       1.0  0.14300  0.79810  0.65220  1.0000 -0.1902872744
F   F32       1.0  0.29010  0.14630  0.87010  1.0000 -0.1995185327
F   F33       1.0  0.46690  0.72510  0.83760  1.0000 -0.1995185327
F   F34       1.0  0.14850  0.70780  0.54300  1.0000 -0.1902872744
F   F35       1.0  0.43290  0.89360  0.85100  1.0000 -0.2177915416
F   F36       1.0  0.37800  0.35540  0.85080  1.0000 -0.1995185327
