# DDEC6 charges by PACMAN v1.1 (https://github.com/mtap-research/PACMAN-charge/)
data_2022[Y][nan]3[ASR]2
_chemical_formula_sum              "Y8 H40 C68 N4 O48"
_cell_length_a       16.9016
_cell_length_b       16.9016
_cell_length_c       16.9016
_cell_angle_alpha    103.203
_cell_angle_beta     103.203
_cell_angle_gamma    122.901

_symmetry_space_group_name_H-M    "P 1"
_symmetry_Int_Tables_number       1

loop_
  _symmetry_equiv_pos_as_xyz
  'x, y, z'

loop_
  _atom_site_type_symbol
  _atom_site_label
  _atom_site_symmetry_multiplicity
  _atom_site_fract_x
  _atom_site_fract_y
  _atom_site_fract_z
  _atom_site_occupancy
  _atom_site_charge
Y   Y1        1.0  0.16373  0.16373  0.00000  1.0000 1.858459698
Y   Y2        1.0  0.83627  0.83627  0.00000  1.0000 1.858459698
Y   Y3        1.0  0.13020  0.02599  0.15619  1.0000 1.8348686564
Y   Y4        1.0  0.86980  0.97401  0.84381  1.0000 1.8359473415
Y   Y5        1.0  0.02599  0.86980  0.89579  1.0000 1.8359473415
Y   Y6        1.0  0.97401  0.13020  0.10421  1.0000 1.8359473415
Y   Y7        1.0  0.75000  0.25000  0.50000  1.0000 1.6439436543
Y   Y8        1.0  0.25000  0.75000  0.50000  1.0000 1.6439436543
H   H1        1.0  0.20397  0.03496  0.02889  1.0000 0.3926974628
H   H2        1.0  0.50735  0.39592  0.16401  1.0000 0.1323369759
H   H3        1.0  0.75997  0.45365  0.34270  1.0000 0.1502765575
H   H4        1.0  0.47587  0.22467  0.30400  1.0000 0.1502765575
H   H5        1.0  0.00607  0.17508  0.97111  1.0000 0.3926974628
H   H6        1.0  0.23191  0.34334  0.83599  1.0000 0.1323369759
H   H7        1.0  0.11095  0.41727  0.65730  1.0000 0.1502765575
H   H8        1.0  0.92067  0.17187  0.69600  1.0000 0.1502765575
H   H9        1.0  0.03496  0.00607  0.83099  1.0000 0.3926974628
H   H10       1.0  0.39592  0.23191  0.88857  1.0000 0.1323369759
H   H11       1.0  0.45365  0.11095  0.69368  1.0000 0.1502765575
H   H12       1.0  0.22467  0.92067  0.74880  1.0000 0.1502765575
H   H13       1.0  0.17508  0.20397  0.16901  1.0000 0.3926974628
H   H14       1.0  0.34334  0.50735  0.11143  1.0000 0.1323369759
H   H15       1.0  0.41727  0.75997  0.30632  1.0000 0.1502765575
H   H16       1.0  0.17187  0.47587  0.25120  1.0000 0.1502765575
H   H17       1.0  0.79603  0.96504  0.97111  1.0000 0.3926974628
H   H18       1.0  0.49265  0.60408  0.83599  1.0000 0.1323369759
H   H19       1.0  0.24003  0.54635  0.65730  1.0000 0.1502765575
H   H20       1.0  0.52413  0.77533  0.69600  1.0000 0.1502765575
H   H21       1.0  0.99393  0.82492  0.02889  1.0000 0.3926974628
H   H22       1.0  0.76809  0.65666  0.16401  1.0000 0.1323369759
H   H23       1.0  0.88905  0.58273  0.34270  1.0000 0.1502765575
H   H24       1.0  0.07933  0.82813  0.30400  1.0000 0.1502765575
H   H25       1.0  0.96504  0.99393  0.16901  1.0000 0.3926974628
H   H26       1.0  0.60408  0.76809  0.11143  1.0000 0.1323369759
H   H27       1.0  0.54635  0.88905  0.30632  1.0000 0.1502765575
H   H28       1.0  0.77533  0.07933  0.25120  1.0000 0.1502765575
H   H29       1.0  0.82492  0.79603  0.83099  1.0000 0.3926974628
H   H30       1.0  0.65666  0.49265  0.88857  1.0000 0.1323369759
H   H31       1.0  0.58273  0.24003  0.69368  1.0000 0.1502765575
H   H32       1.0  0.82813  0.52413  0.74880  1.0000 0.1502765575
H   H33       1.0  0.65894  0.51941  0.17835  1.0000 0.2825270909
H   H34       1.0  0.34106  0.48059  0.82165  1.0000 0.2825270909
H   H35       1.0  0.51941  0.34106  0.86047  1.0000 0.2825270909
H   H36       1.0  0.48059  0.65894  0.13953  1.0000 0.2825270909
H   H37       1.0  0.24720  0.16550  0.41270  1.0000 0.0843895071
H   H38       1.0  0.75280  0.83450  0.58730  1.0000 0.0843895071
H   H39       1.0  0.16550  0.75280  0.91830  1.0000 0.0854907873
H   H40       1.0  0.83450  0.24720  0.08170  1.0000 0.0843895071
C   C1        1.0  0.35770  0.23460  0.17830  1.0000 0.6216972191
C   C2        1.0  0.47430  0.30320  0.22870  1.0000 -0.0046799719
C   C3        1.0  0.53820  0.38340  0.20880  1.0000 -0.2095046398
C   C4        1.0  0.64550  0.44590  0.25180  1.0000 0.212951336
C   C5        1.0  0.68890  0.42430  0.31320  1.0000 -0.1684299615
C   C6        1.0  0.62650  0.34310  0.33300  1.0000 0.0170614877
C   C7        1.0  0.51850  0.28100  0.29070  1.0000 -0.0952620116
C   C8        1.0  0.67530  0.31770  0.39820  1.0000 0.5582802686
C   C9        1.0  0.05630  0.17940  0.82170  1.0000 0.6216972191
C   C10       1.0  0.07450  0.24560  0.77130  1.0000 -0.0051075612
C   C11       1.0  0.17460  0.32940  0.79120  1.0000 -0.2095046398
C   C12       1.0  0.19410  0.39370  0.74820  1.0000 0.212951336
C   C13       1.0  0.11110  0.37570  0.68680  1.0000 -0.1684299615
C   C14       1.0  0.01010  0.29350  0.66700  1.0000 0.0170614877
C   C15       1.0  0.99030  0.22780  0.70930  1.0000 -0.0947465506
C   C16       1.0  0.91950  0.27710  0.60180  1.0000 0.5582802686
C   C17       1.0  0.23460  0.05630  0.87690  1.0000 0.6216972191
C   C18       1.0  0.30320  0.07450  0.82890  1.0000 -0.0046799719
C   C19       1.0  0.38340  0.17460  0.84520  1.0000 -0.2095046398
C   C20       1.0  0.44590  0.19410  0.80040  1.0000 0.212951336
C   C21       1.0  0.42430  0.11110  0.73540  1.0000 -0.1684299615
C   C22       1.0  0.34310  0.01010  0.71660  1.0000 0.0170614877
C   C23       1.0  0.28100  0.99030  0.76250  1.0000 -0.0947465506
C   C24       1.0  0.31770  0.91950  0.64240  1.0000 0.5582802686
C   C25       1.0  0.17940  0.35770  0.12310  1.0000 0.6216972191
C   C26       1.0  0.24560  0.47430  0.17110  1.0000 -0.0046799719
C   C27       1.0  0.32940  0.53820  0.15480  1.0000 -0.2095046398
C   C28       1.0  0.39370  0.64550  0.19960  1.0000 0.212951336
C   C29       1.0  0.37570  0.68890  0.26460  1.0000 -0.1684299615
C   C30       1.0  0.29350  0.62650  0.28340  1.0000 0.0170614877
C   C31       1.0  0.22780  0.51850  0.23750  1.0000 -0.0947465506
C   C32       1.0  0.27710  0.67530  0.35760  1.0000 0.5582802686
C   C33       1.0  0.64230  0.76540  0.82170  1.0000 0.6216972191
C   C34       1.0  0.52570  0.69680  0.77130  1.0000 -0.0051075612
C   C35       1.0  0.46180  0.61660  0.79120  1.0000 -0.2095046398
C   C36       1.0  0.35450  0.55410  0.74820  1.0000 0.212951336
C   C37       1.0  0.31110  0.57570  0.68680  1.0000 -0.1684299615
C   C38       1.0  0.37350  0.65690  0.66700  1.0000 0.0170614877
C   C39       1.0  0.48150  0.71900  0.70930  1.0000 -0.0947465506
C   C40       1.0  0.32470  0.68230  0.60180  1.0000 0.5582802686
C   C41       1.0  0.94370  0.82060  0.17830  1.0000 0.6216972191
C   C42       1.0  0.92550  0.75440  0.22870  1.0000 -0.0046799719
C   C43       1.0  0.82540  0.67060  0.20880  1.0000 -0.2095046398
C   C44       1.0  0.80590  0.60630  0.25180  1.0000 0.212951336
C   C45       1.0  0.88890  0.62430  0.31320  1.0000 -0.1684299615
C   C46       1.0  0.98990  0.70650  0.33300  1.0000 0.0170614877
C   C47       1.0  0.00970  0.77220  0.29070  1.0000 -0.0952620116
C   C48       1.0  0.08050  0.72290  0.39820  1.0000 0.5582802686
C   C49       1.0  0.76540  0.94370  0.12310  1.0000 0.6216972191
C   C50       1.0  0.69680  0.92550  0.17110  1.0000 -0.0051075612
C   C51       1.0  0.61660  0.82540  0.15480  1.0000 -0.2095046398
C   C52       1.0  0.55410  0.80590  0.19960  1.0000 0.212951336
C   C53       1.0  0.57570  0.88890  0.26460  1.0000 -0.1684299615
C   C54       1.0  0.65690  0.98990  0.28340  1.0000 0.0170614877
C   C55       1.0  0.71900  0.00970  0.23750  1.0000 -0.0952620116
C   C56       1.0  0.68230  0.08050  0.35760  1.0000 0.5582802686
C   C57       1.0  0.82060  0.64230  0.87690  1.0000 0.6216972191
C   C58       1.0  0.75440  0.52570  0.82890  1.0000 -0.0046799719
C   C59       1.0  0.67060  0.46180  0.84520  1.0000 -0.2095046398
C   C60       1.0  0.60630  0.35450  0.80040  1.0000 0.212951336
C   C61       1.0  0.62430  0.31110  0.73540  1.0000 -0.1684299615
C   C62       1.0  0.70650  0.37350  0.71660  1.0000 0.0170614877
C   C63       1.0  0.77220  0.48150  0.76250  1.0000 -0.0952620116
C   C64       1.0  0.72290  0.32470  0.64240  1.0000 0.5582802686
C   C65       1.0  0.22170  0.12810  0.34980  1.0000 0.4647157657
C   C66       1.0  0.77830  0.87190  0.65020  1.0000 0.4655296672
C   C67       1.0  0.12810  0.77830  0.90640  1.0000 0.4655296672
C   C68       1.0  0.87190  0.22170  0.09360  1.0000 0.4647157657
N   N1        1.0  0.70060  0.52360  0.22420  1.0000 -0.3106924576
N   N2        1.0  0.29940  0.47640  0.77580  1.0000 -0.3106924576
N   N3        1.0  0.52360  0.29940  0.82300  1.0000 -0.3106924576
N   N4        1.0  0.47640  0.70060  0.17700  1.0000 -0.3106924576
O   O1        1.0  0.30400  0.16470  0.20190  1.0000 -0.6033925396
O   O2        1.0  0.32360  0.25220  0.11560  1.0000 -0.6070067045
O   O3        1.0  0.61390  0.24030  0.41360  1.0000 -0.5782562998
O   O4        1.0  0.77230  0.36680  0.43390  1.0000 -0.5536065903
O   O5        1.0  0.14780  0.02770  0.02410  1.0000 -0.9577808511
O   O6        1.0  0.96280  0.10210  0.79810  1.0000 -0.6033925396
O   O7        1.0  0.13660  0.20800  0.88440  1.0000 -0.6070067045
O   O8        1.0  0.82670  0.20030  0.58640  1.0000 -0.5782562998
O   O9        1.0  0.93290  0.33840  0.56610  1.0000 -0.5536065903
O   O10       1.0  0.00360  0.12370  0.97590  1.0000 -0.9577808511
O   O11       1.0  0.16470  0.96280  0.86070  1.0000 -0.6033925396
O   O12       1.0  0.25220  0.13660  0.92860  1.0000 -0.6070067045
O   O13       1.0  0.24030  0.82670  0.62640  1.0000 -0.5782562998
O   O14       1.0  0.36680  0.93290  0.59450  1.0000 -0.5536065903
O   O15       1.0  0.02770  0.00360  0.87990  1.0000 -0.9577808511
O   O16       1.0  0.10210  0.30400  0.13930  1.0000 -0.6033925396
O   O17       1.0  0.20800  0.32360  0.07140  1.0000 -0.6070067045
O   O18       1.0  0.20030  0.61390  0.37360  1.0000 -0.5782562998
O   O19       1.0  0.33840  0.77230  0.40550  1.0000 -0.5536065903
O   O20       1.0  0.12370  0.14780  0.12010  1.0000 -0.9577808511
O   O21       1.0  0.69600  0.83530  0.79810  1.0000 -0.6033925396
O   O22       1.0  0.67640  0.74780  0.88440  1.0000 -0.6070067045
O   O23       1.0  0.38610  0.75970  0.58640  1.0000 -0.5782562998
O   O24       1.0  0.22770  0.63320  0.56610  1.0000 -0.5536065903
O   O25       1.0  0.85220  0.97230  0.97590  1.0000 -0.9577808511
O   O26       1.0  0.03720  0.89790  0.20190  1.0000 -0.6033925396
O   O27       1.0  0.86340  0.79200  0.11560  1.0000 -0.6070067045
O   O28       1.0  0.17330  0.79970  0.41360  1.0000 -0.5782562998
O   O29       1.0  0.06710  0.66160  0.43390  1.0000 -0.5536065903
O   O30       1.0  0.99640  0.87630  0.02410  1.0000 -0.9577808511
O   O31       1.0  0.83530  0.03720  0.13930  1.0000 -0.6033925396
O   O32       1.0  0.74780  0.86340  0.07140  1.0000 -0.6070067045
O   O33       1.0  0.75970  0.17330  0.37360  1.0000 -0.5782562998
O   O34       1.0  0.63320  0.06710  0.40550  1.0000 -0.5536065903
O   O35       1.0  0.97230  0.99640  0.12010  1.0000 -0.9577808511
O   O36       1.0  0.89790  0.69600  0.86070  1.0000 -0.6033925396
O   O37       1.0  0.79200  0.67640  0.92860  1.0000 -0.6070067045
O   O38       1.0  0.79970  0.38610  0.62640  1.0000 -0.5782562998
O   O39       1.0  0.66160  0.22770  0.59450  1.0000 -0.5536065903
O   O40       1.0  0.87630  0.85220  0.87990  1.0000 -0.9577808511
O   O41       1.0  0.16200  0.13220  0.29420  1.0000 -0.5316578579
O   O42       1.0  0.24860  0.07360  0.32220  1.0000 -0.4923550245
O   O43       1.0  0.83800  0.86780  0.70580  1.0000 -0.5316578579
O   O44       1.0  0.75140  0.92640  0.67780  1.0000 -0.4923550245
O   O45       1.0  0.13220  0.83800  0.97020  1.0000 -0.5316578579
O   O46       1.0  0.07360  0.75140  0.82500  1.0000 -0.4923550245
O   O47       1.0  0.86780  0.16200  0.02980  1.0000 -0.5316578579
O   O48       1.0  0.92640  0.24860  0.17500  1.0000 -0.4923550245
