# DDEC6 charges by PACMAN v1.1 (https://github.com/mtap-research/PACMAN-charge/)
data_2022[Cu][tbo]3[ASR]8
_chemical_formula_sum              "Cu12 H24 C72 O48"
_cell_length_a       18.6627
_cell_length_b       18.6627
_cell_length_c       18.6627
_cell_angle_alpha    60
_cell_angle_beta     60
_cell_angle_gamma    60

_symmetry_space_group_name_H-M    "P 1"
_symmetry_Int_Tables_number       1

loop_
  _symmetry_equiv_pos_as_xyz
  'x, y, z'

loop_
  _atom_site_type_symbol
  _atom_site_label
  _atom_site_symmetry_multiplicity
  _atom_site_fract_x
  _atom_site_fract_y
  _atom_site_fract_z
  _atom_site_occupancy
  _atom_site_charge
Cu  Cu1       1.0  0.57016  0.42984  0.00000  1.0000 0.8556080367
Cu  Cu2       1.0  0.42984  0.57016  0.00000  1.0000 0.8556080367
Cu  Cu3       1.0  0.00000  0.00000  0.57016  1.0000 0.8556080367
Cu  Cu4       1.0  0.00000  0.00000  0.42984  1.0000 0.8556080367
Cu  Cu5       1.0  0.00000  0.57016  0.42984  1.0000 0.8556080367
Cu  Cu6       1.0  0.00000  0.42984  0.57016  1.0000 0.8556080367
Cu  Cu7       1.0  0.57016  0.00000  0.00000  1.0000 0.8556080367
Cu  Cu8       1.0  0.42984  0.00000  0.00000  1.0000 0.8556080367
Cu  Cu9       1.0  0.42984  0.00000  0.57016  1.0000 0.8556080367
Cu  Cu10      1.0  0.57016  0.00000  0.42984  1.0000 0.8556080367
Cu  Cu11      1.0  0.00000  0.57016  0.00000  1.0000 0.8556080367
Cu  Cu12      1.0  0.00000  0.42984  0.00000  1.0000 0.8556080367
H   H1        1.0  0.51493  0.72849  0.02809  1.0000 0.1375506315
H   H2        1.0  0.72849  0.51493  0.72849  1.0000 0.1375506315
H   H3        1.0  0.02809  0.72849  0.51493  1.0000 0.1375506315
H   H4        1.0  0.72849  0.02809  0.72849  1.0000 0.1375506315
H   H5        1.0  0.02809  0.51493  0.72849  1.0000 0.1375506315
H   H6        1.0  0.72849  0.72849  0.51493  1.0000 0.1375506315
H   H7        1.0  0.51493  0.02809  0.72849  1.0000 0.1375506315
H   H8        1.0  0.72849  0.72849  0.02809  1.0000 0.1375506315
H   H9        1.0  0.72849  0.02809  0.51493  1.0000 0.1375506315
H   H10       1.0  0.51493  0.72849  0.72849  1.0000 0.1375506315
H   H11       1.0  0.72849  0.51493  0.02809  1.0000 0.1375506315
H   H12       1.0  0.02809  0.72849  0.72849  1.0000 0.1375506315
H   H13       1.0  0.48507  0.27151  0.27151  1.0000 0.1375506315
H   H14       1.0  0.27151  0.48507  0.97191  1.0000 0.1375506315
H   H15       1.0  0.97191  0.27151  0.27151  1.0000 0.1375506315
H   H16       1.0  0.27151  0.97191  0.48507  1.0000 0.1375506315
H   H17       1.0  0.97191  0.48507  0.27151  1.0000 0.1375506315
H   H18       1.0  0.27151  0.27151  0.97191  1.0000 0.1375506315
H   H19       1.0  0.48507  0.97191  0.27151  1.0000 0.1375506315
H   H20       1.0  0.27151  0.27151  0.48507  1.0000 0.1375506315
H   H21       1.0  0.27151  0.97191  0.27151  1.0000 0.1375506315
H   H22       1.0  0.48507  0.27151  0.97191  1.0000 0.1375506315
H   H23       1.0  0.27151  0.48507  0.27151  1.0000 0.1375506315
H   H24       1.0  0.97191  0.27151  0.48507  1.0000 0.1375506315
C   C1        1.0  0.56970  0.56970  0.02270  1.0000 0.5834248196
C   C2        1.0  0.61350  0.61350  0.03110  1.0000 -0.0196894029
C   C3        1.0  0.56970  0.56970  0.83790  1.0000 0.5834248196
C   C4        1.0  0.61350  0.61350  0.74190  1.0000 -0.0196894029
C   C5        1.0  0.02270  0.83790  0.56970  1.0000 0.5834248196
C   C6        1.0  0.03110  0.74190  0.61350  1.0000 -0.0196894029
C   C7        1.0  0.83790  0.02270  0.56970  1.0000 0.5834248196
C   C8        1.0  0.74190  0.03110  0.61350  1.0000 -0.0196894029
C   C9        1.0  0.02270  0.56970  0.56970  1.0000 0.5834248196
C   C10       1.0  0.03110  0.61350  0.61350  1.0000 -0.0196894029
C   C11       1.0  0.83790  0.56970  0.56970  1.0000 0.5834248196
C   C12       1.0  0.74190  0.61350  0.61350  1.0000 -0.0196894029
C   C13       1.0  0.56970  0.02270  0.83790  1.0000 0.5834248196
C   C14       1.0  0.61350  0.03110  0.74190  1.0000 -0.0196894029
C   C15       1.0  0.56970  0.83790  0.02270  1.0000 0.5834248196
C   C16       1.0  0.61350  0.74190  0.03110  1.0000 -0.0196894029
C   C17       1.0  0.56970  0.02270  0.56970  1.0000 0.5834248196
C   C18       1.0  0.61350  0.03110  0.61350  1.0000 -0.0196894029
C   C19       1.0  0.56970  0.83790  0.56970  1.0000 0.5834248196
C   C20       1.0  0.61350  0.74190  0.61350  1.0000 -0.0196894029
C   C21       1.0  0.83790  0.56970  0.02270  1.0000 0.5834248196
C   C22       1.0  0.74190  0.61350  0.03110  1.0000 -0.0196894029
C   C23       1.0  0.02270  0.56970  0.83790  1.0000 0.5834248196
C   C24       1.0  0.03110  0.61350  0.74190  1.0000 -0.0196894029
C   C25       1.0  0.43030  0.43030  0.16210  1.0000 0.5834248196
C   C26       1.0  0.38650  0.38650  0.25810  1.0000 -0.0196894029
C   C27       1.0  0.43030  0.43030  0.97730  1.0000 0.5834248196
C   C28       1.0  0.38650  0.38650  0.96890  1.0000 -0.0196894029
C   C29       1.0  0.97730  0.16210  0.43030  1.0000 0.5834248196
C   C30       1.0  0.96890  0.25810  0.38650  1.0000 -0.0196894029
C   C31       1.0  0.16210  0.97730  0.43030  1.0000 0.5834248196
C   C32       1.0  0.25810  0.96890  0.38650  1.0000 -0.0196894029
C   C33       1.0  0.97730  0.43030  0.16210  1.0000 0.5834248196
C   C34       1.0  0.96890  0.38650  0.25810  1.0000 -0.0196894029
C   C35       1.0  0.16210  0.43030  0.97730  1.0000 0.5834248196
C   C36       1.0  0.25810  0.38650  0.96890  1.0000 -0.0196894029
C   C37       1.0  0.43030  0.97730  0.43030  1.0000 0.5834248196
C   C38       1.0  0.38650  0.96890  0.38650  1.0000 -0.0196894029
C   C39       1.0  0.43030  0.16210  0.43030  1.0000 0.5834248196
C   C40       1.0  0.38650  0.25810  0.38650  1.0000 -0.0196894029
C   C41       1.0  0.43030  0.97730  0.16210  1.0000 0.5834248196
C   C42       1.0  0.38650  0.96890  0.25810  1.0000 -0.0196894029
C   C43       1.0  0.43030  0.16210  0.97730  1.0000 0.5834248196
C   C44       1.0  0.38650  0.25810  0.96890  1.0000 -0.0196894029
C   C45       1.0  0.16210  0.43030  0.43030  1.0000 0.5834248196
C   C46       1.0  0.25810  0.38650  0.38650  1.0000 -0.0196894029
C   C47       1.0  0.97730  0.43030  0.43030  1.0000 0.5834248196
C   C48       1.0  0.96890  0.38650  0.38650  1.0000 -0.0196894029
C   C49       1.0  0.57180  0.69920  0.02980  1.0000 -0.0842314928
C   C50       1.0  0.69920  0.57180  0.69920  1.0000 -0.0842314928
C   C51       1.0  0.02980  0.69920  0.57180  1.0000 -0.0842314928
C   C52       1.0  0.69920  0.02980  0.69920  1.0000 -0.0842314928
C   C53       1.0  0.02980  0.57180  0.69920  1.0000 -0.0842314928
C   C54       1.0  0.69920  0.69920  0.57180  1.0000 -0.0842314928
C   C55       1.0  0.57180  0.02980  0.69920  1.0000 -0.0842314928
C   C56       1.0  0.69920  0.69920  0.02980  1.0000 -0.0842314928
C   C57       1.0  0.69920  0.02980  0.57180  1.0000 -0.0842314928
C   C58       1.0  0.57180  0.69920  0.69920  1.0000 -0.0842314928
C   C59       1.0  0.69920  0.57180  0.02980  1.0000 -0.0842314928
C   C60       1.0  0.02980  0.69920  0.69920  1.0000 -0.0842314928
C   C61       1.0  0.42820  0.30080  0.30080  1.0000 -0.0842314928
C   C62       1.0  0.30080  0.42820  0.97020  1.0000 -0.0842314928
C   C63       1.0  0.97020  0.30080  0.30080  1.0000 -0.0842314928
C   C64       1.0  0.30080  0.97020  0.42820  1.0000 -0.0842314928
C   C65       1.0  0.97020  0.42820  0.30080  1.0000 -0.0842314928
C   C66       1.0  0.30080  0.30080  0.97020  1.0000 -0.0842314928
C   C67       1.0  0.42820  0.97020  0.30080  1.0000 -0.0842314928
C   C68       1.0  0.30080  0.30080  0.42820  1.0000 -0.0842314928
C   C69       1.0  0.30080  0.97020  0.30080  1.0000 -0.0842314928
C   C70       1.0  0.42820  0.30080  0.97020  1.0000 -0.0842314928
C   C71       1.0  0.30080  0.42820  0.30080  1.0000 -0.0842314928
C   C72       1.0  0.97020  0.30080  0.42820  1.0000 -0.0842314928
O   O1        1.0  0.61300  0.49220  0.02080  1.0000 -0.5224292868
O   O2        1.0  0.49220  0.61300  0.87400  1.0000 -0.5224292868
O   O3        1.0  0.02080  0.87400  0.61300  1.0000 -0.5224292868
O   O4        1.0  0.87400  0.02080  0.49220  1.0000 -0.5224292868
O   O5        1.0  0.02080  0.61300  0.49220  1.0000 -0.5224292868
O   O6        1.0  0.87400  0.49220  0.61300  1.0000 -0.5224292868
O   O7        1.0  0.61300  0.02080  0.87400  1.0000 -0.5224292868
O   O8        1.0  0.49220  0.87400  0.02080  1.0000 -0.5224292868
O   O9        1.0  0.49220  0.02080  0.61300  1.0000 -0.5224292868
O   O10       1.0  0.61300  0.87400  0.49220  1.0000 -0.5224292868
O   O11       1.0  0.87400  0.61300  0.02080  1.0000 -0.5224292868
O   O12       1.0  0.02080  0.49220  0.87400  1.0000 -0.5224292868
O   O13       1.0  0.38700  0.50780  0.12600  1.0000 -0.5224292868
O   O14       1.0  0.50780  0.38700  0.97920  1.0000 -0.5224292868
O   O15       1.0  0.97920  0.12600  0.50780  1.0000 -0.5224292868
O   O16       1.0  0.12600  0.97920  0.38700  1.0000 -0.5224292868
O   O17       1.0  0.97920  0.38700  0.12600  1.0000 -0.5224292868
O   O18       1.0  0.12600  0.50780  0.97920  1.0000 -0.5224292868
O   O19       1.0  0.38700  0.97920  0.50780  1.0000 -0.5224292868
O   O20       1.0  0.50780  0.12600  0.38700  1.0000 -0.5224292868
O   O21       1.0  0.50780  0.97920  0.12600  1.0000 -0.5224292868
O   O22       1.0  0.38700  0.12600  0.97920  1.0000 -0.5224292868
O   O23       1.0  0.12600  0.38700  0.50780  1.0000 -0.5224292868
O   O24       1.0  0.97920  0.50780  0.38700  1.0000 -0.5224292868
O   O25       1.0  0.38700  0.50780  0.97920  1.0000 -0.5224292868
O   O26       1.0  0.50780  0.38700  0.12600  1.0000 -0.5224292868
O   O27       1.0  0.97920  0.12600  0.38700  1.0000 -0.5224292868
O   O28       1.0  0.12600  0.97920  0.50780  1.0000 -0.5224292868
O   O29       1.0  0.97920  0.38700  0.50780  1.0000 -0.5224292868
O   O30       1.0  0.12600  0.50780  0.38700  1.0000 -0.5224292868
O   O31       1.0  0.38700  0.97920  0.12600  1.0000 -0.5224292868
O   O32       1.0  0.50780  0.12600  0.97920  1.0000 -0.5224292868
O   O33       1.0  0.50780  0.97920  0.38700  1.0000 -0.5224292868
O   O34       1.0  0.38700  0.12600  0.50780  1.0000 -0.5224292868
O   O35       1.0  0.12600  0.38700  0.97920  1.0000 -0.5224292868
O   O36       1.0  0.97920  0.50780  0.12600  1.0000 -0.5224292868
O   O37       1.0  0.61300  0.49220  0.87400  1.0000 -0.5224292868
O   O38       1.0  0.49220  0.61300  0.02080  1.0000 -0.5224292868
O   O39       1.0  0.02080  0.87400  0.49220  1.0000 -0.5224292868
O   O40       1.0  0.87400  0.02080  0.61300  1.0000 -0.5224292868
O   O41       1.0  0.02080  0.61300  0.87400  1.0000 -0.5224292868
O   O42       1.0  0.87400  0.49220  0.02080  1.0000 -0.5224292868
O   O43       1.0  0.61300  0.02080  0.49220  1.0000 -0.5224292868
O   O44       1.0  0.49220  0.87400  0.61300  1.0000 -0.5224292868
O   O45       1.0  0.49220  0.02080  0.87400  1.0000 -0.5224292868
O   O46       1.0  0.61300  0.87400  0.02080  1.0000 -0.5224292868
O   O47       1.0  0.87400  0.61300  0.49220  1.0000 -0.5224292868
O   O48       1.0  0.02080  0.49220  0.61300  1.0000 -0.5224292868
