# DDEC6 charges by PACMAN v1.1 (https://github.com/mtap-research/PACMAN-charge/)
data_2022[ZnMg][rtl]3[ASR]1
_chemical_formula_sum              "Mg4 Zn8 P8 H24 C64 O56"
_cell_length_a       13.034
_cell_length_b       13.034
_cell_length_c       23.737
_cell_angle_alpha    90
_cell_angle_beta     90
_cell_angle_gamma    90

_symmetry_space_group_name_H-M    "P 1"
_symmetry_Int_Tables_number       1

loop_
  _symmetry_equiv_pos_as_xyz
  'x, y, z'

loop_
  _atom_site_type_symbol
  _atom_site_label
  _atom_site_symmetry_multiplicity
  _atom_site_fract_x
  _atom_site_fract_y
  _atom_site_fract_z
  _atom_site_occupancy
  _atom_site_charge
Mg  Mg1       1.0  0.65383  0.65383  0.00000  1.0000 1.4933963294
Mg  Mg2       1.0  0.34617  0.34617  0.50000  1.0000 1.4933963294
Mg  Mg3       1.0  0.84617  0.15383  0.75000  1.0000 1.4933963294
Mg  Mg4       1.0  0.15383  0.84617  0.25000  1.0000 1.4933963294
Zn  Zn1       1.0  0.50376  0.47180  0.09399  1.0000 0.9997696752
Zn  Zn2       1.0  0.49624  0.52820  0.59399  1.0000 0.9997696752
Zn  Zn3       1.0  0.02820  0.00376  0.84399  1.0000 0.9997696752
Zn  Zn4       1.0  0.97180  0.99624  0.34399  1.0000 0.9997696752
Zn  Zn5       1.0  0.99624  0.97180  0.65601  1.0000 0.9997696752
Zn  Zn6       1.0  0.00376  0.02820  0.15601  1.0000 0.9997696752
Zn  Zn7       1.0  0.47180  0.50376  0.90601  1.0000 0.9997696752
Zn  Zn8       1.0  0.52820  0.49624  0.40601  1.0000 0.9997696752
P   P1        1.0  0.40200  0.61590  0.01358  1.0000 1.3070145274
P   P2        1.0  0.59800  0.38410  0.51358  1.0000 1.3070145274
P   P3        1.0  0.88410  0.90200  0.76358  1.0000 1.3070145274
P   P4        1.0  0.11590  0.09800  0.26358  1.0000 1.3070145274
P   P5        1.0  0.09800  0.11590  0.73642  1.0000 1.3070145274
P   P6        1.0  0.90200  0.88410  0.23642  1.0000 1.3070145274
P   P7        1.0  0.61590  0.40200  0.98642  1.0000 1.3070145274
P   P8        1.0  0.38410  0.59800  0.48642  1.0000 1.3070145274
H   H1        1.0  0.29639  0.73507  0.09972  1.0000 0.1399837384
H   H2        1.0  0.11897  0.93013  0.01200  1.0000 0.1399837384
H   H3        1.0  0.30138  0.73080  0.93047  1.0000 0.1399837384
H   H4        1.0  0.70361  0.26493  0.59972  1.0000 0.1399837384
H   H5        1.0  0.88103  0.06987  0.51200  1.0000 0.1399837384
H   H6        1.0  0.69862  0.26920  0.43047  1.0000 0.1399837384
H   H7        1.0  0.76493  0.79639  0.84972  1.0000 0.1399837384
H   H8        1.0  0.56987  0.61897  0.76200  1.0000 0.1399837384
H   H9        1.0  0.76920  0.80138  0.68047  1.0000 0.1399837384
H   H10       1.0  0.23507  0.20361  0.34972  1.0000 0.1399837384
H   H11       1.0  0.43013  0.38103  0.26200  1.0000 0.1399837384
H   H12       1.0  0.23080  0.19862  0.18047  1.0000 0.1399837384
H   H13       1.0  0.20361  0.23507  0.65028  1.0000 0.1399837384
H   H14       1.0  0.38103  0.43013  0.73800  1.0000 0.1399837384
H   H15       1.0  0.19862  0.23080  0.81953  1.0000 0.1399837384
H   H16       1.0  0.79639  0.76493  0.15028  1.0000 0.1399837384
H   H17       1.0  0.61897  0.56987  0.23800  1.0000 0.1399837384
H   H18       1.0  0.80138  0.76920  0.31953  1.0000 0.1399837384
H   H19       1.0  0.73507  0.29639  0.90028  1.0000 0.1399837384
H   H20       1.0  0.93013  0.11897  0.98800  1.0000 0.1399837384
H   H21       1.0  0.73080  0.30138  0.06953  1.0000 0.1399837384
H   H22       1.0  0.26493  0.70361  0.40028  1.0000 0.1399837384
H   H23       1.0  0.06987  0.88103  0.48800  1.0000 0.1399837384
H   H24       1.0  0.26920  0.69862  0.56953  1.0000 0.1399837384
C   C1        1.0  0.31080  0.71990  0.01530  1.0000 -0.1273741567
C   C2        1.0  0.27330  0.76060  0.06540  1.0000 -0.0786387197
C   C3        1.0  0.20150  0.83930  0.06410  1.0000 0.0096941053
C   C4        1.0  0.16710  0.87740  0.01280  1.0000 -0.0982075216
C   C5        1.0  0.20450  0.83680  0.96270  1.0000 0.0096941053
C   C6        1.0  0.27630  0.75800  0.96400  1.0000 -0.0786387197
C   C7        1.0  0.16030  0.88160  0.11950  1.0000 0.6100193436
C   C8        1.0  0.16200  0.87820  0.90510  1.0000 0.5407925124
C   C9        1.0  0.68920  0.28010  0.51530  1.0000 -0.1273741567
C   C10       1.0  0.72670  0.23940  0.56540  1.0000 -0.0786387197
C   C11       1.0  0.79850  0.16070  0.56410  1.0000 0.0096941053
C   C12       1.0  0.83290  0.12260  0.51280  1.0000 -0.0982075216
C   C13       1.0  0.79550  0.16320  0.46270  1.0000 0.0096941053
C   C14       1.0  0.72370  0.24200  0.46400  1.0000 -0.0786387197
C   C15       1.0  0.83970  0.11840  0.61950  1.0000 0.6100193436
C   C16       1.0  0.83800  0.12180  0.40510  1.0000 0.5407925124
C   C17       1.0  0.78010  0.81080  0.76530  1.0000 -0.1273741567
C   C18       1.0  0.73940  0.77330  0.81540  1.0000 -0.0786387197
C   C19       1.0  0.66070  0.70150  0.81410  1.0000 0.0096941053
C   C20       1.0  0.62260  0.66710  0.76280  1.0000 -0.0982075216
C   C21       1.0  0.66320  0.70450  0.71270  1.0000 0.0096941053
C   C22       1.0  0.74200  0.77630  0.71400  1.0000 -0.0786387197
C   C23       1.0  0.61840  0.66030  0.86950  1.0000 0.6100193436
C   C24       1.0  0.62180  0.66200  0.65510  1.0000 0.5407925124
C   C25       1.0  0.21990  0.18920  0.26530  1.0000 -0.1273741567
C   C26       1.0  0.26060  0.22670  0.31540  1.0000 -0.0786387197
C   C27       1.0  0.33930  0.29850  0.31410  1.0000 0.0096941053
C   C28       1.0  0.37740  0.33290  0.26280  1.0000 -0.0982075216
C   C29       1.0  0.33680  0.29550  0.21270  1.0000 0.0096941053
C   C30       1.0  0.25800  0.22370  0.21400  1.0000 -0.0786387197
C   C31       1.0  0.38160  0.33970  0.36950  1.0000 0.6100193436
C   C32       1.0  0.37820  0.33800  0.15510  1.0000 0.5407925124
C   C33       1.0  0.18920  0.21990  0.73470  1.0000 -0.1273741567
C   C34       1.0  0.22670  0.26060  0.68460  1.0000 -0.0786387197
C   C35       1.0  0.29850  0.33930  0.68590  1.0000 0.0096941053
C   C36       1.0  0.33290  0.37740  0.73720  1.0000 -0.0982075216
C   C37       1.0  0.29550  0.33680  0.78730  1.0000 0.0096941053
C   C38       1.0  0.22370  0.25800  0.78600  1.0000 -0.0786387197
C   C39       1.0  0.33970  0.38160  0.63050  1.0000 0.6100193436
C   C40       1.0  0.33800  0.37820  0.84490  1.0000 0.5407925124
C   C41       1.0  0.81080  0.78010  0.23470  1.0000 -0.1273741567
C   C42       1.0  0.77330  0.73940  0.18460  1.0000 -0.0786387197
C   C43       1.0  0.70150  0.66070  0.18590  1.0000 0.0096941053
C   C44       1.0  0.66710  0.62260  0.23720  1.0000 -0.0982075216
C   C45       1.0  0.70450  0.66320  0.28730  1.0000 0.0096941053
C   C46       1.0  0.77630  0.74200  0.28600  1.0000 -0.0786387197
C   C47       1.0  0.66030  0.61840  0.13050  1.0000 0.6100193436
C   C48       1.0  0.66200  0.62180  0.34490  1.0000 0.5407925124
C   C49       1.0  0.71990  0.31080  0.98470  1.0000 -0.1273741567
C   C50       1.0  0.76060  0.27330  0.93460  1.0000 -0.0786387197
C   C51       1.0  0.83930  0.20150  0.93590  1.0000 0.0096941053
C   C52       1.0  0.87740  0.16710  0.98720  1.0000 -0.0982075216
C   C53       1.0  0.83680  0.20450  0.03730  1.0000 0.0096941053
C   C54       1.0  0.75800  0.27630  0.03600  1.0000 -0.0786387197
C   C55       1.0  0.88160  0.16030  0.88050  1.0000 0.6100193436
C   C56       1.0  0.87820  0.16200  0.09490  1.0000 0.5407925124
C   C57       1.0  0.28010  0.68920  0.48470  1.0000 -0.1273741567
C   C58       1.0  0.23940  0.72670  0.43460  1.0000 -0.0786387197
C   C59       1.0  0.16070  0.79850  0.43590  1.0000 0.0096941053
C   C60       1.0  0.12260  0.83290  0.48720  1.0000 -0.0982075216
C   C61       1.0  0.16320  0.79550  0.53730  1.0000 0.0096941053
C   C62       1.0  0.24200  0.72370  0.53600  1.0000 -0.0786387197
C   C63       1.0  0.11840  0.83970  0.38050  1.0000 0.6100193436
C   C64       1.0  0.12180  0.83800  0.59490  1.0000 0.5407925124
O   O1        1.0  0.40390  0.57040  0.06820  1.0000 -0.6858820741
O   O2        1.0  0.50540  0.67150  0.00070  1.0000 -0.9006550734
O   O3        1.0  0.37780  0.55070  0.96260  1.0000 -0.7026059603
O   O4        1.0  0.17700  0.83380  0.16290  1.0000 -0.5736391072
O   O5        1.0  0.11350  0.96390  0.11320  1.0000 -0.4874770542
O   O6        1.0  0.10630  0.95100  0.90740  1.0000 -0.4545400155
O   O7        1.0  0.18220  0.82900  0.86050  1.0000 -0.4559752469
O   O8        1.0  0.59610  0.42960  0.56820  1.0000 -0.6858820741
O   O9        1.0  0.49460  0.32850  0.50070  1.0000 -0.9006550734
O   O10       1.0  0.62220  0.44930  0.46260  1.0000 -0.7026059603
O   O11       1.0  0.82300  0.16620  0.66290  1.0000 -0.5736391072
O   O12       1.0  0.88650  0.03610  0.61320  1.0000 -0.4874770542
O   O13       1.0  0.89370  0.04900  0.40740  1.0000 -0.4545400155
O   O14       1.0  0.81780  0.17100  0.36050  1.0000 -0.4559752469
O   O15       1.0  0.92960  0.90390  0.81820  1.0000 -0.6858820741
O   O16       1.0  0.82850  0.00540  0.75070  1.0000 -0.9006550734
O   O17       1.0  0.94930  0.87780  0.71260  1.0000 -0.7026059603
O   O18       1.0  0.66620  0.67700  0.91290  1.0000 -0.5736391072
O   O19       1.0  0.53610  0.61350  0.86320  1.0000 -0.4874770542
O   O20       1.0  0.54900  0.60630  0.65740  1.0000 -0.4545400155
O   O21       1.0  0.67100  0.68220  0.61050  1.0000 -0.4559752469
O   O22       1.0  0.07040  0.09610  0.31820  1.0000 -0.6858820741
O   O23       1.0  0.17150  0.99460  0.25070  1.0000 -0.9006550734
O   O24       1.0  0.05070  0.12220  0.21260  1.0000 -0.7026059603
O   O25       1.0  0.33380  0.32300  0.41290  1.0000 -0.5736391072
O   O26       1.0  0.46390  0.38650  0.36320  1.0000 -0.4874770542
O   O27       1.0  0.45100  0.39370  0.15740  1.0000 -0.4545400155
O   O28       1.0  0.32900  0.31780  0.11050  1.0000 -0.4559752469
O   O29       1.0  0.09610  0.07040  0.68180  1.0000 -0.6858820741
O   O30       1.0  0.99460  0.17150  0.74930  1.0000 -0.9006550734
O   O31       1.0  0.12220  0.05070  0.78740  1.0000 -0.7026059603
O   O32       1.0  0.32300  0.33380  0.58710  1.0000 -0.5736391072
O   O33       1.0  0.38650  0.46390  0.63680  1.0000 -0.4874770542
O   O34       1.0  0.39370  0.45100  0.84260  1.0000 -0.4545400155
O   O35       1.0  0.31780  0.32900  0.88950  1.0000 -0.4559752469
O   O36       1.0  0.90390  0.92960  0.18180  1.0000 -0.6858820741
O   O37       1.0  0.00540  0.82850  0.24930  1.0000 -0.9006550734
O   O38       1.0  0.87780  0.94930  0.28740  1.0000 -0.7026059603
O   O39       1.0  0.67700  0.66620  0.08710  1.0000 -0.5736391072
O   O40       1.0  0.61350  0.53610  0.13680  1.0000 -0.4874770542
O   O41       1.0  0.60630  0.54900  0.34260  1.0000 -0.4545400155
O   O42       1.0  0.68220  0.67100  0.38950  1.0000 -0.4559752469
O   O43       1.0  0.57040  0.40390  0.93180  1.0000 -0.6858820741
O   O44       1.0  0.67150  0.50540  0.99930  1.0000 -0.9006550734
O   O45       1.0  0.55070  0.37780  0.03740  1.0000 -0.7026059603
O   O46       1.0  0.83380  0.17700  0.83710  1.0000 -0.5736391072
O   O47       1.0  0.96390  0.11350  0.88680  1.0000 -0.4874770542
O   O48       1.0  0.95100  0.10630  0.09260  1.0000 -0.4545400155
O   O49       1.0  0.82900  0.18220  0.13950  1.0000 -0.4559752469
O   O50       1.0  0.42960  0.59610  0.43180  1.0000 -0.6858820741
O   O51       1.0  0.32850  0.49460  0.49930  1.0000 -0.9006550734
O   O52       1.0  0.44930  0.62220  0.53740  1.0000 -0.7026059603
O   O53       1.0  0.16620  0.82300  0.33710  1.0000 -0.5736391072
O   O54       1.0  0.03610  0.88650  0.38680  1.0000 -0.4874770542
O   O55       1.0  0.04900  0.89370  0.59260  1.0000 -0.4545400155
O   O56       1.0  0.17100  0.81780  0.63950  1.0000 -0.4559752469
