# DDEC6 charges by PACMAN v1.1 (https://github.com/mtap-research/PACMAN-charge/)
data_2022[Cu][nan]3[ASR]2
_chemical_formula_sum              "Cu4 P8 H44 C52 O24"
_cell_length_a       15.2194
_cell_length_b       15.2194
_cell_length_c       10.56
_cell_angle_alpha    81.1904
_cell_angle_beta     98.8096
_cell_angle_gamma    133.178

_symmetry_space_group_name_H-M    "P 1"
_symmetry_Int_Tables_number       1

loop_
  _symmetry_equiv_pos_as_xyz
  'x, y, z'

loop_
  _atom_site_type_symbol
  _atom_site_label
  _atom_site_symmetry_multiplicity
  _atom_site_fract_x
  _atom_site_fract_y
  _atom_site_fract_z
  _atom_site_occupancy
  _atom_site_charge
Cu  Cu1       1.0  0.79818  0.34358  0.56233  1.0000 0.9998748133
Cu  Cu2       1.0  0.34358  0.79818  0.93767  1.0000 0.9998748133
Cu  Cu3       1.0  0.20182  0.65642  0.43767  1.0000 0.9998748133
Cu  Cu4       1.0  0.65642  0.20182  0.06233  1.0000 0.9998748133
P   P1        1.0  0.93887  0.56393  0.34416  1.0000 1.2500540742
P   P2        1.0  0.58591  0.21399  0.34830  1.0000 1.2168522009
P   P3        1.0  0.56393  0.93887  0.15584  1.0000 1.2500540742
P   P4        1.0  0.21399  0.58591  0.15170  1.0000 1.2168522009
P   P5        1.0  0.06113  0.43607  0.65584  1.0000 1.2500540742
P   P6        1.0  0.41409  0.78601  0.65170  1.0000 1.2168522009
P   P7        1.0  0.43607  0.06113  0.84416  1.0000 1.2500540742
P   P8        1.0  0.78601  0.41409  0.84830  1.0000 1.2168522009
H   H1        1.0  0.56180  0.07060  0.31700  1.0000 0.3757869134
H   H2        1.0  0.63490  0.32710  0.47000  1.0000 0.3262464458
H   H3        1.0  0.78830  0.42430  0.25430  1.0000 0.3537918308
H   H4        1.0  0.85660  0.65660  0.45480  1.0000 0.1097124175
H   H5        1.0  0.88190  0.82730  0.41240  1.0000 0.1097124175
H   H6        1.0  0.31970  0.25570  0.11500  1.0000 0.1097124175
H   H7        1.0  0.10450  0.94730  0.13410  1.0000 0.1097124175
H   H8        1.0  0.07460  0.77420  0.17340  1.0000 0.1097124175
H   H9        1.0  0.20200  0.05580  0.45210  1.0000 0.1097124175
H   H10       1.0  0.37660  0.08820  0.48890  1.0000 0.1182724962
H   H11       1.0  0.49150  0.28230  0.14640  1.0000 0.1097124175
H   H12       1.0  0.07060  0.56180  0.18300  1.0000 0.3757869134
H   H13       1.0  0.32710  0.63490  0.03000  1.0000 0.3262464458
H   H14       1.0  0.42430  0.78830  0.24570  1.0000 0.3537918308
H   H15       1.0  0.65660  0.85660  0.04520  1.0000 0.1097124175
H   H16       1.0  0.82730  0.88190  0.08760  1.0000 0.1097124175
H   H17       1.0  0.25570  0.31970  0.38500  1.0000 0.1097124175
H   H18       1.0  0.94730  0.10450  0.36590  1.0000 0.1097124175
H   H19       1.0  0.77420  0.07460  0.32660  1.0000 0.1097124175
H   H20       1.0  0.05580  0.20200  0.04790  1.0000 0.1097124175
H   H21       1.0  0.08820  0.37660  0.01110  1.0000 0.1182724962
H   H22       1.0  0.28230  0.49150  0.35360  1.0000 0.1097124175
H   H23       1.0  0.43820  0.92940  0.68300  1.0000 0.3757869134
H   H24       1.0  0.36510  0.67290  0.53000  1.0000 0.3262464458
H   H25       1.0  0.21170  0.57570  0.74570  1.0000 0.3537918308
H   H26       1.0  0.14340  0.34340  0.54520  1.0000 0.1097124175
H   H27       1.0  0.11810  0.17270  0.58760  1.0000 0.1097124175
H   H28       1.0  0.68030  0.74430  0.88500  1.0000 0.1097124175
H   H29       1.0  0.89550  0.05270  0.86590  1.0000 0.1097124175
H   H30       1.0  0.92540  0.22580  0.82660  1.0000 0.1097124175
H   H31       1.0  0.79800  0.94420  0.54790  1.0000 0.1097124175
H   H32       1.0  0.62340  0.91180  0.51110  1.0000 0.1182724962
H   H33       1.0  0.50850  0.71770  0.85360  1.0000 0.1097124175
H   H34       1.0  0.92940  0.43820  0.81700  1.0000 0.3757869134
H   H35       1.0  0.67290  0.36510  0.97000  1.0000 0.3262464458
H   H36       1.0  0.57570  0.21170  0.75430  1.0000 0.3537918308
H   H37       1.0  0.34340  0.14340  0.95480  1.0000 0.1097124175
H   H38       1.0  0.17270  0.11810  0.91240  1.0000 0.1097124175
H   H39       1.0  0.74430  0.68030  0.61500  1.0000 0.1097124175
H   H40       1.0  0.05270  0.89550  0.63410  1.0000 0.1097124175
H   H41       1.0  0.22580  0.92540  0.67340  1.0000 0.1097124175
H   H42       1.0  0.94420  0.79800  0.95210  1.0000 0.1097124175
H   H43       1.0  0.91180  0.62340  0.98890  1.0000 0.1182724962
H   H44       1.0  0.71770  0.50850  0.64640  1.0000 0.1097124175
C   C1        1.0  0.96332  0.69808  0.31970  1.0000 -0.2109069994
C   C2        1.0  0.99864  0.90656  0.27150  1.0000 0.0772021708
C   C3        1.0  0.90705  0.71555  0.38930  1.0000 -0.0766801929
C   C4        1.0  0.92297  0.81783  0.36490  1.0000 -0.1660466587
C   C5        1.0  0.32992  0.21928  0.18990  1.0000 -0.1585080812
C   C6        1.0  0.05414  0.88846  0.19970  1.0000 -0.1585080812
C   C7        1.0  0.03656  0.78564  0.22330  1.0000 -0.0735664445
C   C8        1.0  0.26077  0.10183  0.39000  1.0000 -0.1506297907
C   C9        1.0  0.36390  0.12030  0.41130  1.0000 -0.0735664445
C   C10       1.0  0.24208  0.15092  0.27690  1.0000 0.0772021708
C   C11       1.0  0.44993  0.18567  0.32000  1.0000 -0.2336413881
C   C12       1.0  0.43302  0.23638  0.20880  1.0000 -0.0766801929
C   C13       1.0  0.69808  0.96332  0.18030  1.0000 -0.2109069994
C   C14       1.0  0.90656  0.99864  0.22850  1.0000 0.0772021708
C   C15       1.0  0.71555  0.90705  0.11070  1.0000 -0.0766801929
C   C16       1.0  0.81783  0.92297  0.13510  1.0000 -0.1660466587
C   C17       1.0  0.21928  0.32992  0.31010  1.0000 -0.1585080812
C   C18       1.0  0.88846  0.05414  0.30030  1.0000 -0.1585080812
C   C19       1.0  0.78564  0.03656  0.27670  1.0000 -0.0735664445
C   C20       1.0  0.10183  0.26077  0.11000  1.0000 -0.1506297907
C   C21       1.0  0.12030  0.36390  0.08870  1.0000 -0.0735664445
C   C22       1.0  0.15092  0.24208  0.22310  1.0000 0.0772021708
C   C23       1.0  0.18567  0.44993  0.18000  1.0000 -0.2336413881
C   C24       1.0  0.23638  0.43302  0.29120  1.0000 -0.0766801929
C   C25       1.0  0.03668  0.30192  0.68030  1.0000 -0.2109069994
C   C26       1.0  0.00136  0.09344  0.72850  1.0000 0.0772021708
C   C27       1.0  0.09295  0.28445  0.61070  1.0000 -0.0766801929
C   C28       1.0  0.07703  0.18217  0.63510  1.0000 -0.1660466587
C   C29       1.0  0.67008  0.78072  0.81010  1.0000 -0.1585080812
C   C30       1.0  0.94586  0.11154  0.80030  1.0000 -0.1585080812
C   C31       1.0  0.96344  0.21436  0.77670  1.0000 -0.0735664445
C   C32       1.0  0.73923  0.89817  0.61000  1.0000 -0.1506297907
C   C33       1.0  0.63610  0.87970  0.58870  1.0000 -0.0735664445
C   C34       1.0  0.75792  0.84908  0.72310  1.0000 0.0772021708
C   C35       1.0  0.55007  0.81433  0.68000  1.0000 -0.2336413881
C   C36       1.0  0.56698  0.76362  0.79120  1.0000 -0.0766801929
C   C37       1.0  0.30192  0.03668  0.81970  1.0000 -0.2109069994
C   C38       1.0  0.09344  0.00136  0.77150  1.0000 0.0772021708
C   C39       1.0  0.28445  0.09295  0.88930  1.0000 -0.0766801929
C   C40       1.0  0.18217  0.07703  0.86490  1.0000 -0.1660466587
C   C41       1.0  0.78072  0.67008  0.68990  1.0000 -0.1585080812
C   C42       1.0  0.11154  0.94586  0.69970  1.0000 -0.1585080812
C   C43       1.0  0.21436  0.96344  0.72330  1.0000 -0.0735664445
C   C44       1.0  0.89817  0.73923  0.89000  1.0000 -0.1506297907
C   C45       1.0  0.87970  0.63610  0.91130  1.0000 -0.0735664445
C   C46       1.0  0.84908  0.75792  0.77690  1.0000 0.0772021708
C   C47       1.0  0.81433  0.55007  0.82000  1.0000 -0.2336413881
C   C48       1.0  0.76362  0.56698  0.70880  1.0000 -0.0766801929
C   C49       1.0  0.01870  0.01870  0.25000  1.0000 -0.0271508006
C   C50       1.0  0.13110  0.13110  0.25000  1.0000 -0.0420002939
C   C51       1.0  0.98130  0.98130  0.75000  1.0000 -0.0271508006
C   C52       1.0  0.86890  0.86890  0.75000  1.0000 -0.0420002939
O   O1        1.0  0.05859  0.60061  0.32750  1.0000 -0.763840886
O   O2        1.0  0.65508  0.27432  0.22890  1.0000 -0.7819856724
O   O3        1.0  0.88994  0.50546  0.47440  1.0000 -0.7819856724
O   O4        1.0  0.54735  0.08685  0.37890  1.0000 -0.5877029917
O   O5        1.0  0.65236  0.28344  0.46680  1.0000 -0.6199087014
O   O6        1.0  0.85443  0.48937  0.22830  1.0000 -0.6127454907
O   O7        1.0  0.60061  0.05859  0.17250  1.0000 -0.763840886
O   O8        1.0  0.27432  0.65508  0.27110  1.0000 -0.7819856724
O   O9        1.0  0.50546  0.88994  0.02560  1.0000 -0.7819856724
O   O10       1.0  0.08685  0.54735  0.12110  1.0000 -0.5877029917
O   O11       1.0  0.28344  0.65236  0.03320  1.0000 -0.6199087014
O   O12       1.0  0.48937  0.85443  0.27170  1.0000 -0.6127454907
O   O13       1.0  0.94141  0.39939  0.67250  1.0000 -0.763840886
O   O14       1.0  0.34492  0.72568  0.77110  1.0000 -0.7819856724
O   O15       1.0  0.11006  0.49454  0.52560  1.0000 -0.7819856724
O   O16       1.0  0.45265  0.91315  0.62110  1.0000 -0.5877029917
O   O17       1.0  0.34764  0.71656  0.53320  1.0000 -0.6199087014
O   O18       1.0  0.14557  0.51063  0.77170  1.0000 -0.6199087014
O   O19       1.0  0.39939  0.94141  0.82750  1.0000 -0.763840886
O   O20       1.0  0.72568  0.34492  0.72890  1.0000 -0.7819856724
O   O21       1.0  0.49454  0.11006  0.97440  1.0000 -0.7819856724
O   O22       1.0  0.91315  0.45265  0.87890  1.0000 -0.5877029917
O   O23       1.0  0.71656  0.34764  0.96680  1.0000 -0.6199087014
O   O24       1.0  0.51063  0.14557  0.72830  1.0000 -0.6127454907
