# DDEC6 charges by PACMAN v1.1 (https://github.com/mtap-research/PACMAN-charge/)
data_2022[Zn][lon]3[ASR]1
_chemical_formula_sum              "Zn2 H24 C18 N8 O6"
_cell_length_a       9.0839
_cell_length_b       9.5608
_cell_length_c       9.5994
_cell_angle_alpha    119.009
_cell_angle_beta     90.208
_cell_angle_gamma    95.611

_symmetry_space_group_name_H-M    "P 1"
_symmetry_Int_Tables_number       1

loop_
  _symmetry_equiv_pos_as_xyz
  'x, y, z'

loop_
  _atom_site_type_symbol
  _atom_site_label
  _atom_site_symmetry_multiplicity
  _atom_site_fract_x
  _atom_site_fract_y
  _atom_site_fract_z
  _atom_site_occupancy
  _atom_site_charge
Zn  Zn1       1.0  0.11511  0.40529  0.77874  1.0000 0.7111809493
Zn  Zn2       1.0  0.63875  0.58847  0.22272  1.0000 0.7111809493
H   H1        1.0  0.73126  0.84870  0.45976  1.0000 0.2960455657
H   H2        1.0  0.76905  0.86301  0.32147  1.0000 0.2708368392
H   H3        1.0  0.60230  0.39448  0.57998  1.0000 0.2708368392
H   H4        1.0  0.02584  0.12158  0.58364  1.0000 0.2708368392
H   H5        1.0  0.15722  0.16496  0.52324  1.0000 0.2874675334
H   H6        1.0  0.12916  0.61400  0.43866  1.0000 0.2708368392
H   H7        1.0  0.50316  0.90455  0.45392  1.0000 0.096919342
H   H8        1.0  0.52050  0.88476  0.28344  1.0000 0.096919342
H   H9        1.0  0.69181  0.12268  0.40148  1.0000 0.1410763838
H   H10       1.0  0.64892  0.14568  0.56860  1.0000 0.1410763838
H   H11       1.0  0.31092  0.40042  0.51489  1.0000 0.096919342
H   H12       1.0  0.50919  0.68309  0.69850  1.0000 0.1237782666
H   H13       1.0  0.33601  0.66851  0.70119  1.0000 0.1307904364
H   H14       1.0  0.63769  0.68742  0.94302  1.0000 0.1237782666
H   H15       1.0  0.32345  0.45194  0.05292  1.0000 0.096919342
H   H16       1.0  0.16875  0.10138  0.77055  1.0000 0.087256299
H   H17       1.0  0.30789  0.13361  0.69004  1.0000 0.087256299
H   H18       1.0  0.27749  0.86418  0.59143  1.0000 0.1410763838
H   H19       1.0  0.22242  0.88908  0.45077  1.0000 0.1410763838
H   H20       1.0  0.83306  0.60458  0.48812  1.0000 0.096919342
H   H21       1.0  0.98332  0.32681  0.31830  1.0000 0.1237782666
H   H22       1.0  0.81167  0.33138  0.31054  1.0000 0.1307904364
H   H23       1.0  0.10818  0.31742  0.07053  1.0000 0.1237782666
H   H24       1.0  0.82028  0.51720  0.93722  1.0000 0.096919342
C   C1        1.0  0.57190  0.92410  0.38660  1.0000 -0.0037074388
C   C2        1.0  0.61210  0.10280  0.45890  1.0000 -0.360518968
C   C3        1.0  0.48510  0.19180  0.45620  1.0000 0.5215950848
C   C4        1.0  0.41110  0.45660  0.53250  1.0000 0.0100919285
C   C5        1.0  0.43650  0.50550  0.40280  1.0000 0.5601475776
C   C6        1.0  0.42210  0.61330  0.69400  1.0000 -0.2891361325
C   C7        1.0  0.43150  0.58530  0.83390  1.0000 0.1812386305
C   C8        1.0  0.54830  0.63030  0.94180  1.0000 -0.1381869822
C   C9        1.0  0.37540  0.50100  0.00180  1.0000 0.1511154712
C   C10       1.0  0.20560  0.08550  0.66980  1.0000 0.0042824826
C   C11       1.0  0.20120  0.90660  0.55660  1.0000 -0.360518968
C   C12       1.0  0.05130  0.81610  0.54890  1.0000 0.5273066402
C   C13       1.0  0.92230  0.55090  0.47690  1.0000 0.0100919285
C   C14       1.0  0.93370  0.50670  0.61090  1.0000 0.5601475776
C   C15       1.0  0.90690  0.39080  0.31800  1.0000 -0.2891361325
C   C16       1.0  0.91910  0.41260  0.17370  1.0000 0.1812386305
C   C17       1.0  0.02660  0.36720  0.06650  1.0000 -0.1381869822
C   C18       1.0  0.86780  0.47690  0.99380  1.0000 0.1511154712
N   N1        1.0  0.69660  0.83020  0.36480  1.0000 -0.5198675751
N   N2        1.0  0.51670  0.35230  0.53120  1.0000 -0.3668104916
N   N3        1.0  0.32010  0.50260  0.87140  1.0000 -0.3668104916
N   N4        1.0  0.11820  0.17010  0.61030  1.0000 -0.5288587271
N   N5        1.0  0.05040  0.65600  0.48120  1.0000 -0.3668104916
N   N6        1.0  0.51230  0.57700  0.04920  1.0000 -0.3115976661
N   N7        1.0  0.99380  0.40770  0.95040  1.0000 -0.3115976661
N   N8        1.0  0.81800  0.48180  0.12610  1.0000 -0.3668104916
O   O1        1.0  0.36200  0.12100  0.39050  1.0000 -0.5288587271
O   O2        1.0  0.56820  0.49740  0.35480  1.0000 -0.5481007456
O   O3        1.0  0.33540  0.55620  0.36080  1.0000 -0.560335493
O   O4        1.0  0.93940  0.88620  0.60240  1.0000 -0.560335493
O   O5        1.0  0.06600  0.52030  0.66720  1.0000 -0.5481007456
O   O6        1.0  0.82140  0.45470  0.64950  1.0000 -0.560335493
