# DDEC6 charges by PACMAN v1.1 (https://github.com/mtap-research/PACMAN-charge/)
data_2022[Cd][kgd]2[ASR]2
_chemical_formula_sum              "Cd2 H22 C34 N6 O10"
_cell_length_a       7.6135
_cell_length_b       9.5566
_cell_length_c       15.6743
_cell_angle_alpha    80.403
_cell_angle_beta     80.505
_cell_angle_gamma    71.738

_symmetry_space_group_name_H-M    "P 1"
_symmetry_Int_Tables_number       1

loop_
  _symmetry_equiv_pos_as_xyz
  'x, y, z'

loop_
  _atom_site_type_symbol
  _atom_site_label
  _atom_site_symmetry_multiplicity
  _atom_site_fract_x
  _atom_site_fract_y
  _atom_site_fract_z
  _atom_site_occupancy
  _atom_site_charge
Cd  Cd1       1.0  0.48755  0.69242  0.04230  1.0000 0.9351306905
Cd  Cd2       1.0  0.51245  0.30758  0.95770  1.0000 0.9351306905
H   H1        1.0  0.96116  0.18837  0.04644  1.0000 0.1372044136
H   H2        1.0  0.65754  0.29359  0.27567  1.0000 0.1298263892
H   H3        1.0  0.04499  0.89482  0.26255  1.0000 0.1468920459
H   H4        1.0  0.56811  0.16528  0.41282  1.0000 0.1085520213
H   H5        1.0  0.73697  0.21902  0.42501  1.0000 0.1085520213
H   H6        1.0  0.49367  0.20729  0.57831  1.0000 0.1298263892
H   H7        1.0  0.50233  0.08092  0.71846  1.0000 0.1372044136
H   H8        1.0  0.89888  0.73510  0.62832  1.0000 0.1298263892
H   H9        1.0  0.90199  0.86369  0.48963  1.0000 0.1298263892
H   H10       1.0  0.50393  0.93866  0.85300  1.0000 0.1298263892
H   H11       1.0  0.82752  0.53915  0.89423  1.0000 0.1372044136
H   H12       1.0  0.03884  0.81163  0.95356  1.0000 0.1372044136
H   H13       1.0  0.34246  0.70641  0.72433  1.0000 0.1298263892
H   H14       1.0  0.95501  0.10518  0.73745  1.0000 0.1468920459
H   H15       1.0  0.43189  0.83472  0.58718  1.0000 0.1085520213
H   H16       1.0  0.26303  0.78098  0.57499  1.0000 0.1085520213
H   H17       1.0  0.50633  0.79271  0.42169  1.0000 0.1298263892
H   H18       1.0  0.49767  0.91908  0.28154  1.0000 0.1372044136
H   H19       1.0  0.10112  0.26490  0.37168  1.0000 0.1298263892
H   H20       1.0  0.09801  0.13631  0.51037  1.0000 0.1298263892
H   H21       1.0  0.49607  0.06134  0.14700  1.0000 0.1298263892
H   H22       1.0  0.17248  0.46085  0.10577  1.0000 0.1372044136
C   C1        1.0  0.02640  0.02480  0.14670  1.0000 0.0089650408
C   C2        1.0  0.93080  0.16210  0.10560  1.0000 -0.1418844561
C   C3        1.0  0.79070  0.25880  0.15350  1.0000 -0.0041953444
C   C4        1.0  0.74690  0.22500  0.24340  1.0000 -0.2710401665
C   C5        1.0  0.84080  0.08560  0.28350  1.0000 0.254422163
C   C6        1.0  0.98130  0.98670  0.23530  1.0000 -0.2406914148
C   C7        1.0  0.18320  0.91710  0.09830  1.0000 0.5428801526
C   C8        1.0  0.68600  0.40580  0.10960  1.0000 0.556395327
C   C9        1.0  0.69450  0.13250  0.42790  1.0000 -0.0752999286
C   C10       1.0  0.70100  0.04800  0.51830  1.0000 0.0710829322
C   C11       1.0  0.57740  0.11330  0.58820  1.0000 -0.1418844561
C   C12       1.0  0.58080  0.03680  0.67200  1.0000 -0.1799106138
C   C13       1.0  0.69920  0.89780  0.68570  1.0000 0.1298263892
C   C14       1.0  0.81930  0.83080  0.61820  1.0000 -0.1679480027
C   C15       1.0  0.81960  0.90790  0.53500  1.0000 -0.1277468155
C   C16       1.0  0.59350  0.84820  0.84530  1.0000 0.1085520213
C   C17       1.0  0.77000  0.63190  0.86590  1.0000 0.1680093606
C   C18       1.0  0.97360  0.97520  0.85330  1.0000 0.0089650408
C   C19       1.0  0.06920  0.83790  0.89440  1.0000 -0.1460473041
C   C20       1.0  0.20930  0.74120  0.84650  1.0000 -0.0041953444
C   C21       1.0  0.25310  0.77500  0.75660  1.0000 -0.2710401665
C   C22       1.0  0.15920  0.91440  0.71650  1.0000 0.254422163
C   C23       1.0  0.01870  0.01330  0.76470  1.0000 -0.2406914148
C   C24       1.0  0.81680  0.08290  0.90170  1.0000 0.5428801526
C   C25       1.0  0.31400  0.59420  0.89040  1.0000 0.556395327
C   C26       1.0  0.30550  0.86750  0.57210  1.0000 -0.0752999286
C   C27       1.0  0.29900  0.95200  0.48170  1.0000 0.0710829322
C   C28       1.0  0.42260  0.88670  0.41180  1.0000 -0.1418844561
C   C29       1.0  0.41920  0.96320  0.32800  1.0000 -0.1799106138
C   C30       1.0  0.30080  0.10220  0.31430  1.0000 0.1298263892
C   C31       1.0  0.18070  0.16920  0.38180  1.0000 -0.1679480027
C   C32       1.0  0.18040  0.09210  0.46500  1.0000 -0.1277468155
C   C33       1.0  0.40650  0.15180  0.15470  1.0000 0.1085520213
C   C34       1.0  0.23000  0.36810  0.13410  1.0000 0.1680093606
N   N1        1.0  0.69970  0.81420  0.77030  1.0000 0.1085520213
N   N2        1.0  0.81490  0.67220  0.78360  1.0000 -0.2406914148
N   N3        1.0  0.63410  0.73520  0.90630  1.0000 -0.3208442877
N   N4        1.0  0.30030  0.18580  0.22970  1.0000 0.1085520213
N   N5        1.0  0.18510  0.32780  0.21640  1.0000 -0.2406914148
N   N6        1.0  0.36590  0.26480  0.09370  1.0000 -0.3208442877
O   O1        1.0  0.23680  0.78470  0.13510  1.0000 -0.5426371346
O   O2        1.0  0.25800  0.95900  0.02480  1.0000 -0.5718732129
O   O3        1.0  0.59270  0.50810  0.15300  1.0000 -0.505512471
O   O4        1.0  0.68850  0.42340  0.02670  1.0000 -0.5944056164
O   O5        1.0  0.81310  0.03430  0.36990  1.0000 -0.1799106138
O   O6        1.0  0.76320  0.21530  0.86490  1.0000 -0.5426371346
O   O7        1.0  0.74200  0.04100  0.97520  1.0000 -0.5718732129
O   O8        1.0  0.40730  0.49190  0.84700  1.0000 -0.505512471
O   O9        1.0  0.31150  0.57660  0.97330  1.0000 -0.5944056164
O   O10       1.0  0.18690  0.96570  0.63010  1.0000 -0.1799106138
