# DDEC6 charges by PACMAN v1.1 (https://github.com/mtap-research/PACMAN-charge/)
data_2022[Eu][sql]2[ASR]1
_chemical_formula_sum              "Eu4 H72 C80 N8 Cl4 O16"
_cell_length_a       10.4626
_cell_length_b       11.3222
_cell_length_c       23.6347
_cell_angle_alpha    93.293
_cell_angle_beta     99.501
_cell_angle_gamma    106.585

_symmetry_space_group_name_H-M    "P 1"
_symmetry_Int_Tables_number       1

loop_
  _symmetry_equiv_pos_as_xyz
  'x, y, z'

loop_
  _atom_site_type_symbol
  _atom_site_label
  _atom_site_symmetry_multiplicity
  _atom_site_fract_x
  _atom_site_fract_y
  _atom_site_fract_z
  _atom_site_occupancy
  _atom_site_charge
Eu  Eu1       1.0  0.51861  0.50660  0.08336  1.0000 1.9315756081
Eu  Eu2       1.0  0.48139  0.49340  0.91664  1.0000 1.9248038449
Eu  Eu3       1.0  0.48045  0.00408  0.41724  1.0000 1.9315756081
Eu  Eu4       1.0  0.51955  0.99592  0.58276  1.0000 1.9315756081
H   H1        1.0  0.57886  0.25013  0.13986  1.0000 0.1010457674
H   H2        1.0  0.63395  0.16388  0.22596  1.0000 0.1300517016
H   H3        1.0  0.69844  0.28901  0.31214  1.0000 0.1300517016
H   H4        1.0  0.73521  0.49682  0.36829  1.0000 0.1300517016
H   H5        1.0  0.73258  0.69563  0.36865  1.0000 0.1300517016
H   H6        1.0  0.71140  0.87350  0.31380  1.0000 0.1300517016
H   H7        1.0  0.65667  0.94650  0.22604  1.0000 0.1300517016
H   H8        1.0  0.59646  0.81183  0.14227  1.0000 0.1080114103
H   H9        1.0  0.11718  0.40497  0.02428  1.0000 0.1208756589
H   H10       1.0  0.14099  0.64742  0.98829  1.0000 0.0907840154
H   H11       1.0  0.22375  0.62081  0.04705  1.0000 0.0907840154
H   H12       1.0  0.97183  0.32007  0.93510  1.0000 0.0907840154
H   H13       1.0  0.98109  0.45625  0.91718  1.0000 0.1080114103
H   H14       1.0  0.38100  0.07188  0.95645  1.0000 0.1080114103
H   H15       1.0  0.35326  0.06068  0.05407  1.0000 0.1080114103
H   H16       1.0  0.51359  0.08543  0.07435  1.0000 0.1010457674
H   H17       1.0  0.66395  0.12846  0.00095  1.0000 0.1080114103
H   H18       1.0  0.59990  0.13204  0.93485  1.0000 0.1010457674
H   H19       1.0  0.42114  0.74987  0.86014  1.0000 0.1010457674
H   H20       1.0  0.36605  0.83612  0.77404  1.0000 0.1300517016
H   H21       1.0  0.30156  0.71099  0.68786  1.0000 0.1300517016
H   H22       1.0  0.26479  0.50318  0.63171  1.0000 0.1300517016
H   H23       1.0  0.26742  0.30437  0.63135  1.0000 0.1300517016
H   H24       1.0  0.28860  0.12650  0.68620  1.0000 0.1300517016
H   H25       1.0  0.34333  0.05350  0.77396  1.0000 0.1300517016
H   H26       1.0  0.40354  0.18817  0.85773  1.0000 0.1080114103
H   H27       1.0  0.88282  0.59503  0.97572  1.0000 0.1208756589
H   H28       1.0  0.85901  0.35258  0.01171  1.0000 0.0907840154
H   H29       1.0  0.77625  0.37919  0.95295  1.0000 0.0907840154
H   H30       1.0  0.02817  0.67993  0.06490  1.0000 0.0907840154
H   H31       1.0  0.01891  0.54375  0.08282  1.0000 0.1080114103
H   H32       1.0  0.61900  0.92812  0.04355  1.0000 0.1010457674
H   H33       1.0  0.64674  0.93932  0.94593  1.0000 0.1080114103
H   H34       1.0  0.48641  0.91457  0.92565  1.0000 0.1010457674
H   H35       1.0  0.33605  0.87154  0.99905  1.0000 0.1080114103
H   H36       1.0  0.40010  0.86796  0.06515  1.0000 0.1010457674
H   H37       1.0  0.40816  0.26897  0.37885  1.0000 0.1010457674
H   H38       1.0  0.40513  0.71257  0.34261  1.0000 0.1080114103
H   H39       1.0  0.33683  0.37157  0.30197  1.0000 0.1300517016
H   H40       1.0  0.33577  0.59577  0.25260  1.0000 0.1300517016
H   H41       1.0  0.88431  0.10065  0.47640  1.0000 0.1208756589
H   H42       1.0  0.42599  0.57769  0.43829  1.0000 0.1010457674
H   H43       1.0  0.28314  0.27423  0.20902  1.0000 0.1385189263
H   H44       1.0  0.25376  0.08457  0.14303  1.0000 0.1300517016
H   H45       1.0  0.27742  0.69141  0.17135  1.0000 0.1300517016
H   H46       1.0  0.24960  0.88341  0.12913  1.0000 0.1300517016
H   H47       1.0  0.85402  0.85364  0.50794  1.0000 0.0907840154
H   H48       1.0  0.77765  0.88621  0.44910  1.0000 0.1010457674
H   H49       1.0  0.01457  0.03529  0.58170  1.0000 0.1080114103
H   H50       1.0  0.03037  0.17435  0.56696  1.0000 0.1010457674
H   H51       1.0  0.29810  0.54706  0.51281  1.0000 0.1080114103
H   H52       1.0  0.43421  0.57518  0.56046  1.0000 0.1010457674
H   H53       1.0  0.66529  0.63606  0.52670  1.0000 0.1080114103
H   H54       1.0  0.66546  0.64344  0.45919  1.0000 0.1010457674
H   H55       1.0  0.59184  0.73103  0.62115  1.0000 0.1010457674
H   H56       1.0  0.59487  0.28743  0.65739  1.0000 0.1080114103
H   H57       1.0  0.66317  0.62843  0.69803  1.0000 0.1300517016
H   H58       1.0  0.66423  0.40423  0.74740  1.0000 0.1300517016
H   H59       1.0  0.11569  0.89935  0.52360  1.0000 0.1208756589
H   H60       1.0  0.57401  0.42231  0.56171  1.0000 0.1010457674
H   H61       1.0  0.71686  0.72577  0.79098  1.0000 0.1385189263
H   H62       1.0  0.74624  0.91543  0.85697  1.0000 0.1300517016
H   H63       1.0  0.72258  0.30859  0.82865  1.0000 0.1300517016
H   H64       1.0  0.75040  0.11659  0.87087  1.0000 0.1208756589
H   H65       1.0  0.14598  0.14636  0.49206  1.0000 0.0907840154
H   H66       1.0  0.22235  0.11379  0.55090  1.0000 0.1010457674
H   H67       1.0  0.98543  0.96471  0.41830  1.0000 0.1080114103
H   H68       1.0  0.96963  0.82565  0.43304  1.0000 0.1010457674
H   H69       1.0  0.70190  0.45294  0.48719  1.0000 0.1080114103
H   H70       1.0  0.56579  0.42482  0.43954  1.0000 0.1010457674
H   H71       1.0  0.33471  0.36394  0.47330  1.0000 0.1080114103
H   H72       1.0  0.33454  0.35656  0.54081  1.0000 0.1010457674
C   C1        1.0  0.60210  0.30090  0.17570  1.0000 0.1208756589
C   C2        1.0  0.63650  0.24850  0.22710  1.0000 -0.13838041
C   C3        1.0  0.67280  0.32200  0.27750  1.0000 -0.0759054801
C   C4        1.0  0.67360  0.44470  0.27990  1.0000 0.0438439832
C   C5        1.0  0.71050  0.52720  0.33280  1.0000 -0.1493542921
C   C6        1.0  0.71080  0.64460  0.33300  1.0000 -0.1493542921
C   C7        1.0  0.67940  0.69440  0.28150  1.0000 0.0563641705
C   C8        1.0  0.68520  0.81860  0.27910  1.0000 -0.0759054801
C   C9        1.0  0.65370  0.86210  0.22770  1.0000 -0.13838041
C   C10       1.0  0.61720  0.78040  0.17790  1.0000 0.1080114103
C   C11       1.0  0.64220  0.61660  0.22750  1.0000 0.1385189263
C   C12       1.0  0.63760  0.48950  0.22790  1.0000 0.1208756589
C   C13       1.0  0.24210  0.46010  0.96590  1.0000 0.6375753798
C   C14       1.0  0.11830  0.45870  0.99210  1.0000 -0.1200204449
C   C15       1.0  0.13700  0.59110  0.01890  1.0000 -0.172112184
C   C16       1.0  0.98250  0.40640  0.95020  1.0000 -0.172112184
C   C17       1.0  0.47670  0.24970  0.99510  1.0000 0.6582206555
C   C18       1.0  0.46080  0.11200  0.98800  1.0000 -0.1200204449
C   C19       1.0  0.43550  0.04830  0.04230  1.0000 -0.1803374914
C   C20       1.0  0.58360  0.09110  0.97000  1.0000 -0.1803374914
C   C21       1.0  0.39790  0.69910  0.82430  1.0000 0.1208756589
C   C22       1.0  0.36350  0.75150  0.77290  1.0000 -0.13838041
C   C23       1.0  0.32720  0.67800  0.72250  1.0000 -0.0759054801
C   C24       1.0  0.32640  0.55530  0.72010  1.0000 0.0438439832
C   C25       1.0  0.28950  0.47280  0.66720  1.0000 -0.1493542921
C   C26       1.0  0.28920  0.35540  0.66700  1.0000 -0.1493542921
C   C27       1.0  0.32060  0.30560  0.71850  1.0000 0.0563641705
C   C28       1.0  0.31480  0.18140  0.72090  1.0000 -0.0759054801
C   C29       1.0  0.34630  0.13790  0.77230  1.0000 -0.13838041
C   C30       1.0  0.38280  0.21960  0.82210  1.0000 0.1080114103
C   C31       1.0  0.35780  0.38340  0.77250  1.0000 0.1385189263
C   C32       1.0  0.36240  0.51050  0.77210  1.0000 0.1300517016
C   C33       1.0  0.75790  0.53990  0.03410  1.0000 0.6375753798
C   C34       1.0  0.88170  0.54130  0.00790  1.0000 -0.1200204449
C   C35       1.0  0.86300  0.40890  0.98110  1.0000 -0.1803374914
C   C36       1.0  0.01750  0.59360  0.04980  1.0000 -0.172112184
C   C37       1.0  0.52330  0.75030  0.00490  1.0000 0.6582206555
C   C38       1.0  0.53920  0.88800  0.01200  1.0000 -0.1200204449
C   C39       1.0  0.56450  0.95170  0.95770  1.0000 -0.1803374914
C   C40       1.0  0.41640  0.90890  0.03000  1.0000 -0.1803374914
C   C41       1.0  0.38290  0.22700  0.34090  1.0000 0.1080114103
C   C42       1.0  0.35180  0.05220  0.27910  1.0000 0.1385189263
C   C43       1.0  0.38070  0.75180  0.30980  1.0000 0.1080114103
C   C44       1.0  0.35160  0.92440  0.27010  1.0000 0.1208756589
C   C45       1.0  0.76420  0.04370  0.53470  1.0000 0.6375753798
C   C46       1.0  0.48390  0.75000  0.48610  1.0000 0.6582206555
C   C47       1.0  0.34160  0.28970  0.29490  1.0000 -0.13838041
C   C48       1.0  0.31320  0.11010  0.23060  1.0000 0.0438439832
C   C49       1.0  0.33970  0.68080  0.25610  1.0000 -0.1310741864
C   C50       1.0  0.31130  0.86160  0.21530  1.0000 0.0456543521
C   C51       1.0  0.88130  0.04350  0.50720  1.0000 -0.1310741864
C   C52       1.0  0.47310  0.61240  0.47870  1.0000 -0.1200204449
C   C53       1.0  0.30900  0.23210  0.24050  1.0000 -0.0745573274
C   C54       1.0  0.27730  0.04390  0.17550  1.0000 -0.1310741864
C   C55       1.0  0.30520  0.73700  0.20860  1.0000 -0.0759054801
C   C56       1.0  0.27510  0.92560  0.16710  1.0000 -0.1493542921
C   C57       1.0  0.86240  0.91280  0.47850  1.0000 -0.1803374914
C   C58       1.0  0.01730  0.08880  0.55000  1.0000 -0.172112184
C   C59       1.0  0.39130  0.53970  0.52020  1.0000 -0.1803374914
C   C60       1.0  0.61550  0.59870  0.48750  1.0000 -0.1803374914
C   C61       1.0  0.61710  0.77300  0.65910  1.0000 0.1080114103
C   C62       1.0  0.64820  0.94780  0.72090  1.0000 0.1385189263
C   C63       1.0  0.61930  0.24820  0.69020  1.0000 0.1080114103
C   C64       1.0  0.64840  0.07560  0.72990  1.0000 0.1208756589
C   C65       1.0  0.23580  0.95630  0.46530  1.0000 0.6375753798
C   C66       1.0  0.51610  0.25000  0.51390  1.0000 0.6582206555
C   C67       1.0  0.65840  0.71030  0.70510  1.0000 -0.13838041
C   C68       1.0  0.68680  0.88990  0.76940  1.0000 0.0438439832
C   C69       1.0  0.66030  0.31920  0.74390  1.0000 -0.1310741864
C   C70       1.0  0.68870  0.13840  0.78470  1.0000 0.0438439832
C   C71       1.0  0.11870  0.95650  0.49280  1.0000 -0.1310741864
C   C72       1.0  0.52690  0.38760  0.52130  1.0000 -0.1200204449
C   C73       1.0  0.69100  0.76790  0.75950  1.0000 -0.0745573274
C   C74       1.0  0.72270  0.95610  0.82450  1.0000 -0.13838041
C   C75       1.0  0.69480  0.26300  0.79140  1.0000 -0.0759054801
C   C76       1.0  0.72490  0.07440  0.83290  1.0000 -0.1493542921
C   C77       1.0  0.13760  0.08720  0.52150  1.0000 -0.1803374914
C   C78       1.0  0.98270  0.91120  0.45000  1.0000 -0.172112184
C   C79       1.0  0.60870  0.46030  0.47980  1.0000 -0.1803374914
C   C80       1.0  0.38450  0.40130  0.51250  1.0000 -0.1803374914
N   N1        1.0  0.60130  0.41740  0.17570  1.0000 -0.3715850345
N   N2        1.0  0.60920  0.66100  0.17640  1.0000 -0.376222857
N   N3        1.0  0.39870  0.58260  0.82430  1.0000 -0.3715850345
N   N4        1.0  0.39080  0.33900  0.82360  1.0000 -0.376222857
N   N5        1.0  0.38770  0.11180  0.33310  1.0000 -0.3573185585
N   N6        1.0  0.38760  0.86980  0.31790  1.0000 -0.3715850345
N   N7        1.0  0.61230  0.88820  0.66690  1.0000 -0.3573185585
N   N8        1.0  0.61240  0.13020  0.68210  1.0000 -0.3715850345
Cl  Cl1       1.0  0.29840  0.44904  0.13362  1.0000 -0.735662379
Cl  Cl2       1.0  0.70160  0.55096  0.86638  1.0000 -0.735662379
Cl  Cl3       1.0  0.70040  0.08192  0.36836  1.0000 -0.731211432
Cl  Cl4       1.0  0.29960  0.91808  0.63164  1.0000 -0.731211432
O   O1        1.0  0.35120  0.46870  0.99870  1.0000 -0.6909010491
O   O2        1.0  0.23500  0.45490  0.91230  1.0000 -0.5970288
O   O3        1.0  0.50010  0.30600  0.04540  1.0000 -0.6751930795
O   O4        1.0  0.46910  0.30100  0.94900  1.0000 -0.6909010491
O   O5        1.0  0.64880  0.53130  0.00130  1.0000 -0.6909010491
O   O6        1.0  0.76500  0.54510  0.08770  1.0000 -0.5970288
O   O7        1.0  0.49990  0.69400  0.95460  1.0000 -0.6751930795
O   O8        1.0  0.53090  0.69900  0.05100  1.0000 -0.6909010491
O   O9        1.0  0.64750  0.03300  0.50070  1.0000 -0.7722296796
O   O10       1.0  0.47420  0.80320  0.43910  1.0000 -0.7089096091
O   O11       1.0  0.23240  0.95220  0.41220  1.0000 -0.590712168
O   O12       1.0  0.49660  0.19840  0.46390  1.0000 -0.6418522975
O   O13       1.0  0.35250  0.96700  0.49930  1.0000 -0.7722296796
O   O14       1.0  0.52580  0.19680  0.56090  1.0000 -0.7089096091
O   O15       1.0  0.76760  0.04780  0.58780  1.0000 -0.590712168
O   O16       1.0  0.50340  0.80160  0.53610  1.0000 -0.6418522975
