# DDEC6 charges by PACMAN v1.1 (https://github.com/mtap-research/PACMAN-charge/)
data_2022[Ni][nan]3[ASR]3
_chemical_formula_sum              "Ni18 H30 C60 N6 O78"
_cell_length_a       16.1123
_cell_length_b       16.1123
_cell_length_c       12.0353
_cell_angle_alpha    90
_cell_angle_beta     90
_cell_angle_gamma    120

_symmetry_space_group_name_H-M    "P 1"
_symmetry_Int_Tables_number       1

loop_
  _symmetry_equiv_pos_as_xyz
  'x, y, z'

loop_
  _atom_site_type_symbol
  _atom_site_label
  _atom_site_symmetry_multiplicity
  _atom_site_fract_x
  _atom_site_fract_y
  _atom_site_fract_z
  _atom_site_occupancy
  _atom_site_charge
Ni  Ni1       1.0  0.00000  0.23884  0.99999  1.0000 0.761396767
Ni  Ni2       1.0  0.87828  0.12173  0.19740  1.0000 0.6318187343
Ni  Ni3       1.0  0.12180  0.24348  0.19744  1.0000 0.6240002824
Ni  Ni4       1.0  0.76116  0.76116  0.99999  1.0000 0.761396767
Ni  Ni5       1.0  0.87827  0.75655  0.19740  1.0000 0.6318187343
Ni  Ni6       1.0  0.75652  0.87832  0.19744  1.0000 0.6240002824
Ni  Ni7       1.0  0.23884  0.00000  0.99999  1.0000 0.761396767
Ni  Ni8       1.0  0.24345  0.12172  0.19740  1.0000 0.6318187343
Ni  Ni9       1.0  0.12168  0.87820  0.19744  1.0000 0.6240002824
Ni  Ni10      1.0  0.00000  0.76116  0.00001  1.0000 0.761396767
Ni  Ni11      1.0  0.12172  0.87827  0.80260  1.0000 0.637661965
Ni  Ni12      1.0  0.87820  0.75652  0.80256  1.0000 0.6318187343
Ni  Ni13      1.0  0.23884  0.23884  0.00001  1.0000 0.761396767
Ni  Ni14      1.0  0.12173  0.24345  0.80260  1.0000 0.6318187343
Ni  Ni15      1.0  0.24348  0.12168  0.80256  1.0000 0.6318187343
Ni  Ni16      1.0  0.76116  0.00000  0.00001  1.0000 0.761396767
Ni  Ni17      1.0  0.75655  0.87828  0.80260  1.0000 0.6318187343
Ni  Ni18      1.0  0.87832  0.12180  0.80256  1.0000 0.6240002824
H   H1        1.0  0.00023  0.50048  0.12700  1.0000 0.1480025215
H   H2        1.0  0.00031  0.37642  0.41593  1.0000 0.1207230632
H   H3        1.0  0.99983  0.62338  0.41572  1.0000 0.1207230632
H   H4        1.0  0.06162  0.12359  0.24649  1.0000 0.1207230632
H   H5        1.0  0.93799  0.06121  0.24679  1.0000 0.1207230632
H   H6        1.0  0.49952  0.49975  0.12700  1.0000 0.1480025215
H   H7        1.0  0.62358  0.62389  0.41593  1.0000 0.1207230632
H   H8        1.0  0.37662  0.37645  0.41572  1.0000 0.1207230632
H   H9        1.0  0.87641  0.93803  0.24649  1.0000 0.1207230632
H   H10       1.0  0.93879  0.87678  0.24679  1.0000 0.1207230632
H   H11       1.0  0.50025  0.99977  0.12700  1.0000 0.1480025215
H   H12       1.0  0.37611  0.99969  0.41593  1.0000 0.1207230632
H   H13       1.0  0.62355  0.00017  0.41572  1.0000 0.1207230632
H   H14       1.0  0.06197  0.93838  0.24649  1.0000 0.1207230632
H   H15       1.0  0.12322  0.06201  0.24679  1.0000 0.1207230632
H   H16       1.0  0.99977  0.49952  0.87300  1.0000 0.1480025215
H   H17       1.0  0.99969  0.62358  0.58407  1.0000 0.1207230632
H   H18       1.0  0.00017  0.37662  0.58428  1.0000 0.1207230632
H   H19       1.0  0.93838  0.87641  0.75351  1.0000 0.1207230632
H   H20       1.0  0.06201  0.93879  0.75321  1.0000 0.1207230632
H   H21       1.0  0.50048  0.50025  0.87300  1.0000 0.1480025215
H   H22       1.0  0.37642  0.37611  0.58407  1.0000 0.1207230632
H   H23       1.0  0.62338  0.62355  0.58428  1.0000 0.1207230632
H   H24       1.0  0.12359  0.06197  0.75351  1.0000 0.1207230632
H   H25       1.0  0.06121  0.12322  0.75321  1.0000 0.1207230632
H   H26       1.0  0.49975  0.00023  0.87300  1.0000 0.1480025215
H   H27       1.0  0.62389  0.00031  0.58407  1.0000 0.1207230632
H   H28       1.0  0.37645  0.99983  0.58428  1.0000 0.1207230632
H   H29       1.0  0.93803  0.06162  0.75351  1.0000 0.1207230632
H   H30       1.0  0.87678  0.93799  0.75321  1.0000 0.1207230632
C   C1        1.0  0.07180  0.14380  0.17290  1.0000 0.0196467539
C   C2        1.0  0.99960  0.34430  0.20290  1.0000 0.5957030071
C   C3        1.0  0.00020  0.42670  0.26240  1.0000 0.0063664182
C   C4        1.0  0.00010  0.50050  0.20430  1.0000 -0.1189187025
C   C5        1.0  0.00010  0.42670  0.37820  1.0000 -0.1189187025
C   C6        1.0  0.99980  0.57370  0.26160  1.0000 0.0022979546
C   C7        1.0  0.99960  0.49970  0.43850  1.0000 0.0595943246
C   C8        1.0  0.99990  0.65570  0.20220  1.0000 0.5926721407
C   C9        1.0  0.99980  0.57300  0.37780  1.0000 -0.1189187025
C   C10       1.0  0.92780  0.07160  0.17330  1.0000 0.0278533139
C   C11       1.0  0.85620  0.92800  0.17290  1.0000 0.0196467539
C   C12       1.0  0.65570  0.65530  0.20290  1.0000 0.5957030071
C   C13       1.0  0.57330  0.57350  0.26240  1.0000 0.0063664182
C   C14       1.0  0.49950  0.49960  0.20430  1.0000 -0.1189187025
C   C15       1.0  0.57330  0.57340  0.37820  1.0000 -0.1189187025
C   C16       1.0  0.42630  0.42610  0.26160  1.0000 0.0022979546
C   C17       1.0  0.50030  0.49990  0.43850  1.0000 0.0595943246
C   C18       1.0  0.34430  0.34420  0.20220  1.0000 0.5926721407
C   C19       1.0  0.42700  0.42680  0.37780  1.0000 -0.1189187025
C   C20       1.0  0.92840  0.85620  0.17330  1.0000 0.0278533139
C   C21       1.0  0.07200  0.92820  0.17290  1.0000 0.0196467539
C   C22       1.0  0.34470  0.00040  0.20290  1.0000 0.5957030071
C   C23       1.0  0.42650  0.99980  0.26240  1.0000 0.0063664182
C   C24       1.0  0.50040  0.99990  0.20430  1.0000 -0.1189187025
C   C25       1.0  0.42660  0.99990  0.37820  1.0000 -0.1189187025
C   C26       1.0  0.57390  0.00020  0.26160  1.0000 0.0022979546
C   C27       1.0  0.50010  0.00040  0.43850  1.0000 0.0595943246
C   C28       1.0  0.65580  0.00010  0.20220  1.0000 0.5926721407
C   C29       1.0  0.57320  0.00020  0.37780  1.0000 -0.1189187025
C   C30       1.0  0.14380  0.07220  0.17330  1.0000 0.0278533139
C   C31       1.0  0.92820  0.85620  0.82710  1.0000 0.0196467539
C   C32       1.0  0.00040  0.65570  0.79710  1.0000 0.5957030071
C   C33       1.0  0.99980  0.57330  0.73760  1.0000 0.0063664182
C   C34       1.0  0.99990  0.49950  0.79570  1.0000 -0.1189187025
C   C35       1.0  0.99990  0.57330  0.62180  1.0000 -0.1189187025
C   C36       1.0  0.00020  0.42630  0.73840  1.0000 0.0022979546
C   C37       1.0  0.00040  0.50030  0.56150  1.0000 0.0595943246
C   C38       1.0  0.00010  0.34430  0.79780  1.0000 0.5926721407
C   C39       1.0  0.00020  0.42700  0.62220  1.0000 -0.114603168
C   C40       1.0  0.07220  0.92840  0.82670  1.0000 0.0278533139
C   C41       1.0  0.14380  0.07200  0.82710  1.0000 0.0196467539
C   C42       1.0  0.34430  0.34470  0.79710  1.0000 0.5957030071
C   C43       1.0  0.42670  0.42650  0.73760  1.0000 0.0063664182
C   C44       1.0  0.50050  0.50040  0.79570  1.0000 -0.1189187025
C   C45       1.0  0.42670  0.42660  0.62180  1.0000 -0.1189187025
C   C46       1.0  0.57370  0.57390  0.73840  1.0000 0.0022979546
C   C47       1.0  0.49970  0.50010  0.56150  1.0000 0.0595943246
C   C48       1.0  0.65570  0.65580  0.79780  1.0000 0.5926721407
C   C49       1.0  0.57300  0.57320  0.62220  1.0000 -0.1189187025
C   C50       1.0  0.07160  0.14380  0.82670  1.0000 0.0278533139
C   C51       1.0  0.92800  0.07180  0.82710  1.0000 0.0196467539
C   C52       1.0  0.65530  0.99960  0.79710  1.0000 0.5957030071
C   C53       1.0  0.57350  0.00020  0.73760  1.0000 0.0063664182
C   C54       1.0  0.49960  0.00010  0.79570  1.0000 -0.1189187025
C   C55       1.0  0.57340  0.00010  0.62180  1.0000 -0.1189187025
C   C56       1.0  0.42610  0.99980  0.73840  1.0000 0.0022979546
C   C57       1.0  0.49990  0.99960  0.56150  1.0000 0.0595943246
C   C58       1.0  0.34420  0.99990  0.79780  1.0000 0.5926721407
C   C59       1.0  0.42680  0.99980  0.62220  1.0000 -0.1189187025
C   C60       1.0  0.85620  0.92780  0.82670  1.0000 0.0278533139
N   N1        1.0  0.91970  0.08400  0.45920  1.0000 0.1816490554
N   N2        1.0  0.91600  0.83570  0.45920  1.0000 0.1816490554
N   N3        1.0  0.16430  0.08030  0.45920  1.0000 0.1816490554
N   N4        1.0  0.08030  0.91600  0.54080  1.0000 0.1816490554
N   N5        1.0  0.08400  0.16430  0.54080  1.0000 0.1816490554
N   N6        1.0  0.83570  0.91970  0.54080  1.0000 0.1816490554
O   O1        1.0  0.99970  0.15510  0.13100  1.0000 -0.2808252958
O   O2        1.0  0.00000  0.33450  0.11150  1.0000 -0.3495874342
O   O3        1.0  0.14740  0.29470  0.03760  1.0000 -0.1528337942
O   O4        1.0  0.00020  0.33430  0.88800  1.0000 -0.3340156363
O   O5        1.0  0.00020  0.15580  0.86900  1.0000 -0.2808252958
O   O6        1.0  0.92180  0.25470  0.25310  1.0000 -0.4794613246
O   O7        1.0  0.90990  0.08950  0.35840  1.0000 -0.2643710362
O   O8        1.0  0.74550  0.07890  0.25220  1.0000 -0.4794613246
O   O9        1.0  0.89500  0.10000  0.54510  1.0000 0.1929471029
O   O10       1.0  0.91120  0.08860  0.64330  1.0000 -0.2353725927
O   O11       1.0  0.07900  0.33310  0.25320  1.0000 -0.4794613246
O   O12       1.0  0.07880  0.74570  0.25240  1.0000 -0.4794613246
O   O13       1.0  0.14750  0.29430  0.96120  1.0000 -0.1568886284
O   O14       1.0  0.84490  0.84460  0.13100  1.0000 -0.2808252958
O   O15       1.0  0.66550  0.66550  0.11150  1.0000 -0.3495874342
O   O16       1.0  0.70530  0.85270  0.03760  1.0000 -0.1528337942
O   O17       1.0  0.66570  0.66590  0.88800  1.0000 -0.3340156363
O   O18       1.0  0.84420  0.84440  0.86900  1.0000 -0.2808252958
O   O19       1.0  0.74530  0.66710  0.25310  1.0000 -0.4794613246
O   O20       1.0  0.91050  0.82040  0.35840  1.0000 -0.2666890727
O   O21       1.0  0.92110  0.66667  0.25220  1.0000 -0.4794613246
O   O22       1.0  0.90000  0.79500  0.54510  1.0000 0.1956563605
O   O23       1.0  0.91140  0.82260  0.64330  1.0000 -0.2353725927
O   O24       1.0  0.66690  0.74590  0.25320  1.0000 -0.4794613246
O   O25       1.0  0.25430  0.33310  0.25240  1.0000 -0.4794613246
O   O26       1.0  0.70570  0.85320  0.96120  1.0000 -0.1568886284
O   O27       1.0  0.15540  0.00030  0.13100  1.0000 -0.2808252958
O   O28       1.0  0.33450  0.00000  0.11150  1.0000 -0.3495874342
O   O29       1.0  0.14730  0.85260  0.03760  1.0000 -0.1568886284
O   O30       1.0  0.33410  0.99980  0.88800  1.0000 -0.3340156363
O   O31       1.0  0.15560  0.99980  0.86900  1.0000 -0.2808252958
O   O32       1.0  0.33290  0.07820  0.25310  1.0000 -0.4794613246
O   O33       1.0  0.17960  0.09010  0.35840  1.0000 -0.2666890727
O   O34       1.0  0.33340  0.25450  0.25220  1.0000 -0.4794613246
O   O35       1.0  0.20500  0.10500  0.54510  1.0000 0.1929471029
O   O36       1.0  0.17740  0.08880  0.64330  1.0000 -0.2353725927
O   O37       1.0  0.25410  0.92100  0.25320  1.0000 -0.4794613246
O   O38       1.0  0.66690  0.92120  0.25240  1.0000 -0.4794613246
O   O39       1.0  0.14680  0.85250  0.96120  1.0000 -0.1568886284
O   O40       1.0  0.00030  0.84490  0.86900  1.0000 -0.2808252958
O   O41       1.0  0.00000  0.66550  0.88850  1.0000 -0.3495874342
O   O42       1.0  0.85260  0.70530  0.96240  1.0000 -0.1528337942
O   O43       1.0  0.99980  0.66570  0.11200  1.0000 -0.3340156363
O   O44       1.0  0.99980  0.84420  0.13100  1.0000 -0.2808252958
O   O45       1.0  0.07820  0.74530  0.74690  1.0000 -0.4794613246
O   O46       1.0  0.09010  0.91050  0.64160  1.0000 -0.2666890727
O   O47       1.0  0.25450  0.92110  0.74780  1.0000 -0.4794613246
O   O48       1.0  0.10500  0.90000  0.45490  1.0000 0.1929471029
O   O49       1.0  0.08880  0.91140  0.35670  1.0000 -0.2353725927
O   O50       1.0  0.92100  0.66690  0.74680  1.0000 -0.4794613246
O   O51       1.0  0.92120  0.25430  0.74760  1.0000 -0.4794613246
O   O52       1.0  0.85250  0.70570  0.03880  1.0000 -0.1568886284
O   O53       1.0  0.15510  0.15540  0.86900  1.0000 -0.2808252958
O   O54       1.0  0.33450  0.33450  0.88850  1.0000 -0.3495874342
O   O55       1.0  0.29470  0.14730  0.96240  1.0000 -0.1528337942
O   O56       1.0  0.33430  0.33410  0.11200  1.0000 -0.3340156363
O   O57       1.0  0.15580  0.15560  0.13100  1.0000 -0.2808252958
O   O58       1.0  0.25470  0.33290  0.74690  1.0000 -0.4794613246
O   O59       1.0  0.08950  0.17960  0.64160  1.0000 -0.2666890727
O   O60       1.0  0.07890  0.33340  0.74780  1.0000 -0.4794613246
O   O61       1.0  0.10000  0.20500  0.45490  1.0000 0.1929471029
O   O62       1.0  0.08860  0.17740  0.35670  1.0000 -0.2333495604
O   O63       1.0  0.33310  0.25410  0.74680  1.0000 -0.4794613246
O   O64       1.0  0.74570  0.66690  0.74760  1.0000 -0.4794613246
O   O65       1.0  0.29430  0.14680  0.03880  1.0000 -0.1568886284
O   O66       1.0  0.84460  0.99970  0.86900  1.0000 -0.2808252958
O   O67       1.0  0.66550  0.00000  0.88850  1.0000 -0.3495874342
O   O68       1.0  0.85270  0.14740  0.96240  1.0000 -0.1528337942
O   O69       1.0  0.66590  0.00020  0.11200  1.0000 -0.3340156363
O   O70       1.0  0.84440  0.00020  0.13100  1.0000 -0.2808252958
O   O71       1.0  0.66710  0.92180  0.74690  1.0000 -0.4794613246
O   O72       1.0  0.82040  0.90990  0.64160  1.0000 -0.2666890727
O   O73       1.0  0.66667  0.74550  0.74780  1.0000 -0.4794613246
O   O74       1.0  0.79500  0.89500  0.45490  1.0000 0.1929471029
O   O75       1.0  0.82260  0.91120  0.35670  1.0000 -0.2353725927
O   O76       1.0  0.74590  0.07900  0.74680  1.0000 -0.4794613246
O   O77       1.0  0.33310  0.07880  0.74760  1.0000 -0.4794613246
O   O78       1.0  0.85320  0.14750  0.03880  1.0000 -0.1568886284
