# DDEC6 charges by PACMAN v1.1 (https://github.com/mtap-research/PACMAN-charge/)
data_2022[Co][nan]3[ASR]14
_chemical_formula_sum              "Co6 H6 C24 O18"
_cell_length_a       15.2372
_cell_length_b       15.2372
_cell_length_c       15.2372
_cell_angle_alpha    117.915
_cell_angle_beta     117.915
_cell_angle_gamma    117.915

_symmetry_space_group_name_H-M    "P 1"
_symmetry_Int_Tables_number       1

loop_
  _symmetry_equiv_pos_as_xyz
  'x, y, z'

loop_
  _atom_site_type_symbol
  _atom_site_label
  _atom_site_symmetry_multiplicity
  _atom_site_fract_x
  _atom_site_fract_y
  _atom_site_fract_z
  _atom_site_occupancy
  _atom_site_charge
Co  Co1       1.0  0.88082  0.19491  0.45873  1.0000 0.9979308248
Co  Co2       1.0  0.19491  0.45873  0.88082  1.0000 0.9979308248
Co  Co3       1.0  0.45873  0.88082  0.19491  1.0000 0.9979308248
Co  Co4       1.0  0.11918  0.80509  0.54127  1.0000 0.9979308248
Co  Co5       1.0  0.80509  0.54127  0.11918  1.0000 0.9979308248
Co  Co6       1.0  0.54127  0.11918  0.80509  1.0000 0.9979308248
H   H1        1.0  0.66156  0.64592  0.20097  1.0000 0.1469060679
H   H2        1.0  0.64592  0.20097  0.66156  1.0000 0.1469060679
H   H3        1.0  0.20097  0.66156  0.64592  1.0000 0.1469060679
H   H4        1.0  0.33844  0.35408  0.79903  1.0000 0.1469060679
H   H5        1.0  0.35408  0.79903  0.33844  1.0000 0.1469060679
H   H6        1.0  0.79903  0.33844  0.35408  1.0000 0.1469060679
C   C1        1.0  0.64348  0.81921  0.25673  1.0000 0.640529563
C   C2        1.0  0.83199  0.92037  0.38586  1.0000 -0.1383589581
C   C3        1.0  0.03861  0.13758  0.56854  1.0000 0.2942036986
C   C4        1.0  0.80029  0.79068  0.32348  1.0000 -0.1967880651
C   C5        1.0  0.81921  0.25673  0.64348  1.0000 0.640529563
C   C6        1.0  0.92037  0.38586  0.83199  1.0000 -0.1383589581
C   C7        1.0  0.13758  0.56854  0.03861  1.0000 0.2942036986
C   C8        1.0  0.79068  0.32348  0.80029  1.0000 -0.1967880651
C   C9        1.0  0.25673  0.64348  0.81921  1.0000 0.640529563
C   C10       1.0  0.38586  0.83199  0.92037  1.0000 -0.1383589581
C   C11       1.0  0.56854  0.03861  0.13758  1.0000 0.2942036986
C   C12       1.0  0.32348  0.80029  0.79068  1.0000 -0.1967880651
C   C13       1.0  0.35652  0.18079  0.74327  1.0000 0.640529563
C   C14       1.0  0.16801  0.07963  0.61414  1.0000 -0.1383589581
C   C15       1.0  0.96139  0.86242  0.43146  1.0000 0.2942036986
C   C16       1.0  0.19971  0.20932  0.67652  1.0000 -0.1967880651
C   C17       1.0  0.18079  0.74327  0.35652  1.0000 0.640529563
C   C18       1.0  0.07963  0.61414  0.16801  1.0000 -0.1383589581
C   C19       1.0  0.86242  0.43146  0.96139  1.0000 0.2942036986
C   C20       1.0  0.20932  0.67652  0.19971  1.0000 -0.1967880651
C   C21       1.0  0.74327  0.35652  0.18079  1.0000 0.640529563
C   C22       1.0  0.61414  0.16801  0.07963  1.0000 -0.1383589581
C   C23       1.0  0.43146  0.96139  0.86242  1.0000 0.2942036986
C   C24       1.0  0.67652  0.19971  0.20932  1.0000 -0.1967880651
O   O1        1.0  0.66435  0.93054  0.30750  1.0000 -0.5998102625
O   O2        1.0  0.46948  0.62648  0.10296  1.0000 -0.5278333127
O   O3        1.0  0.09024  0.27937  0.64590  1.0000 -0.6167795559
O   O4        1.0  0.93054  0.30750  0.66435  1.0000 -0.5998102625
O   O5        1.0  0.62648  0.10296  0.46948  1.0000 -0.5278333127
O   O6        1.0  0.27937  0.64590  0.09024  1.0000 -0.6167795559
O   O7        1.0  0.30750  0.66435  0.93054  1.0000 -0.5998102625
O   O8        1.0  0.10296  0.46948  0.62648  1.0000 -0.5278333127
O   O9        1.0  0.64590  0.09024  0.27937  1.0000 -0.6167795559
O   O10       1.0  0.33565  0.06946  0.69250  1.0000 -0.5998102625
O   O11       1.0  0.53052  0.37352  0.89704  1.0000 -0.5278333127
O   O12       1.0  0.90976  0.72063  0.35410  1.0000 -0.6167795559
O   O13       1.0  0.06946  0.69250  0.33565  1.0000 -0.5998102625
O   O14       1.0  0.37352  0.89704  0.53052  1.0000 -0.5278333127
O   O15       1.0  0.72063  0.35410  0.90976  1.0000 -0.6167795559
O   O16       1.0  0.69250  0.33565  0.06946  1.0000 -0.5998102625
O   O17       1.0  0.89704  0.53052  0.37352  1.0000 -0.5278333127
O   O18       1.0  0.35410  0.90976  0.72063  1.0000 -0.6167795559
