# DDEC6 charges by PACMAN v1.1 (https://github.com/mtap-research/PACMAN-charge/)
data_2022[Tb][dia]3[ASR]1
_chemical_formula_sum              "Tb2 C4 O8 F2"
_cell_length_a       8.1951
_cell_length_b       8.1951
_cell_length_c       8.2428
_cell_angle_alpha    62.5336
_cell_angle_beta     117.466
_cell_angle_gamma    94.5217

_symmetry_space_group_name_H-M    "P 1"
_symmetry_Int_Tables_number       1

loop_
  _symmetry_equiv_pos_as_xyz
  'x, y, z'

loop_
  _atom_site_type_symbol
  _atom_site_label
  _atom_site_symmetry_multiplicity
  _atom_site_fract_x
  _atom_site_fract_y
  _atom_site_fract_z
  _atom_site_occupancy
  _atom_site_charge
Tb  Tb1       1.0  0.43488  0.43488  0.75000  1.0000 2.0662405957
Tb  Tb2       1.0  0.56512  0.56512  0.25000  1.0000 2.0662405957
C   C1        1.0  0.44850  0.00690  0.05690  1.0000 0.5468911845
C   C2        1.0  0.00690  0.44850  0.44310  1.0000 0.5468911845
C   C3        1.0  0.55150  0.99310  0.94310  1.0000 0.5468911845
C   C4        1.0  0.99310  0.55150  0.55690  1.0000 0.5468911845
O   O1        1.0  0.37613  0.16797  0.99460  1.0000 -0.6143456828
O   O2        1.0  0.44644  0.85732  0.19730  1.0000 -0.5288050379
O   O3        1.0  0.16797  0.37613  0.50540  1.0000 -0.6168213617
O   O4        1.0  0.85732  0.44644  0.30270  1.0000 -0.5288050379
O   O5        1.0  0.62387  0.83203  0.00540  1.0000 -0.6143456828
O   O6        1.0  0.55356  0.14268  0.80270  1.0000 -0.5288050379
O   O7        1.0  0.83203  0.62387  0.49460  1.0000 -0.6168213617
O   O8        1.0  0.14268  0.55356  0.69730  1.0000 -0.5288050379
F   F1        1.0  0.50000  0.50000  0.00000  1.0000 -0.8777446281
F   F2        1.0  0.50000  0.50000  0.50000  1.0000 -0.8647470605
