# DDEC6 charges by PACMAN v1.1 (https://github.com/mtap-research/PACMAN-charge/)
data_2022[Cr][nan]3[ASR]2
_chemical_formula_sum              "Cr4 H16 C32 O20"
_cell_length_a       12.2118
_cell_length_b       12.2118
_cell_length_c       12.2118
_cell_angle_alpha    103.941
_cell_angle_beta     103.941
_cell_angle_gamma    121.21

_symmetry_space_group_name_H-M    "P 1"
_symmetry_Int_Tables_number       1

loop_
  _symmetry_equiv_pos_as_xyz
  'x, y, z'

loop_
  _atom_site_type_symbol
  _atom_site_label
  _atom_site_symmetry_multiplicity
  _atom_site_fract_x
  _atom_site_fract_y
  _atom_site_fract_z
  _atom_site_occupancy
  _atom_site_charge
Cr  Cr1       1.0  0.19290  0.80710  0.00000  1.0000 1.5529448881
Cr  Cr2       1.0  0.80710  0.19290  0.00000  1.0000 1.5529448881
Cr  Cr3       1.0  0.44290  0.94290  0.88580  1.0000 1.5529448881
Cr  Cr4       1.0  0.05710  0.55710  0.11420  1.0000 1.5529448881
H   H1        1.0  0.47430  0.30280  0.94970  1.0000 0.1315587672
H   H2        1.0  0.35310  0.52460  0.05030  1.0000 0.1315587672
H   H3        1.0  0.77460  0.22430  0.67150  1.0000 0.1315587672
H   H4        1.0  0.55280  0.10310  0.32850  1.0000 0.1315587672
H   H5        1.0  0.77570  0.22540  0.32850  1.0000 0.1315587672
H   H6        1.0  0.89690  0.44720  0.67150  1.0000 0.1315587672
H   H7        1.0  0.47540  0.64690  0.94970  1.0000 0.1315587672
H   H8        1.0  0.69720  0.52570  0.05030  1.0000 0.1315587672
H   H9        1.0  0.43700  0.87500  0.06200  1.0000 0.4211792244
H   H10       1.0  0.81300  0.37500  0.93800  1.0000 0.4211792244
H   H11       1.0  0.62500  0.18700  0.06200  1.0000 0.4211792244
H   H12       1.0  0.12500  0.56300  0.93800  1.0000 0.4211792244
H   H13       1.0  0.13900  0.13900  0.00000  1.0000 0.1409301205
H   H14       1.0  0.38900  0.88900  0.50000  1.0000 0.1409301205
H   H15       1.0  0.11100  0.61100  0.50000  1.0000 0.1409301205
H   H16       1.0  0.86100  0.86100  0.00000  1.0000 0.1409301205
C   C1        1.0  0.29450  0.06920  0.95430  1.0000 0.6187758787
C   C2        1.0  0.30268  0.19489  0.96837  1.0000 -0.0628395819
C   C3        1.0  0.41778  0.30999  0.96837  1.0000 -0.1052406368
C   C4        1.0  0.11490  0.34020  0.04570  1.0000 0.6187758787
C   C5        1.0  0.22652  0.33431  0.03163  1.0000 -0.0628395819
C   C6        1.0  0.34162  0.44941  0.03163  1.0000 -0.1052406368
C   C7        1.0  0.59020  0.04450  0.72530  1.0000 0.6187758787
C   C8        1.0  0.58431  0.05268  0.60779  1.0000 -0.0628395819
C   C9        1.0  0.69941  0.16778  0.60779  1.0000 -0.1052406368
C   C10       1.0  0.31920  0.86490  0.27470  1.0000 0.6187758787
C   C11       1.0  0.44489  0.97652  0.39221  1.0000 -0.0628395819
C   C12       1.0  0.55999  0.09162  0.39221  1.0000 -0.1052406368
C   C13       1.0  0.95550  0.40980  0.27470  1.0000 0.6187758787
C   C14       1.0  0.94732  0.41569  0.39221  1.0000 -0.0628395819
C   C15       1.0  0.83222  0.30059  0.39221  1.0000 -0.1052406368
C   C16       1.0  0.13510  0.68080  0.72530  1.0000 0.6187758787
C   C17       1.0  0.02348  0.55511  0.60779  1.0000 -0.0628395819
C   C18       1.0  0.90838  0.44001  0.60779  1.0000 -0.1052406368
C   C19       1.0  0.65980  0.88510  0.95430  1.0000 0.6187758787
C   C20       1.0  0.66569  0.77348  0.96837  1.0000 -0.0628395819
C   C21       1.0  0.55059  0.65838  0.96837  1.0000 -0.1052406368
C   C22       1.0  0.93080  0.70550  0.04570  1.0000 0.6187758787
C   C23       1.0  0.80511  0.69732  0.03163  1.0000 -0.0628395819
C   C24       1.0  0.69001  0.58222  0.03163  1.0000 -0.1052406368
C   C25       1.0  0.20700  0.20700  0.00000  1.0000 -0.0628395819
C   C26       1.0  0.43720  0.43720  0.00000  1.0000 0.0609907104
C   C27       1.0  0.45700  0.95700  0.50000  1.0000 -0.0628395819
C   C28       1.0  0.68720  0.18720  0.50000  1.0000 0.0609907104
C   C29       1.0  0.04300  0.54300  0.50000  1.0000 -0.0628395819
C   C30       1.0  0.81280  0.31280  0.50000  1.0000 0.0609907104
C   C31       1.0  0.79300  0.79300  0.00000  1.0000 -0.0628395819
C   C32       1.0  0.56280  0.56280  0.00000  1.0000 0.0609907104
O   O1        1.0  0.23240  0.99360  0.00860  1.0000 -0.5677610071
O   O2        1.0  0.34950  0.03490  0.88760  1.0000 -0.6024528176
O   O3        1.0  0.98500  0.22380  0.99140  1.0000 -0.5677610071
O   O4        1.0  0.14730  0.46190  0.11240  1.0000 -0.6024528176
O   O5        1.0  0.47380  0.98240  0.73880  1.0000 -0.5677610071
O   O6        1.0  0.71190  0.09950  0.81460  1.0000 -0.6024528176
O   O7        1.0  0.24360  0.73500  0.26120  1.0000 -0.5677610071
O   O8        1.0  0.28490  0.89730  0.18540  1.0000 -0.6024528176
O   O9        1.0  0.01760  0.52620  0.26120  1.0000 -0.5677610071
O   O10       1.0  0.90050  0.28810  0.18540  1.0000 -0.6024528176
O   O11       1.0  0.26500  0.75640  0.73880  1.0000 -0.5677610071
O   O12       1.0  0.10270  0.71510  0.81460  1.0000 -0.6024528176
O   O13       1.0  0.77620  0.01500  0.00860  1.0000 -0.5677610071
O   O14       1.0  0.53810  0.85270  0.88760  1.0000 -0.6024528176
O   O15       1.0  0.00640  0.76760  0.99140  1.0000 -0.5677610071
O   O16       1.0  0.96510  0.65050  0.11240  1.0000 -0.6024528176
O   O17       1.0  0.37750  0.87500  0.00250  1.0000 -0.9372865663
O   O18       1.0  0.87250  0.37500  0.99750  1.0000 -0.9372865663
O   O19       1.0  0.62500  0.12750  0.00250  1.0000 -0.9372865663
O   O20       1.0  0.12500  0.62250  0.99750  1.0000 -0.9372865663
