# DDEC6 charges by PACMAN v1.1 (https://github.com/mtap-research/PACMAN-charge/)
data_2022[Gd][pcu]3[ASR]1
_chemical_formula_sum              "Gd8 B12 H84 C104 O80"
_cell_length_a       17.4468
_cell_length_b       14.6288
_cell_length_c       19.105
_cell_angle_alpha    90
_cell_angle_beta     106.901
_cell_angle_gamma    90

_symmetry_space_group_name_H-M    "P 1"
_symmetry_Int_Tables_number       1

loop_
  _symmetry_equiv_pos_as_xyz
  'x, y, z'

loop_
  _atom_site_type_symbol
  _atom_site_label
  _atom_site_symmetry_multiplicity
  _atom_site_fract_x
  _atom_site_fract_y
  _atom_site_fract_z
  _atom_site_occupancy
  _atom_site_charge
Gd  Gd1       1.0  0.29939  0.15197  0.31076  1.0000 2.0101535143
Gd  Gd2       1.0  0.19731  0.36228  0.17897  1.0000 1.946769339
Gd  Gd3       1.0  0.70061  0.65197  0.18924  1.0000 2.0101535143
Gd  Gd4       1.0  0.80269  0.86228  0.32103  1.0000 1.946769339
Gd  Gd5       1.0  0.70061  0.84803  0.68924  1.0000 2.0101535143
Gd  Gd6       1.0  0.80269  0.63772  0.82103  1.0000 1.946769339
Gd  Gd7       1.0  0.29939  0.34803  0.81076  1.0000 2.0101535143
Gd  Gd8       1.0  0.19731  0.13772  0.67897  1.0000 1.946769339
B   B1        1.0  0.87160  0.36720  0.26200  1.0000 0.7459309123
B   B2        1.0  0.63360  0.15660  0.28940  1.0000 0.7777710678
B   B3        1.0  0.17440  0.64350  0.49130  1.0000 0.7204355122
B   B4        1.0  0.12840  0.86720  0.23800  1.0000 0.7459309123
B   B5        1.0  0.36640  0.65660  0.21060  1.0000 0.7777710678
B   B6        1.0  0.82560  0.14350  0.00870  1.0000 0.7204355122
B   B7        1.0  0.12840  0.63280  0.73800  1.0000 0.7459309123
B   B8        1.0  0.36640  0.84340  0.71060  1.0000 0.7777710678
B   B9        1.0  0.82560  0.35650  0.50870  1.0000 0.7204355122
B   B10       1.0  0.87160  0.13280  0.76200  1.0000 0.7439789595
B   B11       1.0  0.63360  0.34340  0.78940  1.0000 0.7777710678
B   B12       1.0  0.17440  0.85650  0.99130  1.0000 0.7204355122
H   H1        1.0  0.86095  0.47608  0.21389  1.0000 0.3604144635
H   H2        1.0  0.08107  0.26118  0.06860  1.0000 0.3505421402
H   H3        1.0  0.78782  0.42443  0.28121  1.0000 0.3604144635
H   H4        1.0  0.20089  0.49163  0.06570  1.0000 0.3791712941
H   H5        1.0  0.13309  0.73564  0.42896  1.0000 0.3791712941
H   H6        1.0  0.63723  0.04272  0.32712  1.0000 0.3604144635
H   H7        1.0  0.18061  0.65852  0.58706  1.0000 0.3604144635
H   H8        1.0  0.72804  0.10909  0.28379  1.0000 0.3604144635
H   H9        1.0  0.25765  0.29428  0.49324  1.0000 0.1204618601
H   H10       1.0  0.21787  0.51648  0.60009  1.0000 0.1204618601
H   H11       1.0  0.47459  0.46585  0.20864  1.0000 0.1289342614
H   H12       1.0  0.02594  0.05139  0.29278  1.0000 0.1204618601
H   H13       1.0  0.83861  0.20268  0.30515  1.0000 0.1204618601
H   H14       1.0  0.47776  0.20636  0.28153  1.0000 0.1204618601
H   H15       1.0  0.19771  0.53162  0.38573  1.0000 0.1289342614
H   H16       1.0  0.01896  0.32009  0.24739  1.0000 0.1289342614
H   H17       1.0  0.67720  0.31861  0.25315  1.0000 0.1204618601
H   H18       1.0  0.16491  0.33819  0.97702  1.0000 0.1204618601
H   H19       1.0  0.12960  0.43608  0.95494  1.0000 0.1204618601
H   H20       1.0  0.03772  0.32117  0.96537  1.0000 0.1124152588
H   H21       1.0  0.03157  0.41531  0.00255  1.0000 0.1204618601
H   H22       1.0  0.13905  0.97608  0.28611  1.0000 0.3604144635
H   H23       1.0  0.91893  0.76118  0.43140  1.0000 0.3505421402
H   H24       1.0  0.21218  0.92443  0.21879  1.0000 0.3604144635
H   H25       1.0  0.79911  0.99163  0.43430  1.0000 0.3791712941
H   H26       1.0  0.86691  0.23564  0.07104  1.0000 0.3791712941
H   H27       1.0  0.36277  0.54272  0.17288  1.0000 0.3604144635
H   H28       1.0  0.81939  0.15852  0.91294  1.0000 0.3604144635
H   H29       1.0  0.27196  0.60909  0.21621  1.0000 0.3604144635
H   H30       1.0  0.74235  0.79428  0.00676  1.0000 0.1204618601
H   H31       1.0  0.78213  0.01648  0.89991  1.0000 0.1204618601
H   H32       1.0  0.52541  0.96585  0.29136  1.0000 0.1289342614
H   H33       1.0  0.97406  0.55139  0.20722  1.0000 0.1204618601
H   H34       1.0  0.16139  0.70268  0.19485  1.0000 0.1204618601
H   H35       1.0  0.52224  0.70636  0.21847  1.0000 0.1204618601
H   H36       1.0  0.80229  0.03162  0.11427  1.0000 0.1289342614
H   H37       1.0  0.98104  0.82009  0.25261  1.0000 0.1289342614
H   H38       1.0  0.32280  0.81861  0.24685  1.0000 0.1204618601
H   H39       1.0  0.83509  0.83819  0.52298  1.0000 0.1204618601
H   H40       1.0  0.87040  0.93608  0.54506  1.0000 0.1204618601
H   H41       1.0  0.96228  0.82117  0.53463  1.0000 0.1124152588
H   H42       1.0  0.96843  0.91531  0.49745  1.0000 0.1204618601
H   H43       1.0  0.13905  0.52392  0.78611  1.0000 0.3604144635
H   H44       1.0  0.91893  0.73882  0.93140  1.0000 0.3505421402
H   H45       1.0  0.21218  0.57557  0.71879  1.0000 0.3604144635
H   H46       1.0  0.79911  0.50837  0.93430  1.0000 0.3791712941
H   H47       1.0  0.86691  0.26436  0.57104  1.0000 0.3791712941
H   H48       1.0  0.36277  0.95728  0.67288  1.0000 0.3604144635
H   H49       1.0  0.81939  0.34148  0.41294  1.0000 0.3604144635
H   H50       1.0  0.27196  0.89091  0.71621  1.0000 0.3604144635
H   H51       1.0  0.74235  0.70572  0.50676  1.0000 0.1204618601
H   H52       1.0  0.78213  0.48352  0.39991  1.0000 0.1204618601
H   H53       1.0  0.52541  0.53415  0.79136  1.0000 0.1289342614
H   H54       1.0  0.97406  0.94861  0.70722  1.0000 0.1204618601
H   H55       1.0  0.16139  0.79732  0.69485  1.0000 0.1204618601
H   H56       1.0  0.52224  0.79364  0.71847  1.0000 0.1204618601
H   H57       1.0  0.80229  0.46838  0.61427  1.0000 0.1289342614
H   H58       1.0  0.98104  0.67991  0.75261  1.0000 0.1289342614
H   H59       1.0  0.32280  0.68139  0.74685  1.0000 0.1204618601
H   H60       1.0  0.83509  0.66181  0.02298  1.0000 0.1204618601
H   H61       1.0  0.87040  0.56392  0.04506  1.0000 0.1204618601
H   H62       1.0  0.96228  0.67883  0.03463  1.0000 0.1124152588
H   H63       1.0  0.96843  0.58469  0.99745  1.0000 0.1204618601
H   H64       1.0  0.86095  0.02392  0.71389  1.0000 0.3604144635
H   H65       1.0  0.08107  0.23882  0.56860  1.0000 0.3505421402
H   H66       1.0  0.78782  0.07557  0.78121  1.0000 0.3604144635
H   H67       1.0  0.20089  0.00837  0.56570  1.0000 0.3791712941
H   H68       1.0  0.13309  0.76436  0.92896  1.0000 0.3791712941
H   H69       1.0  0.63723  0.45728  0.82712  1.0000 0.3604144635
H   H70       1.0  0.18061  0.84148  0.08706  1.0000 0.3604144635
H   H71       1.0  0.72804  0.39091  0.78379  1.0000 0.3604144635
H   H72       1.0  0.25765  0.20572  0.99324  1.0000 0.1204618601
H   H73       1.0  0.21787  0.98352  0.10009  1.0000 0.1204618601
H   H74       1.0  0.47459  0.03415  0.70864  1.0000 0.1289342614
H   H75       1.0  0.02594  0.44861  0.79278  1.0000 0.1204618601
H   H76       1.0  0.83861  0.29732  0.80515  1.0000 0.1204618601
H   H77       1.0  0.47776  0.29364  0.78153  1.0000 0.1204618601
H   H78       1.0  0.19771  0.96838  0.88573  1.0000 0.1289342614
H   H79       1.0  0.01896  0.17991  0.74739  1.0000 0.1289342614
H   H80       1.0  0.67720  0.18139  0.75315  1.0000 0.1204618601
H   H81       1.0  0.16491  0.16181  0.47702  1.0000 0.1204618601
H   H82       1.0  0.12960  0.06392  0.45494  1.0000 0.1204618601
H   H83       1.0  0.03772  0.17883  0.46537  1.0000 0.1124152588
H   H84       1.0  0.03157  0.08469  0.50255  1.0000 0.1204618601
C   C1        1.0  0.11710  0.17840  0.25960  1.0000 0.632299187
C   C2        1.0  0.37430  0.34460  0.23290  1.0000 0.632299187
C   C3        1.0  0.24870  0.33920  0.62360  1.0000 0.632299187
C   C4        1.0  0.23770  0.35900  0.36140  1.0000 0.6410595598
C   C5        1.0  0.62560  0.48710  0.21220  1.0000 0.5879272194
C   C6        1.0  0.88390  0.02780  0.31320  1.0000 0.5693772854
C   C7        1.0  0.23080  0.40670  0.42900  1.0000 -0.0390838923
C   C8        1.0  0.23850  0.39630  0.55660  1.0000 -0.0390838923
C   C9        1.0  0.46200  0.33710  0.24370  1.0000 -0.0504892925
C   C10       1.0  0.24440  0.35590  0.49320  1.0000 -0.1074285405
C   C11       1.0  0.92400  0.11290  0.29780  1.0000 -0.0390838923
C   C12       1.0  0.21950  0.48900  0.55660  1.0000 -0.0994638978
C   C13       1.0  0.50220  0.41190  0.22500  1.0000 -0.0896466551
C   C14       1.0  0.03570  0.18550  0.26910  1.0000 -0.0504892925
C   C15       1.0  0.58350  0.40560  0.23070  1.0000 -0.0390838923
C   C16       1.0  0.99940  0.10720  0.28750  1.0000 -0.1074285405
C   C17       1.0  0.88700  0.19830  0.29410  1.0000 -0.0810677357
C   C18       1.0  0.50390  0.25540  0.26750  1.0000 -0.0810677357
C   C19       1.0  0.20870  0.49830  0.42900  1.0000 -0.0723844515
C   C20       1.0  0.92070  0.27710  0.27430  1.0000 -0.1639689384
C   C21       1.0  0.99560  0.26880  0.26140  1.0000 -0.0810677357
C   C22       1.0  0.20290  0.54140  0.49310  1.0000 -0.1939973003
C   C23       1.0  0.62360  0.32320  0.25150  1.0000 -0.0723844515
C   C24       1.0  0.58480  0.24710  0.27020  1.0000 -0.1773260413
C   C25       1.0  0.14040  0.39040  0.99330  1.0000 -0.0264981492
C   C26       1.0  0.06520  0.36200  0.00470  1.0000 -0.0504892925
C   C27       1.0  0.88290  0.67840  0.24040  1.0000 0.632299187
C   C28       1.0  0.62570  0.84460  0.26710  1.0000 0.632299187
C   C29       1.0  0.75130  0.83920  0.87640  1.0000 0.632299187
C   C30       1.0  0.76230  0.85900  0.13860  1.0000 0.6410595598
C   C31       1.0  0.37440  0.98710  0.28780  1.0000 0.5879272194
C   C32       1.0  0.11610  0.52780  0.18680  1.0000 0.5693772854
C   C33       1.0  0.76920  0.90670  0.07100  1.0000 -0.0390838923
C   C34       1.0  0.76150  0.89630  0.94340  1.0000 -0.0390838923
C   C35       1.0  0.53800  0.83710  0.25630  1.0000 -0.0504892925
C   C36       1.0  0.75560  0.85590  0.00680  1.0000 -0.1074285405
C   C37       1.0  0.07600  0.61290  0.20220  1.0000 -0.0390838923
C   C38       1.0  0.78050  0.98900  0.94340  1.0000 -0.0994638978
C   C39       1.0  0.49780  0.91190  0.27500  1.0000 -0.0896466551
C   C40       1.0  0.96430  0.68550  0.23090  1.0000 -0.0504892925
C   C41       1.0  0.41650  0.90560  0.26930  1.0000 -0.0390838923
C   C42       1.0  0.00060  0.60720  0.21250  1.0000 -0.1074285405
C   C43       1.0  0.11300  0.69830  0.20590  1.0000 -0.0810677357
C   C44       1.0  0.49610  0.75540  0.23250  1.0000 -0.0810677357
C   C45       1.0  0.79130  0.99830  0.07100  1.0000 -0.0723844515
C   C46       1.0  0.07930  0.77710  0.22570  1.0000 -0.1639689384
C   C47       1.0  0.00440  0.76880  0.23860  1.0000 -0.0810677357
C   C48       1.0  0.79710  0.04140  0.00690  1.0000 -0.1939973003
C   C49       1.0  0.37640  0.82320  0.24850  1.0000 -0.0723844515
C   C50       1.0  0.41520  0.74710  0.22980  1.0000 -0.1773260413
C   C51       1.0  0.85960  0.89040  0.50670  1.0000 -0.0264981492
C   C52       1.0  0.93480  0.86200  0.49530  1.0000 -0.0504892925
C   C53       1.0  0.88290  0.82160  0.74040  1.0000 0.632299187
C   C54       1.0  0.62570  0.65540  0.76710  1.0000 0.632299187
C   C55       1.0  0.75130  0.66080  0.37640  1.0000 0.632299187
C   C56       1.0  0.76230  0.64100  0.63860  1.0000 0.6410595598
C   C57       1.0  0.37440  0.51290  0.78780  1.0000 0.5879272194
C   C58       1.0  0.11610  0.97220  0.68680  1.0000 0.5693772854
C   C59       1.0  0.76920  0.59330  0.57100  1.0000 -0.0390838923
C   C60       1.0  0.76150  0.60370  0.44340  1.0000 -0.0390838923
C   C61       1.0  0.53800  0.66290  0.75630  1.0000 -0.0504892925
C   C62       1.0  0.75560  0.64410  0.50680  1.0000 -0.1074285405
C   C63       1.0  0.07600  0.88710  0.70220  1.0000 -0.0390838923
C   C64       1.0  0.78050  0.51100  0.44340  1.0000 -0.0994638978
C   C65       1.0  0.49780  0.58810  0.77500  1.0000 -0.0896466551
C   C66       1.0  0.96430  0.81450  0.73090  1.0000 -0.0504892925
C   C67       1.0  0.41650  0.59440  0.76930  1.0000 -0.0390838923
C   C68       1.0  0.00060  0.89280  0.71250  1.0000 -0.1074285405
C   C69       1.0  0.11300  0.80170  0.70590  1.0000 -0.0810677357
C   C70       1.0  0.49610  0.74460  0.73250  1.0000 -0.0810677357
C   C71       1.0  0.79130  0.50170  0.57100  1.0000 -0.0723844515
C   C72       1.0  0.07930  0.72290  0.72570  1.0000 -0.1639689384
C   C73       1.0  0.00440  0.73120  0.73860  1.0000 -0.0810677357
C   C74       1.0  0.79710  0.45860  0.50690  1.0000 -0.1939973003
C   C75       1.0  0.37640  0.67680  0.74850  1.0000 -0.0723844515
C   C76       1.0  0.41520  0.75290  0.72980  1.0000 -0.1773260413
C   C77       1.0  0.85960  0.60960  0.00670  1.0000 -0.0264981492
C   C78       1.0  0.93480  0.63800  0.99530  1.0000 -0.0504892925
C   C79       1.0  0.11710  0.32160  0.75960  1.0000 0.632299187
C   C80       1.0  0.37430  0.15540  0.73290  1.0000 0.632299187
C   C81       1.0  0.24870  0.16080  0.12360  1.0000 0.632299187
C   C82       1.0  0.23770  0.14100  0.86140  1.0000 0.6410595598
C   C83       1.0  0.62560  0.01290  0.71220  1.0000 0.5879272194
C   C84       1.0  0.88390  0.47220  0.81320  1.0000 0.5693772854
C   C85       1.0  0.23080  0.09330  0.92900  1.0000 -0.0390838923
C   C86       1.0  0.23850  0.10370  0.05660  1.0000 -0.0390838923
C   C87       1.0  0.46200  0.16290  0.74370  1.0000 -0.0504892925
C   C88       1.0  0.24440  0.14410  0.99320  1.0000 -0.1074285405
C   C89       1.0  0.92400  0.38710  0.79780  1.0000 -0.0390838923
C   C90       1.0  0.21950  0.01100  0.05660  1.0000 -0.0994638978
C   C91       1.0  0.50220  0.08810  0.72500  1.0000 -0.0896466551
C   C92       1.0  0.03570  0.31450  0.76910  1.0000 -0.0504892925
C   C93       1.0  0.58350  0.09440  0.73070  1.0000 -0.0390838923
C   C94       1.0  0.99940  0.39280  0.78750  1.0000 -0.1074285405
C   C95       1.0  0.88700  0.30170  0.79410  1.0000 -0.0810677357
C   C96       1.0  0.50390  0.24460  0.76750  1.0000 -0.0810677357
C   C97       1.0  0.20870  0.00170  0.92900  1.0000 -0.0723844515
C   C98       1.0  0.92070  0.22290  0.77430  1.0000 -0.1639689384
C   C99       1.0  0.99560  0.23120  0.76140  1.0000 -0.0810677357
C   C100      1.0  0.20290  0.95860  0.99310  1.0000 -0.1939973003
C   C101      1.0  0.62360  0.17680  0.75150  1.0000 -0.0723844515
C   C102      1.0  0.58480  0.25290  0.77020  1.0000 -0.1773260413
C   C103      1.0  0.14040  0.10960  0.49330  1.0000 -0.0264981492
C   C104      1.0  0.06520  0.13800  0.50470  1.0000 -0.0504892925
O   O1        1.0  0.33750  0.28260  0.25600  1.0000 -0.7099080263
O   O2        1.0  0.14360  0.24140  0.22810  1.0000 -0.704955834
O   O3        1.0  0.69850  0.48160  0.21280  1.0000 -0.6377998172
O   O4        1.0  0.26290  0.37940  0.68380  1.0000 -0.6279476661
O   O5        1.0  0.25610  0.27490  0.36820  1.0000 -0.7099080263
O   O6        1.0  0.16020  0.10930  0.28720  1.0000 -0.6546267448
O   O7        1.0  0.22440  0.40430  0.30360  1.0000 -0.610690671
O   O8        1.0  0.24130  0.25360  0.61390  1.0000 -0.6598047841
O   O9        1.0  0.33560  0.41290  0.19830  1.0000 -0.6279476661
O   O10       1.0  0.81320  0.03080  0.31800  1.0000 -0.6377998172
O   O11       1.0  0.58730  0.56130  0.19600  1.0000 -0.6279476661
O   O12       1.0  0.88350  0.42760  0.21090  1.0000 -0.6693669437
O   O13       1.0  0.07590  0.31630  0.07380  1.0000 -0.4691837309
O   O14       1.0  0.81760  0.38230  0.30010  1.0000 -0.6693669437
O   O15       1.0  0.92080  0.95280  0.31980  1.0000 -0.610690671
O   O16       1.0  0.19620  0.42780  0.05880  1.0000 -0.515760201
O   O17       1.0  0.15240  0.68550  0.42510  1.0000 -0.610690671
O   O18       1.0  0.61360  0.09010  0.33080  1.0000 -0.6546267448
O   O19       1.0  0.16920  0.69190  0.55100  1.0000 -0.6598047841
O   O20       1.0  0.69700  0.14810  0.26080  1.0000 -0.6598047841
O   O21       1.0  0.66250  0.78260  0.24400  1.0000 -0.7099080263
O   O22       1.0  0.85640  0.74140  0.27190  1.0000 -0.704955834
O   O23       1.0  0.30150  0.98160  0.28720  1.0000 -0.6377998172
O   O24       1.0  0.73710  0.87940  0.81620  1.0000 -0.6279476661
O   O25       1.0  0.74390  0.77490  0.13180  1.0000 -0.7099080263
O   O26       1.0  0.83980  0.60930  0.21280  1.0000 -0.6546267448
O   O27       1.0  0.77560  0.90430  0.19640  1.0000 -0.610690671
O   O28       1.0  0.75870  0.75360  0.88610  1.0000 -0.6598047841
O   O29       1.0  0.66440  0.91290  0.30170  1.0000 -0.6279476661
O   O30       1.0  0.18680  0.53080  0.18200  1.0000 -0.6377998172
O   O31       1.0  0.41270  0.06130  0.30400  1.0000 -0.6279476661
O   O32       1.0  0.11650  0.92760  0.28910  1.0000 -0.6693669437
O   O33       1.0  0.92410  0.81630  0.42620  1.0000 -0.4691837309
O   O34       1.0  0.18240  0.88230  0.19990  1.0000 -0.6693669437
O   O35       1.0  0.07920  0.45280  0.18020  1.0000 -0.610690671
O   O36       1.0  0.80380  0.92780  0.44120  1.0000 -0.515760201
O   O37       1.0  0.84760  0.18550  0.07490  1.0000 -0.610690671
O   O38       1.0  0.38640  0.59010  0.16920  1.0000 -0.6546267448
O   O39       1.0  0.83080  0.19190  0.94900  1.0000 -0.6598047841
O   O40       1.0  0.30300  0.64810  0.23920  1.0000 -0.6598047841
O   O41       1.0  0.66250  0.71740  0.74400  1.0000 -0.7099080263
O   O42       1.0  0.85640  0.75860  0.77190  1.0000 -0.704955834
O   O43       1.0  0.30150  0.51840  0.78720  1.0000 -0.6377998172
O   O44       1.0  0.73710  0.62060  0.31620  1.0000 -0.6279476661
O   O45       1.0  0.74390  0.72510  0.63180  1.0000 -0.7099080263
O   O46       1.0  0.83980  0.89070  0.71280  1.0000 -0.6546267448
O   O47       1.0  0.77560  0.59570  0.69640  1.0000 -0.610690671
O   O48       1.0  0.75870  0.74640  0.38610  1.0000 -0.6598047841
O   O49       1.0  0.66440  0.58710  0.80170  1.0000 -0.6279476661
O   O50       1.0  0.18680  0.96920  0.68200  1.0000 -0.6377998172
O   O51       1.0  0.41270  0.43870  0.80400  1.0000 -0.6279476661
O   O52       1.0  0.11650  0.57240  0.78910  1.0000 -0.6693669437
O   O53       1.0  0.92410  0.68370  0.92620  1.0000 -0.4691837309
O   O54       1.0  0.18240  0.61770  0.69990  1.0000 -0.6693669437
O   O55       1.0  0.07920  0.04720  0.68020  1.0000 -0.610690671
O   O56       1.0  0.80380  0.57220  0.94120  1.0000 -0.515760201
O   O57       1.0  0.84760  0.31450  0.57490  1.0000 -0.610690671
O   O58       1.0  0.38640  0.90990  0.66920  1.0000 -0.6546267448
O   O59       1.0  0.83080  0.30810  0.44900  1.0000 -0.6598047841
O   O60       1.0  0.30300  0.85190  0.73920  1.0000 -0.6598047841
O   O61       1.0  0.33750  0.21740  0.75600  1.0000 -0.7099080263
O   O62       1.0  0.14360  0.25860  0.72810  1.0000 -0.704955834
O   O63       1.0  0.69850  0.01840  0.71280  1.0000 -0.6377998172
O   O64       1.0  0.26290  0.12060  0.18380  1.0000 -0.6279476661
O   O65       1.0  0.25610  0.22510  0.86820  1.0000 -0.7099080263
O   O66       1.0  0.16020  0.39070  0.78720  1.0000 -0.6546267448
O   O67       1.0  0.22440  0.09570  0.80360  1.0000 -0.610690671
O   O68       1.0  0.24130  0.24640  0.11390  1.0000 -0.6598047841
O   O69       1.0  0.33560  0.08710  0.69830  1.0000 -0.6279476661
O   O70       1.0  0.81320  0.46920  0.81800  1.0000 -0.6377998172
O   O71       1.0  0.58730  0.93870  0.69600  1.0000 -0.6279476661
O   O72       1.0  0.88350  0.07240  0.71090  1.0000 -0.6693669437
O   O73       1.0  0.07590  0.18370  0.57380  1.0000 -0.4691837309
O   O74       1.0  0.81760  0.11770  0.80010  1.0000 -0.6693669437
O   O75       1.0  0.92080  0.54720  0.81980  1.0000 -0.610690671
O   O76       1.0  0.19620  0.07220  0.55880  1.0000 -0.515760201
O   O77       1.0  0.15240  0.81450  0.92510  1.0000 -0.610690671
O   O78       1.0  0.61360  0.40990  0.83080  1.0000 -0.6546267448
O   O79       1.0  0.16920  0.80810  0.05100  1.0000 -0.6598047841
O   O80       1.0  0.69700  0.35190  0.76080  1.0000 -0.6598047841
