# DDEC6 charges by PACMAN v1.1 (https://github.com/mtap-research/PACMAN-charge/)
data_2022[Zn][nan]3[ASR]22
_chemical_formula_sum              "Zn12 H48 C78 N24 O36"
_cell_length_a       21.1268
_cell_length_b       21.1268
_cell_length_c       21.1268
_cell_angle_alpha    116.226
_cell_angle_beta     116.226
_cell_angle_gamma    116.226

_symmetry_space_group_name_H-M    "P 1"
_symmetry_Int_Tables_number       1

loop_
  _symmetry_equiv_pos_as_xyz
  'x, y, z'

loop_
  _atom_site_type_symbol
  _atom_site_label
  _atom_site_symmetry_multiplicity
  _atom_site_fract_x
  _atom_site_fract_y
  _atom_site_fract_z
  _atom_site_occupancy
  _atom_site_charge
Zn  Zn1       1.0  0.33232  0.78716  0.52477  1.0000 0.7746750224
Zn  Zn2       1.0  0.44311  0.97445  0.53293  1.0000 0.8100013841
Zn  Zn3       1.0  0.78716  0.52477  0.33232  1.0000 0.7746750224
Zn  Zn4       1.0  0.97445  0.53293  0.44311  1.0000 0.8100013841
Zn  Zn5       1.0  0.52477  0.33232  0.78716  1.0000 0.7746750224
Zn  Zn6       1.0  0.53293  0.44311  0.97445  1.0000 0.8100013841
Zn  Zn7       1.0  0.66768  0.21284  0.47523  1.0000 0.7746750224
Zn  Zn8       1.0  0.55689  0.02555  0.46707  1.0000 0.8100013841
Zn  Zn9       1.0  0.21284  0.47523  0.66768  1.0000 0.7746750224
Zn  Zn10      1.0  0.02555  0.46707  0.55689  1.0000 0.8100013841
Zn  Zn11      1.0  0.47523  0.66768  0.21284  1.0000 0.7746750224
Zn  Zn12      1.0  0.46707  0.55689  0.02555  1.0000 0.8100013841
H   H1        1.0  0.63610  0.07890  0.90540  1.0000 0.1268428101
H   H2        1.0  0.57680  0.21330  0.84470  1.0000 0.1119233105
H   H3        1.0  0.67960  0.35610  0.02900  1.0000 0.1119233105
H   H4        1.0  0.75220  0.23070  0.09560  1.0000 0.1119233105
H   H5        1.0  0.34920  0.64880  0.40260  1.0000 0.124994557
H   H6        1.0  0.55780  0.88100  0.36050  1.0000 0.1119233105
H   H7        1.0  0.67700  0.16500  0.68600  1.0000 0.3689151514
H   H8        1.0  0.65290  0.07500  0.62310  1.0000 0.3607156186
H   H9        1.0  0.07890  0.90540  0.63610  1.0000 0.1268428101
H   H10       1.0  0.21330  0.84470  0.57680  1.0000 0.1119233105
H   H11       1.0  0.35610  0.02900  0.67960  1.0000 0.1119233105
H   H12       1.0  0.23070  0.09560  0.75220  1.0000 0.1119233105
H   H13       1.0  0.64880  0.40260  0.34920  1.0000 0.124994557
H   H14       1.0  0.88100  0.36050  0.55780  1.0000 0.1119233105
H   H15       1.0  0.16500  0.68600  0.67700  1.0000 0.3689151514
H   H16       1.0  0.07500  0.62310  0.65290  1.0000 0.3607156186
H   H17       1.0  0.90540  0.63610  0.07890  1.0000 0.1268428101
H   H18       1.0  0.84470  0.57680  0.21330  1.0000 0.1119233105
H   H19       1.0  0.02900  0.67960  0.35610  1.0000 0.1119233105
H   H20       1.0  0.09560  0.75220  0.23070  1.0000 0.1119233105
H   H21       1.0  0.40260  0.34920  0.64880  1.0000 0.124994557
H   H22       1.0  0.36050  0.55780  0.88100  1.0000 0.1119233105
H   H23       1.0  0.68600  0.67700  0.16500  1.0000 0.3689151514
H   H24       1.0  0.62310  0.65290  0.07500  1.0000 0.3607156186
H   H25       1.0  0.36390  0.92110  0.09460  1.0000 0.1268428101
H   H26       1.0  0.42320  0.78670  0.15530  1.0000 0.1119233105
H   H27       1.0  0.32040  0.64390  0.97100  1.0000 0.1119233105
H   H28       1.0  0.24780  0.76930  0.90440  1.0000 0.1119233105
H   H29       1.0  0.65080  0.35120  0.59740  1.0000 0.124994557
H   H30       1.0  0.44220  0.11900  0.63950  1.0000 0.1119233105
H   H31       1.0  0.32300  0.83500  0.31400  1.0000 0.3689151514
H   H32       1.0  0.34710  0.92500  0.37690  1.0000 0.3607156186
H   H33       1.0  0.92110  0.09460  0.36390  1.0000 0.1268428101
H   H34       1.0  0.78670  0.15530  0.42320  1.0000 0.1119233105
H   H35       1.0  0.64390  0.97100  0.32040  1.0000 0.1119233105
H   H36       1.0  0.76930  0.90440  0.24780  1.0000 0.1119233105
H   H37       1.0  0.35120  0.59740  0.65080  1.0000 0.124994557
H   H38       1.0  0.11900  0.63950  0.44220  1.0000 0.1119233105
H   H39       1.0  0.83500  0.31400  0.32300  1.0000 0.3689151514
H   H40       1.0  0.92500  0.37690  0.34710  1.0000 0.3607156186
H   H41       1.0  0.09460  0.36390  0.92110  1.0000 0.1268428101
H   H42       1.0  0.15530  0.42320  0.78670  1.0000 0.1119233105
H   H43       1.0  0.97100  0.32040  0.64390  1.0000 0.1119233105
H   H44       1.0  0.90440  0.24780  0.76930  1.0000 0.1119233105
H   H45       1.0  0.59740  0.65080  0.35120  1.0000 0.124994557
H   H46       1.0  0.63950  0.44220  0.11900  1.0000 0.1119233105
H   H47       1.0  0.31400  0.32300  0.83500  1.0000 0.3689151514
H   H48       1.0  0.37690  0.34710  0.92500  1.0000 0.3607156186
C   C1        1.0  0.51516  0.02990  0.73184  1.0000 0.5897388119
C   C2        1.0  0.59410  0.13012  0.85598  1.0000 -0.0198054241
C   C3        1.0  0.64658  0.13625  0.93117  1.0000 -0.1029854607
C   C4        1.0  0.60963  0.21506  0.89441  1.0000 -0.1029854607
C   C5        1.0  0.79429  0.40112  0.20139  1.0000 0.5897388119
C   C6        1.0  0.72657  0.30839  0.08134  1.0000 -0.0198054241
C   C7        1.0  0.67276  0.30130  0.00484  1.0000 -0.1029854607
C   C8        1.0  0.71443  0.22576  0.04411  1.0000 -0.1157752764
C   C9        1.0  0.37809  0.70828  0.41623  1.0000 0.0432101559
C   C10       1.0  0.42638  0.73852  0.39050  1.0000 -0.1860505384
C   C11       1.0  0.45726  0.83130  0.42764  1.0000 0.2841940034
C   C12       1.0  0.52254  0.84431  0.36795  1.0000 0.2735426533
C   C13       1.0  0.44246  0.69439  0.33485  1.0000 0.4962346662
C   C14       1.0  0.02990  0.73184  0.51516  1.0000 0.5897388119
C   C15       1.0  0.13012  0.85598  0.59410  1.0000 -0.0198054241
C   C16       1.0  0.13625  0.93117  0.64658  1.0000 -0.1029854607
C   C17       1.0  0.21506  0.89441  0.60963  1.0000 -0.1029854607
C   C18       1.0  0.40112  0.20139  0.79429  1.0000 0.5897388119
C   C19       1.0  0.30839  0.08134  0.72657  1.0000 -0.0198054241
C   C20       1.0  0.30130  0.00484  0.67276  1.0000 -0.1029854607
C   C21       1.0  0.22576  0.04411  0.71443  1.0000 -0.1157752764
C   C22       1.0  0.70828  0.41623  0.37809  1.0000 0.0432101559
C   C23       1.0  0.73852  0.39050  0.42638  1.0000 -0.1860505384
C   C24       1.0  0.83130  0.42764  0.45726  1.0000 0.2841940034
C   C25       1.0  0.84431  0.36795  0.52254  1.0000 0.2735426533
C   C26       1.0  0.69439  0.33485  0.44246  1.0000 0.4962346662
C   C27       1.0  0.73184  0.51516  0.02990  1.0000 0.5897388119
C   C28       1.0  0.85598  0.59410  0.13012  1.0000 -0.0198054241
C   C29       1.0  0.93117  0.64658  0.13625  1.0000 -0.1029854607
C   C30       1.0  0.89441  0.60963  0.21506  1.0000 -0.1029854607
C   C31       1.0  0.20139  0.79429  0.40112  1.0000 0.5897388119
C   C32       1.0  0.08134  0.72657  0.30839  1.0000 -0.0198054241
C   C33       1.0  0.00484  0.67276  0.30130  1.0000 -0.1029854607
C   C34       1.0  0.04411  0.71443  0.22576  1.0000 -0.1157752764
C   C35       1.0  0.41623  0.37809  0.70828  1.0000 0.0432101559
C   C36       1.0  0.39050  0.42638  0.73852  1.0000 -0.1860505384
C   C37       1.0  0.42764  0.45726  0.83130  1.0000 0.2841940034
C   C38       1.0  0.36795  0.52254  0.84431  1.0000 0.2735426533
C   C39       1.0  0.33485  0.44246  0.69439  1.0000 0.4962346662
C   C40       1.0  0.48484  0.97010  0.26816  1.0000 0.5897388119
C   C41       1.0  0.40590  0.86988  0.14402  1.0000 -0.0198054241
C   C42       1.0  0.35342  0.86375  0.06883  1.0000 -0.1029854607
C   C43       1.0  0.39037  0.78494  0.10559  1.0000 -0.1029854607
C   C44       1.0  0.20571  0.59888  0.79861  1.0000 0.5897388119
C   C45       1.0  0.27343  0.69161  0.91866  1.0000 -0.0198054241
C   C46       1.0  0.32724  0.69870  0.99516  1.0000 -0.1029854607
C   C47       1.0  0.28557  0.77424  0.95589  1.0000 -0.1157752764
C   C48       1.0  0.62191  0.29172  0.58377  1.0000 0.0432101559
C   C49       1.0  0.57362  0.26148  0.60950  1.0000 -0.1860505384
C   C50       1.0  0.54274  0.16870  0.57236  1.0000 0.2841940034
C   C51       1.0  0.47746  0.15569  0.63205  1.0000 0.2735426533
C   C52       1.0  0.55754  0.30561  0.66515  1.0000 0.4962346662
C   C53       1.0  0.97010  0.26816  0.48484  1.0000 0.5897388119
C   C54       1.0  0.86988  0.14402  0.40590  1.0000 -0.0198054241
C   C55       1.0  0.86375  0.06883  0.35342  1.0000 -0.1029854607
C   C56       1.0  0.78494  0.10559  0.39037  1.0000 -0.1029854607
C   C57       1.0  0.59888  0.79861  0.20571  1.0000 0.5897388119
C   C58       1.0  0.69161  0.91866  0.27343  1.0000 -0.0198054241
C   C59       1.0  0.69870  0.99516  0.32724  1.0000 -0.1029854607
C   C60       1.0  0.77424  0.95589  0.28557  1.0000 -0.1157752764
C   C61       1.0  0.29172  0.58377  0.62191  1.0000 0.0432101559
C   C62       1.0  0.26148  0.60950  0.57362  1.0000 -0.1860505384
C   C63       1.0  0.16870  0.57236  0.54274  1.0000 0.2841940034
C   C64       1.0  0.15569  0.63205  0.47746  1.0000 0.2735426533
C   C65       1.0  0.30561  0.66515  0.55754  1.0000 0.4962346662
C   C66       1.0  0.26816  0.48484  0.97010  1.0000 0.5897388119
C   C67       1.0  0.14402  0.40590  0.86988  1.0000 -0.0198054241
C   C68       1.0  0.06883  0.35342  0.86375  1.0000 -0.1029854607
C   C69       1.0  0.10559  0.39037  0.78494  1.0000 -0.1029854607
C   C70       1.0  0.79861  0.20571  0.59888  1.0000 0.5897388119
C   C71       1.0  0.91866  0.27343  0.69161  1.0000 -0.0198054241
C   C72       1.0  0.99516  0.32724  0.69870  1.0000 -0.1029854607
C   C73       1.0  0.95589  0.28557  0.77424  1.0000 -0.1157752764
C   C74       1.0  0.58377  0.62191  0.29172  1.0000 0.0432101559
C   C75       1.0  0.60950  0.57362  0.26148  1.0000 -0.1860505384
C   C76       1.0  0.57236  0.54274  0.16870  1.0000 0.2841940034
C   C77       1.0  0.63205  0.47746  0.15569  1.0000 0.2735426533
C   C78       1.0  0.66515  0.55754  0.30561  1.0000 0.4962346662
N   N1        1.0  0.37983  0.77760  0.46307  1.0000 -0.1834346991
N   N2        1.0  0.42973  0.85598  0.47159  1.0000 -0.331306407
N   N3        1.0  0.49127  0.75233  0.32470  1.0000 -0.4359000664
N   N4        1.0  0.50983  0.88909  0.41928  1.0000 -0.40078323
N   N5        1.0  0.77760  0.46307  0.37983  1.0000 -0.1834346991
N   N6        1.0  0.85598  0.47159  0.42973  1.0000 -0.331306407
N   N7        1.0  0.75233  0.32470  0.49127  1.0000 -0.4359000664
N   N8        1.0  0.88909  0.41928  0.50983  1.0000 -0.40078323
N   N9        1.0  0.46307  0.37983  0.77760  1.0000 -0.1834346991
N   N10       1.0  0.47159  0.42973  0.85598  1.0000 -0.331306407
N   N11       1.0  0.32470  0.49127  0.75233  1.0000 -0.4359000664
N   N12       1.0  0.41928  0.50983  0.88909  1.0000 -0.40078323
N   N13       1.0  0.62017  0.22240  0.53693  1.0000 -0.1834346991
N   N14       1.0  0.57027  0.14402  0.52841  1.0000 -0.331306407
N   N15       1.0  0.50873  0.24767  0.67530  1.0000 -0.4359000664
N   N16       1.0  0.49017  0.11091  0.58072  1.0000 -0.40078323
N   N17       1.0  0.22240  0.53693  0.62017  1.0000 -0.1834346991
N   N18       1.0  0.14402  0.52841  0.57027  1.0000 -0.331306407
N   N19       1.0  0.24767  0.67530  0.50873  1.0000 -0.4359000664
N   N20       1.0  0.11091  0.58072  0.49017  1.0000 -0.40078323
N   N21       1.0  0.53693  0.62017  0.22240  1.0000 -0.1834346991
N   N22       1.0  0.52841  0.57027  0.14402  1.0000 -0.331306407
N   N23       1.0  0.67530  0.50873  0.24767  1.0000 -0.4359000664
N   N24       1.0  0.58072  0.49017  0.11091  1.0000 -0.40078323
O   O1        1.0  0.46872  0.93742  0.69076  1.0000 -0.5223134648
O   O2        1.0  0.49862  0.04350  0.67748  1.0000 -0.553495595
O   O3        1.0  0.76903  0.44546  0.21711  1.0000 -0.5403732351
O   O4        1.0  0.86848  0.42634  0.27538  1.0000 -0.5567407103
O   O5        1.0  0.41561  0.61022  0.29407  1.0000 -0.4907136502
O   O6        1.0  0.62431  0.09092  0.63247  1.0000 -0.6250427853
O   O7        1.0  0.93742  0.69076  0.46872  1.0000 -0.5223134648
O   O8        1.0  0.04350  0.67748  0.49862  1.0000 -0.553495595
O   O9        1.0  0.44546  0.21711  0.76903  1.0000 -0.5403732351
O   O10       1.0  0.42634  0.27538  0.86848  1.0000 -0.5567407103
O   O11       1.0  0.61022  0.29407  0.41561  1.0000 -0.4907136502
O   O12       1.0  0.09092  0.63247  0.62431  1.0000 -0.6250427853
O   O13       1.0  0.69076  0.46872  0.93742  1.0000 -0.5223134648
O   O14       1.0  0.67748  0.49862  0.04350  1.0000 -0.553495595
O   O15       1.0  0.21711  0.76903  0.44546  1.0000 -0.5403732351
O   O16       1.0  0.27538  0.86848  0.42634  1.0000 -0.5567407103
O   O17       1.0  0.29407  0.41561  0.61022  1.0000 -0.4907136502
O   O18       1.0  0.63247  0.62431  0.09092  1.0000 -0.6250427853
O   O19       1.0  0.53128  0.06258  0.30924  1.0000 -0.5223134648
O   O20       1.0  0.50138  0.95650  0.32252  1.0000 -0.553495595
O   O21       1.0  0.23097  0.55454  0.78289  1.0000 -0.5403732351
O   O22       1.0  0.13152  0.57366  0.72462  1.0000 -0.5567407103
O   O23       1.0  0.58439  0.38978  0.70593  1.0000 -0.4907136502
O   O24       1.0  0.37569  0.90908  0.36753  1.0000 -0.6250427853
O   O25       1.0  0.06258  0.30924  0.53128  1.0000 -0.5223134648
O   O26       1.0  0.95650  0.32252  0.50138  1.0000 -0.553495595
O   O27       1.0  0.55454  0.78289  0.23097  1.0000 -0.5403732351
O   O28       1.0  0.57366  0.72462  0.13152  1.0000 -0.5567407103
O   O29       1.0  0.38978  0.70593  0.58439  1.0000 -0.4907136502
O   O30       1.0  0.90908  0.36753  0.37569  1.0000 -0.6250427853
O   O31       1.0  0.30924  0.53128  0.06258  1.0000 -0.5223134648
O   O32       1.0  0.32252  0.50138  0.95650  1.0000 -0.553495595
O   O33       1.0  0.78289  0.23097  0.55454  1.0000 -0.5403732351
O   O34       1.0  0.72462  0.13152  0.57366  1.0000 -0.5567407103
O   O35       1.0  0.70593  0.58439  0.38978  1.0000 -0.4907136502
O   O36       1.0  0.36753  0.37569  0.90908  1.0000 -0.6250427853
