# DDEC6 charges by PACMAN v1.1 (https://github.com/mtap-research/PACMAN-charge/)
data_2022[Mn][nan]3[ASR]1
_chemical_formula_sum              "Mn8 H128 C224 O32"
_cell_length_a       12.8006
_cell_length_b       13.7404
_cell_length_c       35.4392
_cell_angle_alpha    92.893
_cell_angle_beta     92.785
_cell_angle_gamma    116.917

_symmetry_space_group_name_H-M    "P 1"
_symmetry_Int_Tables_number       1

loop_
  _symmetry_equiv_pos_as_xyz
  'x, y, z'

loop_
  _atom_site_type_symbol
  _atom_site_label
  _atom_site_symmetry_multiplicity
  _atom_site_fract_x
  _atom_site_fract_y
  _atom_site_fract_z
  _atom_site_occupancy
  _atom_site_charge
Mn  Mn1       1.0  0.41659  0.62140  0.00394  1.0000 1.0902094762
Mn  Mn2       1.0  0.55853  0.91852  0.01530  1.0000 1.0014506499
Mn  Mn3       1.0  0.96379  0.65054  0.50093  1.0000 1.0902094762
Mn  Mn4       1.0  0.08305  0.94700  0.51831  1.0000 0.9901443342
Mn  Mn5       1.0  0.58341  0.37860  0.99606  1.0000 1.0902094762
Mn  Mn6       1.0  0.44147  0.08148  0.98470  1.0000 1.0014506499
Mn  Mn7       1.0  0.03621  0.34946  0.49907  1.0000 1.0902094762
Mn  Mn8       1.0  0.91695  0.05300  0.48169  1.0000 0.9901443342
H   H1        1.0  0.12490  0.48550  0.26730  1.0000 0.1038379521
H   H2        1.0  0.67340  0.08930  0.16330  1.0000 0.1195317813
H   H3        1.0  0.97570  0.41240  0.30700  1.0000 0.1109316224
H   H4        1.0  0.82150  0.58540  0.67370  1.0000 0.1195317813
H   H5        1.0  0.14180  0.60710  0.16240  1.0000 0.1195317813
H   H6        1.0  0.51720  0.97690  0.24780  1.0000 0.1038379521
H   H7        1.0  0.40260  0.61040  0.32070  1.0000 0.1109316224
H   H8        1.0  0.00070  0.97350  0.25800  1.0000 0.1038379521
H   H9        1.0  0.67810  0.38280  0.15630  1.0000 0.1279670914
H   H10       1.0  0.36570  0.50780  0.75230  1.0000 0.1038379521
H   H11       1.0  0.11500  0.88060  0.83700  1.0000 0.1109316224
H   H12       1.0  0.47190  0.14060  0.19140  1.0000 0.1109316224
H   H13       1.0  0.60620  0.62500  0.67730  1.0000 0.1109316224
H   H14       1.0  0.06820  0.89840  0.30380  1.0000 0.1109316224
H   H15       1.0  0.35350  0.65510  0.21170  1.0000 0.1109316224
H   H16       1.0  0.54720  0.20150  0.32240  1.0000 0.1195317813
H   H17       1.0  0.89950  0.35670  0.17540  1.0000 0.1109316224
H   H18       1.0  0.08870  0.45910  0.20230  1.0000 0.1109316224
H   H19       1.0  0.93460  0.58710  0.27720  1.0000 0.1038379521
H   H20       1.0  0.50440  0.58040  0.80190  1.0000 0.1109316224
H   H21       1.0  0.14180  0.86670  0.17700  1.0000 0.1195317813
H   H22       1.0  0.74810  0.54220  0.84340  1.0000 0.1195317813
H   H23       1.0  0.79410  0.66630  0.18680  1.0000 0.1109316224
H   H24       1.0  0.42900  0.58500  0.25630  1.0000 0.1109316224
H   H25       1.0  0.41250  0.53120  0.68880  1.0000 0.1109316224
H   H26       1.0  0.77380  0.47140  0.33010  1.0000 0.1195317813
H   H27       1.0  0.38820  0.91500  0.18250  1.0000 0.1195317813
H   H28       1.0  0.81460  0.92900  0.17840  1.0000 0.1195317813
H   H29       1.0  0.29500  0.69430  0.33820  1.0000 0.1109316224
H   H30       1.0  0.69720  0.50180  0.90500  1.0000 0.1195317813
H   H31       1.0  0.03100  0.95200  0.19440  1.0000 0.1109316224
H   H32       1.0  0.79120  0.19020  0.34520  1.0000 0.1195317813
H   H33       1.0  0.19450  0.60550  0.10040  1.0000 0.1195317813
H   H34       1.0  0.63010  0.34590  0.09170  1.0000 0.1195317813
H   H35       1.0  0.63790  0.63350  0.35410  1.0000 0.1195317813
H   H36       1.0  0.88230  0.61000  0.61430  1.0000 0.1279670914
H   H37       1.0  0.78960  0.94290  0.11480  1.0000 0.1195317813
H   H38       1.0  0.28710  0.97090  0.34300  1.0000 0.1195317813
H   H39       1.0  0.02720  0.83620  0.72410  1.0000 0.1109316224
H   H40       1.0  0.64740  0.89220  0.33790  1.0000 0.1195317813
H   H41       1.0  0.94950  0.94770  0.41230  1.0000 0.1109316224
H   H42       1.0  0.64820  0.78000  0.85090  1.0000 0.1195317813
H   H43       1.0  0.55510  0.98470  0.31280  1.0000 0.1109316224
H   H44       1.0  0.06650  0.65120  0.34600  1.0000 0.1195317813
H   H45       1.0  0.58790  0.89210  0.20740  1.0000 0.1109316224
H   H46       1.0  0.90150  0.58180  0.21210  1.0000 0.1109316224
H   H47       1.0  0.62950  0.05160  0.09870  1.0000 0.1195317813
H   H48       1.0  0.32180  0.08050  0.22970  1.0000 0.1109316224
H   H49       1.0  0.85600  0.66380  0.31790  1.0000 0.1109316224
H   H50       1.0  0.52520  0.63700  0.10330  1.0000 0.1195317813
H   H51       1.0  0.16950  0.90550  0.77400  1.0000 0.1038379521
H   H52       1.0  0.36300  0.10760  0.29580  1.0000 0.1109316224
H   H53       1.0  0.26070  0.00200  0.40540  1.0000 0.1195317813
H   H54       1.0  0.54470  0.62580  0.16960  1.0000 0.1195317813
H   H55       1.0  0.58640  0.73500  0.91090  1.0000 0.1195317813
H   H56       1.0  0.85130  0.89030  0.68180  1.0000 0.1195317813
H   H57       1.0  0.04760  0.68150  0.40840  1.0000 0.1279670914
H   H58       1.0  0.43870  0.91840  0.12040  1.0000 0.1195317813
H   H59       1.0  0.89950  0.93420  0.34830  1.0000 0.1195317813
H   H60       1.0  0.90790  0.91020  0.62140  1.0000 0.1195317813
H   H61       1.0  0.92370  0.78890  0.84860  1.0000 0.1195317813
H   H62       1.0  0.83750  0.24500  0.40960  1.0000 0.1195317813
H   H63       1.0  0.82450  0.52410  0.39420  1.0000 0.1195317813
H   H64       1.0  0.68830  0.64220  0.41750  1.0000 0.1279670914
H   H65       1.0  0.87510  0.51450  0.73270  1.0000 0.1038379521
H   H66       1.0  0.32660  0.91070  0.83670  1.0000 0.1195317813
H   H67       1.0  0.02430  0.58760  0.69300  1.0000 0.1109316224
H   H68       1.0  0.17850  0.41460  0.32630  1.0000 0.1195317813
H   H69       1.0  0.85820  0.39290  0.83760  1.0000 0.1195317813
H   H70       1.0  0.48280  0.02310  0.75220  1.0000 0.1038379521
H   H71       1.0  0.59740  0.38960  0.67930  1.0000 0.1109316224
H   H72       1.0  0.99930  0.02650  0.74200  1.0000 0.1038379521
H   H73       1.0  0.32190  0.61720  0.84370  1.0000 0.1279670914
H   H74       1.0  0.63430  0.49220  0.24770  1.0000 0.1038379521
H   H75       1.0  0.88500  0.11940  0.16300  1.0000 0.1109316224
H   H76       1.0  0.52810  0.85940  0.80860  1.0000 0.1109316224
H   H77       1.0  0.39380  0.37500  0.32270  1.0000 0.1195317813
H   H78       1.0  0.93180  0.10160  0.69620  1.0000 0.1109316224
H   H79       1.0  0.64650  0.34490  0.78830  1.0000 0.1109316224
H   H80       1.0  0.45280  0.79850  0.67760  1.0000 0.1195317813
H   H81       1.0  0.10050  0.64330  0.82460  1.0000 0.1109316224
H   H82       1.0  0.91130  0.54090  0.79770  1.0000 0.1109316224
H   H83       1.0  0.06540  0.41290  0.72280  1.0000 0.1038379521
H   H84       1.0  0.49560  0.41960  0.19810  1.0000 0.1109316224
H   H85       1.0  0.85820  0.13330  0.82300  1.0000 0.1195317813
H   H86       1.0  0.25190  0.45780  0.15660  1.0000 0.1195317813
H   H87       1.0  0.20590  0.33370  0.81320  1.0000 0.1195317813
H   H88       1.0  0.57100  0.41500  0.74370  1.0000 0.1109316224
H   H89       1.0  0.58750  0.46880  0.31120  1.0000 0.1109316224
H   H90       1.0  0.22620  0.52860  0.66990  1.0000 0.1195317813
H   H91       1.0  0.61180  0.08500  0.81750  1.0000 0.1195317813
H   H92       1.0  0.18540  0.07100  0.82160  1.0000 0.1195317813
H   H93       1.0  0.70500  0.30570  0.66180  1.0000 0.1109316224
H   H94       1.0  0.30280  0.49820  0.09500  1.0000 0.1195317813
H   H95       1.0  0.96900  0.04800  0.80560  1.0000 0.1109316224
H   H96       1.0  0.20880  0.80980  0.65480  1.0000 0.1279670914
H   H97       1.0  0.80550  0.39450  0.89960  1.0000 0.1195317813
H   H98       1.0  0.36990  0.65410  0.90830  1.0000 0.1195317813
H   H99       1.0  0.36210  0.36650  0.64590  1.0000 0.1195317813
H   H100      1.0  0.11770  0.39000  0.38570  1.0000 0.1279670914
H   H101      1.0  0.21040  0.05710  0.88520  1.0000 0.1195317813
H   H102      1.0  0.71290  0.02910  0.65700  1.0000 0.1195317813
H   H103      1.0  0.97280  0.16380  0.27590  1.0000 0.1109316224
H   H104      1.0  0.35260  0.10780  0.66210  1.0000 0.1195317813
H   H105      1.0  0.05050  0.05230  0.58770  1.0000 0.1109316224
H   H106      1.0  0.35180  0.22000  0.14910  1.0000 0.1195317813
H   H107      1.0  0.44490  0.01530  0.68720  1.0000 0.1109316224
H   H108      1.0  0.93350  0.34880  0.65400  1.0000 0.1195317813
H   H109      1.0  0.41210  0.10790  0.79260  1.0000 0.1109316224
H   H110      1.0  0.09850  0.41820  0.78790  1.0000 0.1109316224
H   H111      1.0  0.37050  0.94840  0.90130  1.0000 0.1195317813
H   H112      1.0  0.67820  0.91950  0.77030  1.0000 0.1109316224
H   H113      1.0  0.14400  0.33620  0.68210  1.0000 0.1109316224
H   H114      1.0  0.47480  0.36300  0.89670  1.0000 0.1195317813
H   H115      1.0  0.83050  0.09450  0.22600  1.0000 0.1038379521
H   H116      1.0  0.63700  0.89240  0.70420  1.0000 0.1109316224
H   H117      1.0  0.73930  0.99800  0.59460  1.0000 0.1195317813
H   H118      1.0  0.45530  0.37420  0.83040  1.0000 0.1195317813
H   H119      1.0  0.41360  0.26500  0.08910  1.0000 0.1195317813
H   H120      1.0  0.14870  0.10970  0.31820  1.0000 0.1195317813
H   H121      1.0  0.95240  0.31850  0.59160  1.0000 0.1279670914
H   H122      1.0  0.56130  0.08160  0.87960  1.0000 0.1195317813
H   H123      1.0  0.10050  0.06580  0.65170  1.0000 0.1195317813
H   H124      1.0  0.09210  0.08980  0.37860  1.0000 0.1195317813
H   H125      1.0  0.07630  0.21110  0.15140  1.0000 0.1195317813
H   H126      1.0  0.16250  0.75500  0.59040  1.0000 0.1195317813
H   H127      1.0  0.17550  0.47590  0.60580  1.0000 0.1195317813
H   H128      1.0  0.31170  0.35780  0.58250  1.0000 0.1279670914
C   C1        1.0  0.15240  0.83690  0.26840  1.0000 0.0323091117
C   C2        1.0  0.66050  0.83270  0.24680  1.0000 0.0323091117
C   C3        1.0  0.67560  0.23860  0.16680  1.0000 0.0856684814
C   C4        1.0  0.70210  0.26070  0.20910  1.0000 -0.0475829807
C   C5        1.0  0.73800  0.77670  0.30260  1.0000 -0.0394853122
C   C6        1.0  0.26310  0.76350  0.17850  1.0000 0.0796237695
C   C7        1.0  0.23370  0.76700  0.21860  1.0000 -0.0394853122
C   C8        1.0  0.69700  0.77340  0.22250  1.0000 -0.031545056
C   C9        1.0  0.27510  0.71900  0.24620  1.0000 0.0373292757
C   C10       1.0  0.04790  0.44470  0.25690  1.0000 -0.0995576165
C   C11       1.0  0.66360  0.13980  0.14890  1.0000 -0.1650017281
C   C12       1.0  0.83020  0.73530  0.68550  1.0000 0.0796237695
C   C13       1.0  0.95850  0.40170  0.28090  1.0000 -0.1579762463
C   C14       1.0  0.67970  0.83300  0.28700  1.0000 0.0323091117
C   C15       1.0  0.83980  0.65190  0.66360  1.0000 -0.1502203303
C   C16       1.0  0.20260  0.66900  0.15410  1.0000 -0.1579762463
C   C17       1.0  0.55940  0.94240  0.25750  1.0000 -0.0995576165
C   C18       1.0  0.36970  0.63650  0.30230  1.0000 -0.0995576165
C   C19       1.0  0.04250  0.93580  0.25120  1.0000 -0.0995576165
C   C20       1.0  0.17190  0.82510  0.23030  1.0000 0.0323091117
C   C21       1.0  0.66580  0.31580  0.14480  1.0000 -0.1502203303
C   C22       1.0  0.88600  0.76730  0.75530  1.0000 0.0373292757
C   C23       1.0  0.81940  0.32490  0.22490  1.0000 0.0323091117
C   C24       1.0  0.67820  0.66010  0.73170  1.0000 0.0323091117
C   C25       1.0  0.44410  0.54720  0.74730  1.0000 -0.0915729762
C   C26       1.0  0.79820  0.72070  0.72450  1.0000 -0.0475829807
C   C27       1.0  0.85200  0.75020  0.79330  1.0000 0.0323091117
C   C28       1.0  0.62990  0.23410  0.27340  1.0000 0.0373292757
C   C29       1.0  0.19600  0.79050  0.29630  1.0000 -0.0394853122
C   C30       1.0  0.74650  0.29620  0.28860  1.0000 -0.0394853122
C   C31       1.0  0.05750  0.85220  0.81690  1.0000 -0.1108164587
C   C32       1.0  0.48860  0.15470  0.21750  1.0000 -0.1502203303
C   C33       1.0  0.58710  0.57650  0.95140  1.0000 0.5969733914
C   C34       1.0  0.77500  0.32510  0.33090  1.0000 0.0796237695
C   C35       1.0  0.58640  0.61560  0.70220  1.0000 -0.141533719
C   C36       1.0  0.08400  0.89220  0.27870  1.0000 -0.1502203303
C   C37       1.0  0.25480  0.73200  0.28560  1.0000 0.0323091117
C   C38       1.0  0.34080  0.66380  0.23700  1.0000 -0.141533719
C   C39       1.0  0.53390  0.19100  0.29610  1.0000 -0.141533719
C   C40       1.0  0.17790  0.80710  0.33740  1.0000 0.0796237695
C   C41       1.0  0.84030  0.34120  0.26540  1.0000 0.0373292757
C   C42       1.0  0.63580  0.61110  0.91310  1.0000 -0.0204437585
C   C43       1.0  0.91380  0.36870  0.20160  1.0000 -0.141533719
C   C44       1.0  0.64670  0.64800  0.77010  1.0000 0.0373292757
C   C45       1.0  0.73400  0.68890  0.80090  1.0000 -0.0394853122
C   C46       1.0  0.02670  0.42890  0.21770  1.0000 -0.0995576165
C   C47       1.0  0.58320  0.16480  0.04730  1.0000 0.5906240712
C   C48       1.0  0.70230  0.66510  0.84050  1.0000 0.0796237695
C   C49       1.0  0.88960  0.61890  0.26750  1.0000 -0.0995576165
C   C50       1.0  0.52640  0.58960  0.77720  1.0000 -0.1502203303
C   C51       1.0  0.68100  0.77790  0.18050  1.0000 0.0856684814
C   C52       1.0  0.12690  0.87190  0.20220  1.0000 -0.1502203303
C   C53       1.0  0.71700  0.58130  0.85690  1.0000 -0.1579762463
C   C54       1.0  0.80600  0.66690  0.21290  1.0000 -0.1579762463
C   C55       1.0  0.38700  0.62210  0.26350  1.0000 -0.0915729762
C   C56       1.0  0.47110  0.55980  0.70860  1.0000 -0.1108164587
C   C57       1.0  0.75840  0.71870  0.23760  1.0000 0.0323091117
C   C58       1.0  0.78740  0.42560  0.34590  1.0000 -0.1650017281
C   C59       1.0  0.34860  0.85240  0.16600  1.0000 -0.1502203303
C   C60       1.0  0.75470  0.87090  0.16350  1.0000 -0.1579762463
C   C61       1.0  0.30630  0.68740  0.31270  1.0000 -0.141533719
C   C62       1.0  0.68500  0.55600  0.89380  1.0000 -0.0995576165
C   C63       1.0  0.06210  0.92410  0.21270  1.0000 -0.0995576165
C   C64       1.0  0.60780  0.21500  0.23240  1.0000 0.0373292757
C   C65       1.0  0.79710  0.25700  0.35470  1.0000 -0.1579762463
C   C66       1.0  0.23440  0.66830  0.11680  1.0000 -0.0995576165
C   C67       1.0  0.82170  0.79300  0.42200  1.0000 -0.031545056
C   C68       1.0  0.63820  0.29440  0.10600  1.0000 -0.0995576165
C   C69       1.0  0.32480  0.76040  0.10420  1.0000 -0.031545056
C   C70       1.0  0.63450  0.79760  0.06190  1.0000 0.5906240712
C   C71       1.0  0.70100  0.69630  0.36560  1.0000 -0.1502203303
C   C72       1.0  0.77740  0.71900  0.27810  1.0000 0.0373292757
C   C73       1.0  0.87550  0.66650  0.62780  1.0000 -0.0915729762
C   C74       1.0  0.90200  0.76260  0.61080  1.0000 -0.031545056
C   C75       1.0  0.74120  0.87910  0.12560  1.0000 -0.0995576165
C   C76       1.0  0.23760  0.91270  0.35620  1.0000 -0.1579762463
C   C77       1.0  0.00550  0.82570  0.74880  1.0000 -0.141533719
C   C78       1.0  0.63650  0.89150  0.31180  1.0000 -0.1502203303
C   C79       1.0  0.62220  0.19230  0.08800  1.0000 -0.0475829807
C   C80       1.0  0.88750  0.88430  0.40070  1.0000 -0.1160262008
C   C81       1.0  0.65550  0.72260  0.86150  1.0000 -0.1502203303
C   C82       1.0  0.76310  0.78220  0.34400  1.0000 0.0796237695
C   C83       1.0  0.58030  0.94530  0.29680  1.0000 -0.0915729762
C   C84       1.0  0.10690  0.72170  0.35780  1.0000 -0.1502203303
C   C85       1.0  0.36300  0.76120  0.06460  1.0000 0.5969733914
C   C86       1.0  0.60000  0.89020  0.23340  1.0000 -0.1502203303
C   C87       1.0  0.87100  0.61650  0.22810  1.0000 -0.0995576165
C   C88       1.0  0.63730  0.11720  0.11020  1.0000 -0.0915729762
C   C89       1.0  0.39910  0.11750  0.24010  1.0000 -0.0995576165
C   C90       1.0  0.84390  0.66600  0.29200  1.0000 -0.1502203303
C   C91       1.0  0.58190  0.69630  0.11850  1.0000 -0.0814710861
C   C92       1.0  0.09070  0.86750  0.77860  1.0000 -0.0995576165
C   C93       1.0  0.42470  0.13550  0.28030  1.0000 -0.0995576165
C   C94       1.0  0.22370  0.93120  0.39380  1.0000 -0.0995576165
C   C95       1.0  0.65220  0.78870  0.10290  1.0000 -0.0394853122
C   C96       1.0  0.59400  0.68890  0.15850  1.0000 -0.1579762463
C   C97       1.0  0.61960  0.69740  0.89750  1.0000 -0.0995576165
C   C98       1.0  0.85690  0.83310  0.66840  1.0000 -0.1579762463
C   C99       1.0  0.09580  0.74020  0.39520  1.0000 -0.0915729762
C   C100      1.0  0.38070  0.85460  0.12870  1.0000 -0.0995576165
C   C101      1.0  0.85660  0.87570  0.36240  1.0000 -0.1502203303
C   C102      1.0  0.86610  0.80020  0.46270  1.0000 0.5969733914
C   C103      1.0  0.89120  0.84480  0.63210  1.0000 -0.0995576165
C   C104      1.0  0.94370  0.79700  0.82360  1.0000 -0.141533719
C   C105      1.0  0.82810  0.29160  0.39320  1.0000 -0.0915729762
C   C106      1.0  0.81980  0.45830  0.38420  1.0000 -0.0995576165
C   C107      1.0  0.89350  0.43730  0.44880  1.0000 0.5969733914
C   C108      1.0  0.84500  0.39250  0.40710  1.0000 -0.0204437585
C   C109      1.0  0.14110  0.87030  0.45470  1.0000 0.5906240712
C   C110      1.0  0.73090  0.70180  0.40380  1.0000 -0.0915729762
C   C111      1.0  0.15400  0.84360  0.41440  1.0000 -0.031545056
C   C112      1.0  0.94500  0.78110  0.57180  1.0000 0.5849184314
C   C113      1.0  0.84760  0.16310  0.73160  1.0000 0.0323091117
C   C114      1.0  0.33950  0.16730  0.75320  1.0000 0.0323091117
C   C115      1.0  0.32440  0.76140  0.83320  1.0000 0.0856684814
C   C116      1.0  0.29790  0.73930  0.79090  1.0000 -0.0475829807
C   C117      1.0  0.26200  0.22330  0.69740  1.0000 -0.0394853122
C   C118      1.0  0.73690  0.23650  0.82150  1.0000 0.0796237695
C   C119      1.0  0.76630  0.23300  0.78140  1.0000 -0.0394853122
C   C120      1.0  0.30300  0.22660  0.77750  1.0000 -0.031545056
C   C121      1.0  0.72490  0.28100  0.75380  1.0000 0.0373292757
C   C122      1.0  0.95210  0.55530  0.74310  1.0000 -0.0995576165
C   C123      1.0  0.33640  0.86020  0.85110  1.0000 -0.1650017281
C   C124      1.0  0.16980  0.26470  0.31450  1.0000 0.0796237695
C   C125      1.0  0.04150  0.59830  0.71910  1.0000 -0.1579762463
C   C126      1.0  0.32030  0.16700  0.71300  1.0000 0.0323091117
C   C127      1.0  0.16020  0.34810  0.33640  1.0000 -0.1502203303
C   C128      1.0  0.79740  0.33100  0.84590  1.0000 -0.1579762463
C   C129      1.0  0.44060  0.05760  0.74250  1.0000 -0.0995576165
C   C130      1.0  0.63030  0.36350  0.69770  1.0000 -0.0995576165
C   C131      1.0  0.95750  0.06420  0.74880  1.0000 -0.0995576165
C   C132      1.0  0.82810  0.17490  0.76970  1.0000 0.0323091117
C   C133      1.0  0.33420  0.68420  0.85520  1.0000 -0.1579762463
C   C134      1.0  0.11400  0.23270  0.24470  1.0000 0.0373292757
C   C135      1.0  0.18060  0.67510  0.77510  1.0000 0.0323091117
C   C136      1.0  0.32180  0.33990  0.26830  1.0000 0.0323091117
C   C137      1.0  0.55590  0.45280  0.25270  1.0000 -0.0915729762
C   C138      1.0  0.20180  0.27930  0.27550  1.0000 -0.0475829807
C   C139      1.0  0.14800  0.24980  0.20670  1.0000 0.0323091117
C   C140      1.0  0.37010  0.76590  0.72660  1.0000 0.0373292757
C   C141      1.0  0.80400  0.20950  0.70370  1.0000 -0.0394853122
C   C142      1.0  0.25350  0.70380  0.71140  1.0000 -0.0394853122
C   C143      1.0  0.94250  0.14780  0.18310  1.0000 -0.1108164587
C   C144      1.0  0.51140  0.84530  0.78250  1.0000 -0.1502203303
C   C145      1.0  0.41290  0.42350  0.04860  1.0000 0.5969733914
C   C146      1.0  0.22500  0.67490  0.66910  1.0000 0.0796237695
C   C147      1.0  0.41360  0.38440  0.29780  1.0000 -0.141533719
C   C148      1.0  0.91600  0.10780  0.72130  1.0000 -0.1502203303
C   C149      1.0  0.74520  0.26800  0.71440  1.0000 0.0323091117
C   C150      1.0  0.65920  0.33620  0.76300  1.0000 -0.141533719
C   C151      1.0  0.46610  0.80900  0.70390  1.0000 -0.141533719
C   C152      1.0  0.82210  0.19290  0.66260  1.0000 0.0796237695
C   C153      1.0  0.15970  0.65880  0.73460  1.0000 0.0373292757
C   C154      1.0  0.36420  0.38890  0.08690  1.0000 -0.0204437585
C   C155      1.0  0.08620  0.63130  0.79840  1.0000 -0.141533719
C   C156      1.0  0.35330  0.35200  0.22990  1.0000 0.0373292757
C   C157      1.0  0.26600  0.31110  0.19910  1.0000 -0.0394853122
C   C158      1.0  0.97330  0.57110  0.78230  1.0000 -0.0995576165
C   C159      1.0  0.41680  0.83520  0.95270  1.0000 0.5969733914
C   C160      1.0  0.29770  0.33490  0.15950  1.0000 0.0796237695
C   C161      1.0  0.11040  0.38110  0.73250  1.0000 -0.0995576165
C   C162      1.0  0.47360  0.41040  0.22280  1.0000 -0.1502203303
C   C163      1.0  0.31900  0.22210  0.81950  1.0000 0.0856684814
C   C164      1.0  0.87310  0.12810  0.79780  1.0000 -0.1502203303
C   C165      1.0  0.28300  0.41870  0.14310  1.0000 -0.1579762463
C   C166      1.0  0.19400  0.33310  0.78710  1.0000 -0.1579762463
C   C167      1.0  0.61300  0.37790  0.73650  1.0000 -0.0915729762
C   C168      1.0  0.52890  0.44020  0.29140  1.0000 -0.1108164587
C   C169      1.0  0.24160  0.28130  0.76240  1.0000 0.0323091117
C   C170      1.0  0.21260  0.57440  0.65410  1.0000 -0.1650017281
C   C171      1.0  0.65140  0.14760  0.83400  1.0000 -0.1502203303
C   C172      1.0  0.24530  0.12910  0.83650  1.0000 -0.1579762463
C   C173      1.0  0.69370  0.31260  0.68730  1.0000 -0.141533719
C   C174      1.0  0.31500  0.44400  0.10620  1.0000 -0.0995576165
C   C175      1.0  0.93790  0.07590  0.78730  1.0000 -0.0995576165
C   C176      1.0  0.39220  0.78500  0.76760  1.0000 0.0373292757
C   C177      1.0  0.20290  0.74300  0.64530  1.0000 -0.1579762463
C   C178      1.0  0.76560  0.33170  0.88320  1.0000 -0.0995576165
C   C179      1.0  0.17830  0.20700  0.57800  1.0000 -0.031545056
C   C180      1.0  0.36180  0.70560  0.89400  1.0000 -0.0995576165
C   C181      1.0  0.67520  0.23960  0.89580  1.0000 -0.031545056
C   C182      1.0  0.36550  0.20240  0.93810  1.0000 0.5906240712
C   C183      1.0  0.29900  0.30370  0.63440  1.0000 -0.1502203303
C   C184      1.0  0.22260  0.28100  0.72190  1.0000 0.0373292757
C   C185      1.0  0.12450  0.33350  0.37220  1.0000 -0.0915729762
C   C186      1.0  0.09800  0.23740  0.38920  1.0000 -0.031545056
C   C187      1.0  0.25880  0.12090  0.87440  1.0000 -0.0995576165
C   C188      1.0  0.76240  0.08730  0.64380  1.0000 -0.1579762463
C   C189      1.0  0.99450  0.17430  0.25120  1.0000 -0.141533719
C   C190      1.0  0.36350  0.10850  0.68820  1.0000 -0.1502203303
C   C191      1.0  0.37780  0.80770  0.91200  1.0000 -0.0475829807
C   C192      1.0  0.11250  0.11570  0.59930  1.0000 -0.1160262008
C   C193      1.0  0.34450  0.27740  0.13850  1.0000 -0.1502203303
C   C194      1.0  0.23690  0.21780  0.65600  1.0000 0.0796237695
C   C195      1.0  0.41970  0.05470  0.70320  1.0000 -0.0915729762
C   C196      1.0  0.89310  0.27830  0.64220  1.0000 -0.1502203303
C   C197      1.0  0.63700  0.23880  0.93540  1.0000 0.5969733914
C   C198      1.0  0.40000  0.10980  0.76660  1.0000 -0.1502203303
C   C199      1.0  0.12900  0.38350  0.77190  1.0000 -0.0995576165
C   C200      1.0  0.36270  0.88280  0.88980  1.0000 -0.0915729762
C   C201      1.0  0.60090  0.88250  0.75990  1.0000 -0.0995576165
C   C202      1.0  0.15610  0.33400  0.70800  1.0000 -0.1502203303
C   C203      1.0  0.41810  0.30370  0.88150  1.0000 -0.0814710861
C   C204      1.0  0.90930  0.13250  0.22140  1.0000 -0.0995576165
C   C205      1.0  0.57530  0.86450  0.71970  1.0000 -0.0995576165
C   C206      1.0  0.77630  0.06880  0.60620  1.0000 -0.0995576165
C   C207      1.0  0.34780  0.21130  0.89710  1.0000 -0.0394853122
C   C208      1.0  0.40600  0.31110  0.84150  1.0000 -0.1579762463
C   C209      1.0  0.38040  0.30260  0.10250  1.0000 -0.0995576165
C   C210      1.0  0.14310  0.16690  0.33160  1.0000 -0.1579762463
C   C211      1.0  0.90420  0.25980  0.60480  1.0000 -0.0915729762
C   C212      1.0  0.61930  0.14540  0.87130  1.0000 -0.0995576165
C   C213      1.0  0.14340  0.12430  0.63760  1.0000 -0.1502203303
C   C214      1.0  0.13390  0.19980  0.53730  1.0000 0.5969733914
C   C215      1.0  0.10880  0.15520  0.36790  1.0000 -0.0995576165
C   C216      1.0  0.05630  0.20300  0.17640  1.0000 -0.141533719
C   C217      1.0  0.17190  0.70840  0.60680  1.0000 -0.0915729762
C   C218      1.0  0.18020  0.54170  0.61580  1.0000 -0.0995576165
C   C219      1.0  0.10650  0.56270  0.55120  1.0000 0.5969733914
C   C220      1.0  0.15500  0.60750  0.59290  1.0000 -0.0204437585
C   C221      1.0  0.85890  0.12970  0.54530  1.0000 0.5849184314
C   C222      1.0  0.26910  0.29820  0.59620  1.0000 -0.0915729762
C   C223      1.0  0.84600  0.15640  0.58560  1.0000 -0.031545056
C   C224      1.0  0.05500  0.21890  0.42820  1.0000 0.5849184314
O   O1        1.0  0.84380  0.71430  0.47770  1.0000 -0.5080640991
O   O2        1.0  0.57460  0.71180  0.04100  1.0000 -0.5510017355
O   O3        1.0  0.57590  0.07680  0.03125  1.0000 -0.57246961
O   O4        1.0  0.63620  0.53030  0.97049  1.0000 -0.5609103024
O   O5        1.0  0.68070  0.89360  0.04977  1.0000 -0.5609103024
O   O6        1.0  0.43400  0.85250  0.05470  1.0000 -0.5609103024
O   O7        1.0  0.32500  0.66950  0.04476  1.0000 -0.57246961
O   O8        1.0  0.54730  0.22400  0.02981  1.0000 -0.579917866
O   O9        1.0  0.92220  0.89900  0.47974  1.0000 -0.6009512027
O   O10       1.0  0.50590  0.59250  0.96050  1.0000 -0.5288256486
O   O11       1.0  0.89180  0.36650  0.47090  1.0000 -0.57246961
O   O12       1.0  0.17280  0.96860  0.46670  1.0000 -0.5375357648
O   O13       1.0  0.91830  0.53580  0.45600  1.0000 -0.579917866
O   O14       1.0  0.09110  0.79250  0.47550  1.0000 -0.579917866
O   O15       1.0  0.98300  0.86940  0.56080  1.0000 -0.4991272767
O   O16       1.0  0.94320  0.69550  0.55330  1.0000 -0.5867856224
O   O17       1.0  0.15620  0.28570  0.52230  1.0000 -0.5080640991
O   O18       1.0  0.42540  0.28820  0.95900  1.0000 -0.5510017355
O   O19       1.0  0.42410  0.92320  0.96875  1.0000 -0.57246961
O   O20       1.0  0.36380  0.46970  0.02951  1.0000 -0.5609103024
O   O21       1.0  0.31930  0.10640  0.95023  1.0000 -0.5609103024
O   O22       1.0  0.56600  0.14750  0.94530  1.0000 -0.5609103024
O   O23       1.0  0.67500  0.33050  0.95524  1.0000 -0.57246961
O   O24       1.0  0.45270  0.77600  0.97019  1.0000 -0.579917866
O   O25       1.0  0.07780  0.10100  0.52026  1.0000 -0.6009512027
O   O26       1.0  0.49410  0.40750  0.03950  1.0000 -0.5288256486
O   O27       1.0  0.10820  0.63350  0.52910  1.0000 -0.57246961
O   O28       1.0  0.82720  0.03140  0.53330  1.0000 -0.5375357648
O   O29       1.0  0.08170  0.46420  0.54400  1.0000 -0.579917866
O   O30       1.0  0.90890  0.20750  0.52450  1.0000 -0.579917866
O   O31       1.0  0.01700  0.13060  0.43920  1.0000 -0.4991272767
O   O32       1.0  0.05680  0.30450  0.44670  1.0000 -0.5867856224
