# DDEC6 charges by PACMAN v1.1 (https://github.com/mtap-research/PACMAN-charge/)
data_2022[Eu][ant]3[ASR]1
_chemical_formula_sum              "Eu2 H28 C44 N26 O14"
_cell_length_a       12.5702
_cell_length_b       12.5702
_cell_length_c       10.8327
_cell_angle_alpha    64.4762
_cell_angle_beta     115.524
_cell_angle_gamma    114.029

_symmetry_space_group_name_H-M    "P 1"
_symmetry_Int_Tables_number       1

loop_
  _symmetry_equiv_pos_as_xyz
  'x, y, z'

loop_
  _atom_site_type_symbol
  _atom_site_label
  _atom_site_symmetry_multiplicity
  _atom_site_fract_x
  _atom_site_fract_y
  _atom_site_fract_z
  _atom_site_occupancy
  _atom_site_charge
Eu  Eu1       1.0  0.96075  0.96075  0.75000  1.0000 1.997912559
Eu  Eu2       1.0  0.03925  0.03925  0.25000  1.0000 1.997912559
H   H1        1.0  0.72440  0.91660  0.40320  1.0000 0.1196867005
H   H2        1.0  0.35680  0.91700  0.34010  1.0000 0.1415237741
H   H3        1.0  0.65150  0.82070  0.75450  1.0000 0.1109647026
H   H4        1.0  0.55400  0.80940  0.22700  1.0000 0.1415237741
H   H5        1.0  0.23540  0.88500  0.94410  1.0000 0.1337473721
H   H6        1.0  0.31880  0.92480  0.77570  1.0000 0.1196867005
H   H7        1.0  0.49710  0.69690  0.84160  1.0000 0.1109647026
H   H8        1.0  0.91660  0.72440  0.09680  1.0000 0.1196867005
H   H9        1.0  0.91700  0.35680  0.15990  1.0000 0.1415237741
H   H10       1.0  0.82070  0.65150  0.74550  1.0000 0.1109647026
H   H11       1.0  0.80940  0.55400  0.27300  1.0000 0.1415237741
H   H12       1.0  0.88500  0.23540  0.55590  1.0000 0.1337473721
H   H13       1.0  0.92480  0.31880  0.72430  1.0000 0.1196867005
H   H14       1.0  0.69690  0.49710  0.65840  1.0000 0.1109647026
H   H15       1.0  0.27560  0.08340  0.59680  1.0000 0.1196867005
H   H16       1.0  0.64320  0.08300  0.65990  1.0000 0.1415237741
H   H17       1.0  0.34850  0.17930  0.24550  1.0000 0.1109647026
H   H18       1.0  0.44600  0.19060  0.77300  1.0000 0.1415237741
H   H19       1.0  0.76460  0.11500  0.05590  1.0000 0.1337473721
H   H20       1.0  0.68120  0.07520  0.22430  1.0000 0.1196867005
H   H21       1.0  0.50290  0.30310  0.15840  1.0000 0.1109647026
H   H22       1.0  0.08340  0.27560  0.90320  1.0000 0.1196867005
H   H23       1.0  0.08300  0.64320  0.84010  1.0000 0.1415237741
H   H24       1.0  0.17930  0.34850  0.25450  1.0000 0.1109647026
H   H25       1.0  0.19060  0.44600  0.72700  1.0000 0.1415237741
H   H26       1.0  0.11500  0.76460  0.44410  1.0000 0.1337473721
H   H27       1.0  0.07520  0.68120  0.27570  1.0000 0.1196867005
H   H28       1.0  0.30310  0.50290  0.34160  1.0000 0.1109647026
C   C1        1.0  0.27890  0.90730  0.13640  1.0000 0.0008779336
C   C2        1.0  0.68360  0.89000  0.46970  1.0000 0.1036747724
C   C3        1.0  0.36660  0.89880  0.27170  1.0000 -0.2032019316
C   C4        1.0  0.64090  0.83790  0.65800  1.0000 0.1415237741
C   C5        1.0  0.46800  0.86340  0.30250  1.0000 0.146408546
C   C6        1.0  0.48590  0.83470  0.20390  1.0000 -0.2695585459
C   C7        1.0  0.39740  0.84520  0.06840  1.0000 0.1557206728
C   C8        1.0  0.29400  0.88000  0.03420  1.0000 -0.2252563282
C   C9        1.0  0.16470  0.94190  0.10060  1.0000 0.6426428289
C   C10       1.0  0.36440  0.86820  0.82170  1.0000 0.0707607561
C   C11       1.0  0.46370  0.74030  0.85980  1.0000 0.1109647026
C   C12       1.0  0.90730  0.27890  0.36360  1.0000 0.0008779336
C   C13       1.0  0.89000  0.68360  0.03030  1.0000 0.1036747724
C   C14       1.0  0.89880  0.36660  0.22830  1.0000 -0.2032019316
C   C15       1.0  0.83790  0.64090  0.84200  1.0000 0.1415237741
C   C16       1.0  0.86340  0.46800  0.19750  1.0000 0.146408546
C   C17       1.0  0.83470  0.48590  0.29610  1.0000 -0.2695585459
C   C18       1.0  0.84520  0.39740  0.43160  1.0000 0.1557206728
C   C19       1.0  0.88000  0.29400  0.46580  1.0000 -0.2252563282
C   C20       1.0  0.94190  0.16470  0.39940  1.0000 0.6426428289
C   C21       1.0  0.86820  0.36440  0.67830  1.0000 0.0707607561
C   C22       1.0  0.74030  0.46370  0.64020  1.0000 0.1196867005
C   C23       1.0  0.72110  0.09270  0.86360  1.0000 0.0008779336
C   C24       1.0  0.31640  0.11000  0.53030  1.0000 0.1036747724
C   C25       1.0  0.63340  0.10120  0.72830  1.0000 -0.2032019316
C   C26       1.0  0.35910  0.16210  0.34200  1.0000 0.1415237741
C   C27       1.0  0.53200  0.13660  0.69750  1.0000 0.146408546
C   C28       1.0  0.51410  0.16530  0.79610  1.0000 -0.2695585459
C   C29       1.0  0.60260  0.15480  0.93160  1.0000 0.1557206728
C   C30       1.0  0.70600  0.12000  0.96580  1.0000 -0.2252563282
C   C31       1.0  0.83530  0.05810  0.89940  1.0000 0.6426428289
C   C32       1.0  0.63560  0.13180  0.17830  1.0000 0.0707607561
C   C33       1.0  0.53630  0.25970  0.14020  1.0000 0.1196867005
C   C34       1.0  0.09270  0.72110  0.63640  1.0000 0.0008779336
C   C35       1.0  0.11000  0.31640  0.96970  1.0000 0.1036747724
C   C36       1.0  0.10120  0.63340  0.77170  1.0000 -0.2032019316
C   C37       1.0  0.16210  0.35910  0.15800  1.0000 0.1415237741
C   C38       1.0  0.13660  0.53200  0.80250  1.0000 0.146408546
C   C39       1.0  0.16530  0.51410  0.70390  1.0000 -0.2695585459
C   C40       1.0  0.15480  0.60260  0.56840  1.0000 0.1557206728
C   C41       1.0  0.12000  0.70600  0.53420  1.0000 -0.2252563282
C   C42       1.0  0.05810  0.83530  0.60060  1.0000 0.6426428289
C   C43       1.0  0.13180  0.63560  0.32170  1.0000 0.0707607561
C   C44       1.0  0.25970  0.53630  0.35980  1.0000 0.1109647026
N   N1        1.0  0.56000  0.85780  0.43840  1.0000 0.1109647026
N   N2        1.0  0.41220  0.81640  0.96480  1.0000 0.1415237741
N   N3        1.0  0.46980  0.73780  0.98570  1.0000 -0.2113046466
N   N4        1.0  0.53120  0.82500  0.56000  1.0000 -0.254029487
N   N5        1.0  0.73730  0.87810  0.60720  1.0000 -0.4342247441
N   N6        1.0  0.39790  0.81970  0.76390  1.0000 -0.2200730598
N   N7        1.0  0.85780  0.56000  0.06160  1.0000 0.1109647026
N   N8        1.0  0.81640  0.41220  0.53520  1.0000 0.1415237741
N   N9        1.0  0.73780  0.46980  0.51430  1.0000 -0.2113046466
N   N10       1.0  0.82500  0.53120  0.94000  1.0000 -0.254029487
N   N11       1.0  0.87810  0.73730  0.89280  1.0000 -0.4342247441
N   N12       1.0  0.81970  0.39790  0.73610  1.0000 -0.2200730598
N   N13       1.0  0.44000  0.14220  0.56160  1.0000 0.1109647026
N   N14       1.0  0.58780  0.18360  0.03520  1.0000 0.1415237741
N   N15       1.0  0.53020  0.26220  0.01430  1.0000 -0.2113046466
N   N16       1.0  0.46880  0.17500  0.44000  1.0000 -0.254029487
N   N17       1.0  0.26270  0.12190  0.39280  1.0000 -0.4342247441
N   N18       1.0  0.60210  0.18030  0.23610  1.0000 -0.2200730598
N   N19       1.0  0.14220  0.44000  0.93840  1.0000 0.1109647026
N   N20       1.0  0.18360  0.58780  0.46480  1.0000 0.1415237741
N   N21       1.0  0.26220  0.53020  0.48570  1.0000 -0.2113046466
N   N22       1.0  0.17500  0.46880  0.06000  1.0000 -0.254029487
N   N23       1.0  0.12190  0.26270  0.10720  1.0000 -0.4342247441
N   N24       1.0  0.18030  0.60210  0.26390  1.0000 -0.2200730598
N   N25       1.0  0.17880  0.17880  0.75000  1.0000 0.7059882016
N   N26       1.0  0.82120  0.82120  0.25000  1.0000 0.7059882016
O   O1        1.0  0.08230  0.93110  0.98900  1.0000 -0.6519946276
O   O2        1.0  0.15990  0.97530  0.19220  1.0000 -0.6770029485
O   O3        1.0  0.07990  0.17430  0.76330  1.0000 -0.5399568348
O   O4        1.0  0.93110  0.08230  0.51100  1.0000 -0.6519946276
O   O5        1.0  0.97530  0.15990  0.30780  1.0000 -0.6770029485
O   O6        1.0  0.17430  0.07990  0.73670  1.0000 -0.5399568348
O   O7        1.0  0.91770  0.06890  0.01100  1.0000 -0.6519946276
O   O8        1.0  0.84010  0.02470  0.80780  1.0000 -0.6770029485
O   O9        1.0  0.92010  0.82570  0.23670  1.0000 -0.5399568348
O   O10       1.0  0.06890  0.91770  0.48900  1.0000 -0.6519946276
O   O11       1.0  0.02470  0.84010  0.69220  1.0000 -0.6770029485
O   O12       1.0  0.82570  0.92010  0.26330  1.0000 -0.5399568348
O   O13       1.0  0.26480  0.26480  0.75000  1.0000 -0.3457368284
O   O14       1.0  0.73520  0.73520  0.25000  1.0000 -0.3457368284
