# DDEC6 charges by PACMAN v1.1 (https://github.com/mtap-research/PACMAN-charge/)
data_2022[Cd][cds]3[ASR]1
_chemical_formula_sum              "Cd2 H56 C80 N16 Cl4"
_cell_length_a       7.7611
_cell_length_b       18.6821
_cell_length_c       19.1146
_cell_angle_alpha    90
_cell_angle_beta     93.5
_cell_angle_gamma    90

_symmetry_space_group_name_H-M    "P 1"
_symmetry_Int_Tables_number       1

loop_
  _symmetry_equiv_pos_as_xyz
  'x, y, z'

loop_
  _atom_site_type_symbol
  _atom_site_label
  _atom_site_symmetry_multiplicity
  _atom_site_fract_x
  _atom_site_fract_y
  _atom_site_fract_z
  _atom_site_occupancy
  _atom_site_charge
Cd  Cd1       1.0  0.50000  0.50000  0.50000  1.0000 0.6825140207
Cd  Cd2       1.0  0.50000  0.00000  0.00000  1.0000 0.6825140207
H   H1        1.0  0.13630  0.03346  0.90689  1.0000 0.1058867364
H   H2        1.0  0.86370  0.53346  0.59311  1.0000 0.1058867364
H   H3        1.0  0.86370  0.96654  0.09311  1.0000 0.1058867364
H   H4        1.0  0.13630  0.46654  0.40689  1.0000 0.1058867364
H   H5        1.0  0.59358  0.00933  0.83844  1.0000 0.1023491961
H   H6        1.0  0.40642  0.50933  0.66156  1.0000 0.1023491961
H   H7        1.0  0.40642  0.99067  0.16156  1.0000 0.1023491961
H   H8        1.0  0.59358  0.49067  0.33844  1.0000 0.1023491961
H   H9        1.0  0.45266  0.78189  0.49499  1.0000 0.1316145137
H   H10       1.0  0.54734  0.28189  0.00501  1.0000 0.1316145137
H   H11       1.0  0.54734  0.21811  0.50501  1.0000 0.1316145137
H   H12       1.0  0.45266  0.71811  0.99499  1.0000 0.1316145137
H   H13       1.0  0.01166  0.03639  0.79433  1.0000 0.138239234
H   H14       1.0  0.98834  0.53639  0.70567  1.0000 0.138239234
H   H15       1.0  0.98834  0.96361  0.20567  1.0000 0.138239234
H   H16       1.0  0.01166  0.46361  0.29433  1.0000 0.138239234
H   H17       1.0  0.11994  0.58135  0.49937  1.0000 0.1023491961
H   H18       1.0  0.88006  0.08135  0.00063  1.0000 0.1023491961
H   H19       1.0  0.88006  0.41865  0.50063  1.0000 0.1023491961
H   H20       1.0  0.11994  0.91865  0.99937  1.0000 0.1023491961
H   H21       1.0  0.98785  0.69171  0.49553  1.0000 0.138239234
H   H22       1.0  0.01215  0.19171  0.00447  1.0000 0.138239234
H   H23       1.0  0.01215  0.30829  0.50447  1.0000 0.138239234
H   H24       1.0  0.98785  0.80829  0.99553  1.0000 0.138239234
H   H25       1.0  0.02482  0.76115  0.36728  1.0000 0.138239234
H   H26       1.0  0.97518  0.26115  0.13272  1.0000 0.138239234
H   H27       1.0  0.97518  0.23885  0.63272  1.0000 0.138239234
H   H28       1.0  0.02482  0.73885  0.86728  1.0000 0.138239234
H   H29       1.0  0.88223  0.84200  0.28181  1.0000 0.1316145137
H   H30       1.0  0.11777  0.34200  0.21819  1.0000 0.1316145137
H   H31       1.0  0.11777  0.15800  0.71819  1.0000 0.1316145137
H   H32       1.0  0.88223  0.65800  0.78181  1.0000 0.1316145137
H   H33       1.0  0.27695  0.78525  0.63125  1.0000 0.1316145137
H   H34       1.0  0.72305  0.28525  0.86875  1.0000 0.1316145137
H   H35       1.0  0.72305  0.21475  0.36875  1.0000 0.1316145137
H   H36       1.0  0.27695  0.71475  0.13125  1.0000 0.1316145137
H   H37       1.0  0.57188  0.66942  0.49821  1.0000 0.1023491961
H   H38       1.0  0.42812  0.16942  0.00179  1.0000 0.1023491961
H   H39       1.0  0.42812  0.33058  0.50179  1.0000 0.1023491961
H   H40       1.0  0.57188  0.83058  0.99821  1.0000 0.1023491961
H   H41       1.0  0.28741  0.88068  0.71913  1.0000 0.1316145137
H   H42       1.0  0.71259  0.38068  0.78087  1.0000 0.1316145137
H   H43       1.0  0.71259  0.11932  0.28087  1.0000 0.1316145137
H   H44       1.0  0.28741  0.61932  0.21913  1.0000 0.1316145137
H   H45       1.0  0.48216  0.00976  0.72398  1.0000 0.138239234
H   H46       1.0  0.51784  0.50976  0.77602  1.0000 0.1316145137
H   H47       1.0  0.51784  0.99024  0.27602  1.0000 0.138239234
H   H48       1.0  0.48216  0.49024  0.22398  1.0000 0.1316145137
H   H49       1.0  0.99391  0.95163  0.45575  1.0000 0.2385693914
H   H50       1.0  0.00609  0.45163  0.04425  1.0000 0.2385693914
H   H51       1.0  0.00609  0.04837  0.54425  1.0000 0.2385693914
H   H52       1.0  0.99391  0.54837  0.95575  1.0000 0.2385693914
H   H53       1.0  0.06759  0.96174  0.54094  1.0000 0.2321343398
H   H54       1.0  0.93241  0.46174  0.95906  1.0000 0.2321343398
H   H55       1.0  0.93241  0.03826  0.45906  1.0000 0.2321343398
H   H56       1.0  0.06759  0.53826  0.04094  1.0000 0.2321343398
C   C1        1.0  0.20260  0.74931  0.49742  1.0000 0.1237519054
C   C2        1.0  0.79740  0.24931  0.00258  1.0000 0.1237519054
C   C3        1.0  0.79740  0.25069  0.50258  1.0000 0.1237519054
C   C4        1.0  0.20260  0.75069  0.99742  1.0000 0.1237519054
C   C5        1.0  0.20660  0.02840  0.86949  1.0000 0.091294738
C   C6        1.0  0.79340  0.52840  0.63051  1.0000 0.091294738
C   C7        1.0  0.79340  0.97160  0.13051  1.0000 0.091294738
C   C8        1.0  0.20660  0.47160  0.36949  1.0000 0.091294738
C   C9        1.0  0.47500  0.01400  0.82950  1.0000 0.091294738
C   C10       1.0  0.52500  0.51400  0.67050  1.0000 0.091294738
C   C11       1.0  0.52500  0.98600  0.17050  1.0000 0.091294738
C   C12       1.0  0.47500  0.48600  0.32950  1.0000 0.091294738
C   C13       1.0  0.38200  0.74180  0.49640  1.0000 -0.206268719
C   C14       1.0  0.61800  0.24180  0.00360  1.0000 -0.206268719
C   C15       1.0  0.61800  0.25820  0.50360  1.0000 -0.206268719
C   C16       1.0  0.38200  0.75820  0.99640  1.0000 -0.206268719
C   C17       1.0  0.13000  0.02940  0.80175  1.0000 -0.2006933396
C   C18       1.0  0.87000  0.52940  0.69825  1.0000 -0.2006933396
C   C19       1.0  0.87000  0.97060  0.19825  1.0000 -0.2006933396
C   C20       1.0  0.13000  0.47060  0.30175  1.0000 -0.2006933396
C   C21       1.0  0.23150  0.02000  0.74575  1.0000 0.1237519054
C   C22       1.0  0.76850  0.52000  0.75425  1.0000 0.1316145137
C   C23       1.0  0.76850  0.98000  0.25425  1.0000 0.1316145137
C   C24       1.0  0.23150  0.48000  0.24575  1.0000 0.1316145137
C   C25       1.0  0.04400  0.84908  0.43702  1.0000 0.1559625952
C   C26       1.0  0.95600  0.34908  0.06298  1.0000 0.1559625952
C   C27       1.0  0.95600  0.15092  0.56298  1.0000 0.1559625952
C   C28       1.0  0.04400  0.65092  0.93702  1.0000 0.1559625952
C   C29       1.0  0.91250  0.92354  0.35874  1.0000 0.1492534554
C   C30       1.0  0.08750  0.42354  0.14126  1.0000 0.1492534554
C   C31       1.0  0.08750  0.07646  0.64126  1.0000 0.1492534554
C   C32       1.0  0.91250  0.57646  0.85874  1.0000 0.1492534554
C   C33       1.0  0.18840  0.62210  0.49820  1.0000 0.1023491961
C   C34       1.0  0.81160  0.12210  0.00180  1.0000 0.1023491961
C   C35       1.0  0.81160  0.37790  0.50180  1.0000 0.1023491961
C   C36       1.0  0.18840  0.87790  0.99820  1.0000 0.1023491961
C   C37       1.0  0.10760  0.68890  0.49680  1.0000 -0.1916085356
C   C38       1.0  0.89240  0.18890  0.00320  1.0000 -0.1916085356
C   C39       1.0  0.89240  0.31110  0.50320  1.0000 -0.1916085356
C   C40       1.0  0.10760  0.81110  0.99680  1.0000 -0.1916085356
C   C41       1.0  0.12760  0.82344  0.49870  1.0000 -0.1397579764
C   C42       1.0  0.87240  0.32344  0.00130  1.0000 -0.1397579764
C   C43       1.0  0.87240  0.17656  0.50130  1.0000 -0.1397579764
C   C44       1.0  0.12760  0.67656  0.99870  1.0000 -0.1397579764
C   C45       1.0  0.00180  0.80939  0.37429  1.0000 -0.1916085356
C   C46       1.0  0.99820  0.30939  0.12571  1.0000 -0.1916085356
C   C47       1.0  0.99820  0.19061  0.62571  1.0000 -0.1916085356
C   C48       1.0  0.00180  0.69061  0.87429  1.0000 -0.1916085356
C   C49       1.0  0.92290  0.85410  0.32705  1.0000 -0.1916085356
C   C50       1.0  0.07710  0.35410  0.17295  1.0000 -0.1916085356
C   C51       1.0  0.07710  0.14590  0.67295  1.0000 -0.1916085356
C   C52       1.0  0.92290  0.64590  0.82705  1.0000 -0.1916085356
C   C53       1.0  0.23770  0.83196  0.62481  1.0000 -0.1817301163
C   C54       1.0  0.76230  0.33196  0.87519  1.0000 -0.1817301163
C   C55       1.0  0.76230  0.16804  0.37519  1.0000 -0.1817301163
C   C56       1.0  0.23770  0.66804  0.12481  1.0000 -0.1817301163
C   C57       1.0  0.15850  0.01460  0.67173  1.0000 -0.1397579764
C   C58       1.0  0.84150  0.51460  0.82827  1.0000 -0.1397579764
C   C59       1.0  0.84150  0.98540  0.32827  1.0000 -0.1397579764
C   C60       1.0  0.15850  0.48540  0.17173  1.0000 -0.1397579764
C   C61       1.0  0.45250  0.67390  0.49760  1.0000 0.0812948285
C   C62       1.0  0.54750  0.17390  0.00240  1.0000 0.0812948285
C   C63       1.0  0.54750  0.32610  0.50240  1.0000 0.0812948285
C   C64       1.0  0.45250  0.82610  0.99760  1.0000 0.0812948285
C   C65       1.0  0.15770  0.86207  0.56103  1.0000 0.1492534554
C   C66       1.0  0.84230  0.36207  0.93897  1.0000 0.1492534554
C   C67       1.0  0.84230  0.13793  0.43897  1.0000 0.1492534554
C   C68       1.0  0.15770  0.63793  0.06103  1.0000 0.1492534554
C   C69       1.0  0.24420  0.88440  0.67282  1.0000 -0.1916085356
C   C70       1.0  0.75580  0.38440  0.82718  1.0000 -0.1916085356
C   C71       1.0  0.75580  0.11560  0.32718  1.0000 -0.1916085356
C   C72       1.0  0.24420  0.61560  0.17282  1.0000 -0.1916085356
C   C73       1.0  0.17100  0.94801  0.63894  1.0000 0.1492534554
C   C74       1.0  0.82900  0.44801  0.86106  1.0000 0.1492534554
C   C75       1.0  0.82900  0.05199  0.36106  1.0000 0.1492534554
C   C76       1.0  0.17100  0.55199  0.13894  1.0000 0.1492534554
C   C77       1.0  0.40850  0.01390  0.76040  1.0000 -0.2006933396
C   C78       1.0  0.59150  0.51390  0.73960  1.0000 -0.2006933396
C   C79       1.0  0.59150  0.98610  0.23960  1.0000 -0.2006933396
C   C80       1.0  0.40850  0.48610  0.26040  1.0000 -0.2006933396
N   N1        1.0  0.37560  0.02042  0.88324  1.0000 -0.2214603038
N   N2        1.0  0.62440  0.52042  0.61676  1.0000 -0.2214603038
N   N3        1.0  0.62440  0.97958  0.11676  1.0000 -0.2214603038
N   N4        1.0  0.37560  0.47958  0.38324  1.0000 -0.2214603038
N   N5        1.0  0.35730  0.61419  0.49798  1.0000 -0.2214603038
N   N6        1.0  0.64270  0.11419  0.00202  1.0000 -0.2214603038
N   N7        1.0  0.64270  0.38581  0.50202  1.0000 -0.2214603038
N   N8        1.0  0.35730  0.88581  0.99798  1.0000 -0.2214603038
N   N9        1.0  0.98570  0.91750  0.42554  1.0000 -0.3102280596
N   N10       1.0  0.01430  0.41750  0.07446  1.0000 -0.3102280596
N   N11       1.0  0.01430  0.08250  0.57446  1.0000 -0.3102280596
N   N12       1.0  0.98570  0.58250  0.92554  1.0000 -0.3102280596
N   N13       1.0  0.11690  0.93296  0.57105  1.0000 -0.3102280596
N   N14       1.0  0.88310  0.43296  0.92895  1.0000 -0.3102280596
N   N15       1.0  0.88310  0.06704  0.42895  1.0000 -0.3102280596
N   N16       1.0  0.11690  0.56704  0.07105  1.0000 -0.3102280596
Cl  Cl1       1.0  0.22962  0.44309  0.55033  1.0000 -0.6243176968
Cl  Cl2       1.0  0.77038  0.94309  0.94967  1.0000 -0.6243176968
Cl  Cl3       1.0  0.77038  0.55691  0.44967  1.0000 -0.6269674809
Cl  Cl4       1.0  0.22962  0.05691  0.05033  1.0000 -0.6269674809
