# DDEC6 charges by PACMAN v1.1 (https://github.com/mtap-research/PACMAN-charge/)
data_2022[Sm][sqc]3[ASR]1
_chemical_formula_sum              "Sm4 H16 C48 O28"
_cell_length_a       12.455
_cell_length_b       12.732
_cell_length_c       13.716
_cell_angle_alpha    84.67
_cell_angle_beta     108.28
_cell_angle_gamma    109.12

_symmetry_space_group_name_H-M    "P 1"
_symmetry_Int_Tables_number       1

loop_
  _symmetry_equiv_pos_as_xyz
  'x, y, z'

loop_
  _atom_site_type_symbol
  _atom_site_label
  _atom_site_symmetry_multiplicity
  _atom_site_fract_x
  _atom_site_fract_y
  _atom_site_fract_z
  _atom_site_occupancy
  _atom_site_charge
Sm  Sm1       1.0  0.98589  0.53441  0.79679  1.0000 2.1081672554
Sm  Sm2       1.0  0.81769  0.76185  0.81662  1.0000 2.0581121092
Sm  Sm3       1.0  0.01411  0.46559  0.20321  1.0000 2.1081672554
Sm  Sm4       1.0  0.18231  0.23815  0.18338  1.0000 2.0581121092
H   H1        1.0  0.89870  0.08080  0.04750  1.0000 0.1290293393
H   H2        1.0  0.58530  0.84340  0.02430  1.0000 0.1411898752
H   H3        1.0  0.68560  0.11290  0.20260  1.0000 0.1519020778
H   H4        1.0  0.30510  0.81770  0.05740  1.0000 0.1290293393
H   H5        1.0  0.51470  0.59880  0.26920  1.0000 0.1411898752
H   H6        1.0  0.70150  0.77430  0.46380  1.0000 0.1411898752
H   H7        1.0  0.90710  0.58500  0.47410  1.0000 0.1411898752
H   H8        1.0  0.75100  0.70440  0.20450  1.0000 0.1411898752
H   H9        1.0  0.10130  0.91920  0.95250  1.0000 0.1290293393
H   H10       1.0  0.41470  0.15660  0.97570  1.0000 0.1411898752
H   H11       1.0  0.31440  0.88710  0.79740  1.0000 0.1519020778
H   H12       1.0  0.69490  0.18230  0.94260  1.0000 0.1290293393
H   H13       1.0  0.48530  0.40120  0.73080  1.0000 0.1411898752
H   H14       1.0  0.29850  0.22570  0.53620  1.0000 0.1411898752
H   H15       1.0  0.09290  0.41500  0.52590  1.0000 0.1411898752
H   H16       1.0  0.24900  0.29560  0.79550  1.0000 0.1411898752
C   C1        1.0  0.88880  0.22680  0.16970  1.0000 0.6080616658
C   C2        1.0  0.80590  0.11360  0.13170  1.0000 -0.0029822335
C   C3        1.0  0.82840  0.05340  0.06520  1.0000 -0.1488536576
C   C4        1.0  0.74570  0.95220  0.02490  1.0000 0.0269152691
C   C5        1.0  0.64060  0.91120  0.05130  1.0000 -0.2292278091
C   C6        1.0  0.61810  0.97140  0.11780  1.0000 0.2690101956
C   C7        1.0  0.70070  0.07260  0.15810  1.0000 -0.211125198
C   C8        1.0  0.77250  0.88810  0.95170  1.0000 0.5727859383
C   C9        1.0  0.46710  0.82060  0.15290  1.0000 0.1559301187
C   C10       1.0  0.34710  0.77380  0.09980  1.0000 -0.211125198
C   C11       1.0  0.29000  0.66150  0.11030  1.0000 -0.0077847439
C   C12       1.0  0.35270  0.59590  0.17370  1.0000 -0.0354122872
C   C13       1.0  0.47270  0.64270  0.22680  1.0000 -0.211125198
C   C14       1.0  0.52990  0.75500  0.21630  1.0000 0.1519020778
C   C15       1.0  0.16160  0.61360  0.04920  1.0000 0.6405658966
C   C16       1.0  0.29570  0.47420  0.18460  1.0000 0.6155115014
C   C17       1.0  0.71430  0.74960  0.32490  1.0000 0.2353800183
C   C18       1.0  0.73560  0.73970  0.43050  1.0000 -0.1904206032
C   C19       1.0  0.80780  0.67800  0.48640  1.0000 -0.0292312725
C   C20       1.0  0.85880  0.62620  0.43670  1.0000 -0.0996425877
C   C21       1.0  0.83750  0.63610  0.33100  1.0000 -0.0077847439
C   C22       1.0  0.76520  0.69780  0.27510  1.0000 -0.2024706247
C   C23       1.0  0.82830  0.66790  0.59900  1.0000 0.6582670157
C   C24       1.0  0.89040  0.57780  0.28000  1.0000 0.5466665869
C   C25       1.0  0.11120  0.77320  0.83030  1.0000 0.6080616658
C   C26       1.0  0.19410  0.88640  0.86830  1.0000 -0.0029822335
C   C27       1.0  0.17160  0.94660  0.93480  1.0000 -0.1488536576
C   C28       1.0  0.25430  0.04780  0.97510  1.0000 0.0269152691
C   C29       1.0  0.35940  0.08880  0.94870  1.0000 -0.2292278091
C   C30       1.0  0.38190  0.02860  0.88220  1.0000 0.2690101956
C   C31       1.0  0.29930  0.92740  0.84190  1.0000 -0.211125198
C   C32       1.0  0.22750  0.11190  0.04830  1.0000 0.5727859383
C   C33       1.0  0.53290  0.17940  0.84710  1.0000 0.1559301187
C   C34       1.0  0.65290  0.22620  0.90020  1.0000 -0.211125198
C   C35       1.0  0.71000  0.33850  0.88970  1.0000 -0.0077847439
C   C36       1.0  0.64730  0.40410  0.82630  1.0000 -0.0354122872
C   C37       1.0  0.52730  0.35730  0.77320  1.0000 -0.211125198
C   C38       1.0  0.47010  0.24500  0.78370  1.0000 0.1519020778
C   C39       1.0  0.83840  0.38640  0.95080  1.0000 0.6405658966
C   C40       1.0  0.70430  0.52580  0.81540  1.0000 0.6155115014
C   C41       1.0  0.28570  0.25040  0.67510  1.0000 0.23465007
C   C42       1.0  0.26440  0.26030  0.56950  1.0000 -0.1904206032
C   C43       1.0  0.19220  0.32200  0.51360  1.0000 -0.0292312725
C   C44       1.0  0.14120  0.37380  0.56330  1.0000 -0.0996425877
C   C45       1.0  0.16250  0.36390  0.66900  1.0000 -0.0077847439
C   C46       1.0  0.23480  0.30220  0.72490  1.0000 -0.2024706247
C   C47       1.0  0.17170  0.33210  0.40100  1.0000 0.6582670157
C   C48       1.0  0.10960  0.42220  0.72000  1.0000 0.5466665869
O   O1        1.0  0.85940  0.28410  0.21850  1.0000 -0.5635756905
O   O2        1.0  0.99040  0.26020  0.15290  1.0000 -0.7669033761
O   O3        1.0  0.86360  0.92830  0.92260  1.0000 -0.6413025389
O   O4        1.0  0.70100  0.79180  0.92270  1.0000 -0.6413025389
O   O5        1.0  0.14480  0.58460  0.95750  1.0000 -0.6413025389
O   O6        1.0  0.07900  0.60980  0.08490  1.0000 -0.6413025389
O   O7        1.0  0.18200  0.43910  0.17030  1.0000 -0.7786347921
O   O8        1.0  0.35770  0.41100  0.20920  1.0000 -0.5776553506
O   O9        1.0  0.64540  0.81420  0.26990  1.0000 -0.2024706247
O   O10       1.0  0.90320  0.60370  0.19550  1.0000 -0.57021985
O   O11       1.0  0.92320  0.49650  0.32750  1.0000 -0.6272572631
O   O12       1.0  0.89360  0.60910  0.64490  1.0000 -0.6795768494
O   O13       1.0  0.78530  0.71800  0.64230  1.0000 -0.6622836942
O   O14       1.0  0.51840  0.93510  0.14660  1.0000 -0.1818470041
O   O15       1.0  0.14060  0.71590  0.78150  1.0000 -0.5635756905
O   O16       1.0  0.00960  0.73980  0.84710  1.0000 -0.7669033761
O   O17       1.0  0.13640  0.07170  0.07740  1.0000 -0.6413025389
O   O18       1.0  0.29900  0.20820  0.07730  1.0000 -0.6413025389
O   O19       1.0  0.85520  0.41540  0.04250  1.0000 -0.6413025389
O   O20       1.0  0.92100  0.39020  0.91510  1.0000 -0.6413025389
O   O21       1.0  0.81800  0.56090  0.82970  1.0000 -0.7786347921
O   O22       1.0  0.64230  0.58900  0.79080  1.0000 -0.5776553506
O   O23       1.0  0.35460  0.18580  0.73010  1.0000 -0.2024706247
O   O24       1.0  0.09680  0.39630  0.80450  1.0000 -0.57021985
O   O25       1.0  0.07680  0.50350  0.67250  1.0000 -0.6272572631
O   O26       1.0  0.10640  0.39090  0.35510  1.0000 -0.6795768494
O   O27       1.0  0.21470  0.28200  0.35770  1.0000 -0.6622836942
O   O28       1.0  0.48160  0.06490  0.85340  1.0000 -0.1818470041
