# DDEC6 charges by PACMAN v1.1 (https://github.com/mtap-research/PACMAN-charge/)
data_2022[Eu][acs]3[ASR]1
_chemical_formula_sum              "Eu10 H66 C84 N12 O42"
_cell_length_a       15.8816
_cell_length_b       15.8816
_cell_length_c       16.993
_cell_angle_alpha    90
_cell_angle_beta     90
_cell_angle_gamma    120

_symmetry_space_group_name_H-M    "P 1"
_symmetry_Int_Tables_number       1

loop_
  _symmetry_equiv_pos_as_xyz
  'x, y, z'

loop_
  _atom_site_type_symbol
  _atom_site_label
  _atom_site_symmetry_multiplicity
  _atom_site_fract_x
  _atom_site_fract_y
  _atom_site_fract_z
  _atom_site_occupancy
  _atom_site_charge
Eu  Eu1       1.0  0.66667  0.33333  0.35570  1.0000 1.9629550837
Eu  Eu2       1.0  0.33333  0.66667  0.85570  1.0000 1.9629550837
Eu  Eu3       1.0  0.33333  0.66667  0.64430  1.0000 1.9629550837
Eu  Eu4       1.0  0.66667  0.33333  0.14430  1.0000 1.9629550837
Eu  Eu5       1.0  0.41764  0.25834  0.25000  1.0000 2.050556189
Eu  Eu6       1.0  0.84070  0.58236  0.25000  1.0000 2.050556189
Eu  Eu7       1.0  0.74166  0.15930  0.25000  1.0000 2.050556189
Eu  Eu8       1.0  0.58236  0.74166  0.75000  1.0000 2.050556189
Eu  Eu9       1.0  0.15930  0.41764  0.75000  1.0000 2.050556189
Eu  Eu10      1.0  0.25834  0.84070  0.75000  1.0000 2.050556189
H   H1        1.0  0.62450  0.15001  0.43453  1.0000 0.3118832074
H   H2        1.0  0.64473  0.21856  0.49938  1.0000 0.2934750231
H   H3        1.0  0.51333  0.07510  0.57087  1.0000 0.1385043821
H   H4        1.0  0.24514  0.03215  0.52226  1.0000 0.1231064759
H   H5        1.0  0.30487  0.12535  0.40860  1.0000 0.1345516517
H   H6        1.0  0.52551  0.37550  0.43453  1.0000 0.3118832074
H   H7        1.0  0.57383  0.35527  0.49938  1.0000 0.2934750231
H   H8        1.0  0.56177  0.48667  0.57087  1.0000 0.1385043821
H   H9        1.0  0.78701  0.75486  0.52226  1.0000 0.1231064759
H   H10       1.0  0.82048  0.69513  0.40860  1.0000 0.1345516517
H   H11       1.0  0.84999  0.47449  0.43453  1.0000 0.3118832074
H   H12       1.0  0.78144  0.42617  0.49938  1.0000 0.2934750231
H   H13       1.0  0.92490  0.43823  0.57087  1.0000 0.1385043821
H   H14       1.0  0.96785  0.21299  0.52226  1.0000 0.1231064759
H   H15       1.0  0.87465  0.17952  0.40860  1.0000 0.1345516517
H   H16       1.0  0.37550  0.84999  0.93453  1.0000 0.3118832074
H   H17       1.0  0.35527  0.78144  0.99938  1.0000 0.2934750231
H   H18       1.0  0.48667  0.92490  0.07087  1.0000 0.1385043821
H   H19       1.0  0.75486  0.96785  0.02226  1.0000 0.1231064759
H   H20       1.0  0.69513  0.87465  0.90860  1.0000 0.1345516517
H   H21       1.0  0.47449  0.62450  0.93453  1.0000 0.3118832074
H   H22       1.0  0.42617  0.64473  0.99938  1.0000 0.2934750231
H   H23       1.0  0.43823  0.51333  0.07087  1.0000 0.1385043821
H   H24       1.0  0.21299  0.24514  0.02226  1.0000 0.1231064759
H   H25       1.0  0.17952  0.30487  0.90860  1.0000 0.1345516517
H   H26       1.0  0.15001  0.52551  0.93453  1.0000 0.3118832074
H   H27       1.0  0.21856  0.57383  0.99938  1.0000 0.2934750231
H   H28       1.0  0.07510  0.56177  0.07087  1.0000 0.1385043821
H   H29       1.0  0.03215  0.78701  0.02226  1.0000 0.1231064759
H   H30       1.0  0.12535  0.82048  0.90860  1.0000 0.1345516517
H   H31       1.0  0.37550  0.84999  0.56547  1.0000 0.3118832074
H   H32       1.0  0.35527  0.78144  0.50062  1.0000 0.2934750231
H   H33       1.0  0.48667  0.92490  0.42913  1.0000 0.1385043821
H   H34       1.0  0.75486  0.96785  0.47774  1.0000 0.1231064759
H   H35       1.0  0.69513  0.87465  0.59140  1.0000 0.1345516517
H   H36       1.0  0.47449  0.62450  0.56547  1.0000 0.3118832074
H   H37       1.0  0.42617  0.64473  0.50062  1.0000 0.2934750231
H   H38       1.0  0.43823  0.51333  0.42913  1.0000 0.1385043821
H   H39       1.0  0.21299  0.24514  0.47774  1.0000 0.1231064759
H   H40       1.0  0.17952  0.30487  0.59140  1.0000 0.1345516517
H   H41       1.0  0.15001  0.52551  0.56547  1.0000 0.3118832074
H   H42       1.0  0.21856  0.57383  0.50062  1.0000 0.2934750231
H   H43       1.0  0.07510  0.56177  0.42913  1.0000 0.1385043821
H   H44       1.0  0.03215  0.78701  0.47774  1.0000 0.1231064759
H   H45       1.0  0.12535  0.82048  0.59140  1.0000 0.1345516517
H   H46       1.0  0.62450  0.15001  0.06547  1.0000 0.3118832074
H   H47       1.0  0.64473  0.21856  0.00062  1.0000 0.2934750231
H   H48       1.0  0.51333  0.07510  0.92913  1.0000 0.1385043821
H   H49       1.0  0.24514  0.03215  0.97774  1.0000 0.1231064759
H   H50       1.0  0.30487  0.12535  0.09140  1.0000 0.1345516517
H   H51       1.0  0.52551  0.37550  0.06547  1.0000 0.3118832074
H   H52       1.0  0.57383  0.35527  0.00062  1.0000 0.2934750231
H   H53       1.0  0.56177  0.48667  0.92913  1.0000 0.1385043821
H   H54       1.0  0.78701  0.75486  0.97774  1.0000 0.1231064759
H   H55       1.0  0.82048  0.69513  0.09140  1.0000 0.1345516517
H   H56       1.0  0.84999  0.47449  0.06547  1.0000 0.3118832074
H   H57       1.0  0.78144  0.42617  0.00062  1.0000 0.2934750231
H   H58       1.0  0.92490  0.43823  0.92913  1.0000 0.1385043821
H   H59       1.0  0.96785  0.21299  0.97774  1.0000 0.1231064759
H   H60       1.0  0.87465  0.17952  0.09140  1.0000 0.1345516517
H   H61       1.0  0.60106  0.43491  0.25000  1.0000 0.4064344428
H   H62       1.0  0.83385  0.39894  0.25000  1.0000 0.4064344428
H   H63       1.0  0.56509  0.16615  0.25000  1.0000 0.4064344428
H   H64       1.0  0.39894  0.56509  0.75000  1.0000 0.4064344428
H   H65       1.0  0.16615  0.60106  0.75000  1.0000 0.4064344428
H   H66       1.0  0.43491  0.83385  0.75000  1.0000 0.4064344428
C   C1        1.0  0.50804  0.14579  0.47332  1.0000 0.1467855473
C   C2        1.0  0.47130  0.08683  0.53875  1.0000 -0.2096069269
C   C3        1.0  0.37287  0.04428  0.55814  1.0000 -0.0509393309
C   C4        1.0  0.33578  0.98199  0.62900  1.0000 0.5657373331
C   C5        1.0  0.31206  0.06018  0.50937  1.0000 -0.0949804448
C   C6        1.0  0.34793  0.11661  0.44192  1.0000 -0.2387397998
C   C7        1.0  0.44719  0.16103  0.42226  1.0000 0.2703061364
C   C8        1.0  0.63775  0.49196  0.47332  1.0000 0.1467855473
C   C9        1.0  0.61553  0.52870  0.53875  1.0000 -0.2096069269
C   C10       1.0  0.67141  0.62713  0.55814  1.0000 -0.0509393309
C   C11       1.0  0.64621  0.66422  0.62900  1.0000 0.5657373331
C   C12       1.0  0.74812  0.68794  0.50937  1.0000 -0.0949804448
C   C13       1.0  0.76868  0.65207  0.44192  1.0000 -0.2387397998
C   C14       1.0  0.71384  0.55281  0.42226  1.0000 0.2703061364
C   C15       1.0  0.85421  0.36225  0.47332  1.0000 0.1467855473
C   C16       1.0  0.91317  0.38447  0.53875  1.0000 -0.2096069269
C   C17       1.0  0.95572  0.32859  0.55814  1.0000 -0.0509393309
C   C18       1.0  0.01801  0.35379  0.62900  1.0000 0.5657373331
C   C19       1.0  0.93982  0.25188  0.50937  1.0000 -0.0949804448
C   C20       1.0  0.88339  0.23132  0.44192  1.0000 -0.2387397998
C   C21       1.0  0.83897  0.28616  0.42226  1.0000 0.2703061364
C   C22       1.0  0.49196  0.85421  0.97332  1.0000 0.1467855473
C   C23       1.0  0.52870  0.91317  0.03875  1.0000 -0.2096069269
C   C24       1.0  0.62713  0.95572  0.05814  1.0000 -0.0509393309
C   C25       1.0  0.66422  0.01801  0.12900  1.0000 0.5657373331
C   C26       1.0  0.68794  0.93982  0.00937  1.0000 -0.0949804448
C   C27       1.0  0.65207  0.88339  0.94192  1.0000 -0.2387397998
C   C28       1.0  0.55281  0.83897  0.92226  1.0000 0.2703061364
C   C29       1.0  0.36225  0.50804  0.97332  1.0000 0.1467855473
C   C30       1.0  0.38447  0.47130  0.03875  1.0000 -0.2096069269
C   C31       1.0  0.32859  0.37287  0.05814  1.0000 -0.0509393309
C   C32       1.0  0.35379  0.33578  0.12900  1.0000 0.5657373331
C   C33       1.0  0.25188  0.31206  0.00937  1.0000 -0.0949804448
C   C34       1.0  0.23132  0.34793  0.94192  1.0000 -0.2387397998
C   C35       1.0  0.28616  0.44719  0.92226  1.0000 0.2703061364
C   C36       1.0  0.14579  0.63775  0.97332  1.0000 0.1467855473
C   C37       1.0  0.08683  0.61553  0.03875  1.0000 -0.2096069269
C   C38       1.0  0.04428  0.67141  0.05814  1.0000 -0.0509393309
C   C39       1.0  0.98199  0.64621  0.12900  1.0000 0.5657373331
C   C40       1.0  0.06018  0.74812  0.00937  1.0000 -0.0949804448
C   C41       1.0  0.11661  0.76868  0.94192  1.0000 -0.2387397998
C   C42       1.0  0.16103  0.71384  0.92226  1.0000 0.2703061364
C   C43       1.0  0.49196  0.85421  0.52668  1.0000 0.1467855473
C   C44       1.0  0.52870  0.91317  0.46125  1.0000 -0.2096069269
C   C45       1.0  0.62713  0.95572  0.44186  1.0000 -0.0509393309
C   C46       1.0  0.66422  0.01801  0.37100  1.0000 0.5657373331
C   C47       1.0  0.68794  0.93982  0.49063  1.0000 -0.0949804448
C   C48       1.0  0.65207  0.88339  0.55808  1.0000 -0.2387397998
C   C49       1.0  0.55281  0.83897  0.57774  1.0000 0.2703061364
C   C50       1.0  0.36225  0.50804  0.52668  1.0000 0.1467855473
C   C51       1.0  0.38447  0.47130  0.46125  1.0000 -0.2096069269
C   C52       1.0  0.32859  0.37287  0.44186  1.0000 -0.0509393309
C   C53       1.0  0.35379  0.33578  0.37100  1.0000 0.5657373331
C   C54       1.0  0.25188  0.31206  0.49063  1.0000 -0.0949804448
C   C55       1.0  0.23132  0.34793  0.55808  1.0000 -0.2387397998
C   C56       1.0  0.28616  0.44719  0.57774  1.0000 0.2703061364
C   C57       1.0  0.14579  0.63775  0.52668  1.0000 0.1467855473
C   C58       1.0  0.08683  0.61553  0.46125  1.0000 -0.2096069269
C   C59       1.0  0.04428  0.67141  0.44186  1.0000 -0.0509393309
C   C60       1.0  0.98199  0.64621  0.37100  1.0000 0.5657373331
C   C61       1.0  0.06018  0.74812  0.49063  1.0000 -0.0949804448
C   C62       1.0  0.11661  0.76868  0.55808  1.0000 -0.2387397998
C   C63       1.0  0.16103  0.71384  0.57774  1.0000 0.2703061364
C   C64       1.0  0.50804  0.14579  0.02668  1.0000 0.1467855473
C   C65       1.0  0.47130  0.08683  0.96125  1.0000 -0.2096069269
C   C66       1.0  0.37287  0.04428  0.94186  1.0000 -0.0509393309
C   C67       1.0  0.33578  0.98199  0.87100  1.0000 0.5657373331
C   C68       1.0  0.31206  0.06018  0.99063  1.0000 -0.0956544467
C   C69       1.0  0.34793  0.11661  0.05808  1.0000 -0.2387397998
C   C70       1.0  0.44719  0.16103  0.07774  1.0000 0.2703061364
C   C71       1.0  0.63775  0.49196  0.02668  1.0000 0.1467855473
C   C72       1.0  0.61553  0.52870  0.96125  1.0000 -0.2096069269
C   C73       1.0  0.67141  0.62713  0.94186  1.0000 -0.0509393309
C   C74       1.0  0.64621  0.66422  0.87100  1.0000 0.5657373331
C   C75       1.0  0.74812  0.68794  0.99063  1.0000 -0.0949804448
C   C76       1.0  0.76868  0.65207  0.05808  1.0000 -0.2387397998
C   C77       1.0  0.71384  0.55281  0.07774  1.0000 0.2703061364
C   C78       1.0  0.85421  0.36225  0.02668  1.0000 0.1467855473
C   C79       1.0  0.91317  0.38447  0.96125  1.0000 -0.2096069269
C   C80       1.0  0.95572  0.32859  0.94186  1.0000 -0.0509393309
C   C81       1.0  0.01801  0.35379  0.87100  1.0000 0.5657373331
C   C82       1.0  0.93982  0.25188  0.99063  1.0000 -0.0949804448
C   C83       1.0  0.88339  0.23132  0.05808  1.0000 -0.2387397998
C   C84       1.0  0.83897  0.28616  0.07774  1.0000 0.2703061364
N   N1        1.0  0.61013  0.19466  0.45416  1.0000 -0.6683938243
N   N2        1.0  0.58453  0.38987  0.45416  1.0000 -0.6683938243
N   N3        1.0  0.80534  0.41547  0.45416  1.0000 -0.6683938243
N   N4        1.0  0.38987  0.80534  0.95416  1.0000 -0.6683938243
N   N5        1.0  0.41547  0.61013  0.95416  1.0000 -0.6683938243
N   N6        1.0  0.19466  0.58453  0.95416  1.0000 -0.6683938243
N   N7        1.0  0.38987  0.80534  0.54584  1.0000 -0.6683938243
N   N8        1.0  0.41547  0.61013  0.54584  1.0000 -0.6683938243
N   N9        1.0  0.19466  0.58453  0.54584  1.0000 -0.6683938243
N   N10       1.0  0.61013  0.19466  0.04584  1.0000 -0.6683938243
N   N11       1.0  0.58453  0.38987  0.04584  1.0000 -0.6683938243
N   N12       1.0  0.80534  0.41547  0.04584  1.0000 -0.6683938243
O   O1        1.0  0.48519  0.21780  0.35894  1.0000 -0.7641531068
O   O2        1.0  0.38806  0.95054  0.66073  1.0000 -0.6279172438
O   O3        1.0  0.25302  0.95741  0.65707  1.0000 -0.6400405653
O   O4        1.0  0.73261  0.51481  0.35894  1.0000 -0.7641531068
O   O5        1.0  0.56248  0.61194  0.66073  1.0000 -0.6279172438
O   O6        1.0  0.70439  0.74698  0.65707  1.0000 -0.6400405653
O   O7        1.0  0.78220  0.26739  0.35894  1.0000 -0.7641531068
O   O8        1.0  0.04946  0.43752  0.66073  1.0000 -0.6279172438
O   O9        1.0  0.04259  0.29561  0.65707  1.0000 -0.6400405653
O   O10       1.0  0.51481  0.78220  0.85894  1.0000 -0.7641531068
O   O11       1.0  0.61194  0.04946  0.16073  1.0000 -0.6279172438
O   O12       1.0  0.74698  0.04259  0.15707  1.0000 -0.6400405653
O   O13       1.0  0.26739  0.48519  0.85894  1.0000 -0.7641531068
O   O14       1.0  0.43752  0.38806  0.16073  1.0000 -0.6279172438
O   O15       1.0  0.29561  0.25302  0.15707  1.0000 -0.6400405653
O   O16       1.0  0.21780  0.73261  0.85894  1.0000 -0.7641531068
O   O17       1.0  0.95054  0.56248  0.16073  1.0000 -0.6279172438
O   O18       1.0  0.95741  0.70439  0.15707  1.0000 -0.6400405653
O   O19       1.0  0.51481  0.78220  0.64106  1.0000 -0.7641531068
O   O20       1.0  0.61194  0.04946  0.33927  1.0000 -0.6279172438
O   O21       1.0  0.74698  0.04259  0.34293  1.0000 -0.6400405653
O   O22       1.0  0.26739  0.48519  0.64106  1.0000 -0.7641531068
O   O23       1.0  0.43752  0.38806  0.33927  1.0000 -0.6279172438
O   O24       1.0  0.29561  0.25302  0.34293  1.0000 -0.6400405653
O   O25       1.0  0.21780  0.73261  0.64106  1.0000 -0.7641531068
O   O26       1.0  0.95054  0.56248  0.33927  1.0000 -0.6279172438
O   O27       1.0  0.95741  0.70439  0.34293  1.0000 -0.6400405653
O   O28       1.0  0.48519  0.21780  0.14106  1.0000 -0.7641531068
O   O29       1.0  0.38806  0.95054  0.83927  1.0000 -0.6279172438
O   O30       1.0  0.25302  0.95741  0.84293  1.0000 -0.6400405653
O   O31       1.0  0.73261  0.51481  0.14106  1.0000 -0.7641531068
O   O32       1.0  0.56248  0.61194  0.83927  1.0000 -0.6279172438
O   O33       1.0  0.70439  0.74698  0.84293  1.0000 -0.6400405653
O   O34       1.0  0.78220  0.26739  0.14106  1.0000 -0.7641531068
O   O35       1.0  0.04946  0.43752  0.83927  1.0000 -0.6279172438
O   O36       1.0  0.04259  0.29561  0.84293  1.0000 -0.6400405653
O   O37       1.0  0.58613  0.36692  0.25000  1.0000 -1.143705044
O   O38       1.0  0.78079  0.41387  0.25000  1.0000 -1.143705044
O   O39       1.0  0.63308  0.21921  0.25000  1.0000 -1.143705044
O   O40       1.0  0.41387  0.63308  0.75000  1.0000 -1.1466060617
O   O41       1.0  0.21921  0.58613  0.75000  1.0000 -1.143705044
O   O42       1.0  0.36692  0.78079  0.75000  1.0000 -1.1466060617
