# DDEC6 charges by PACMAN v1.1 (https://github.com/mtap-research/PACMAN-charge/)
data_2022[NiMn][nan]3[ASR]1
_chemical_formula_sum              "Ni6 O36 C40 H12 Mn4"
_cell_length_a       7.4124
_cell_length_b       16.7476
_cell_length_c       14.0811
_cell_angle_alpha    90
_cell_angle_beta     95.787
_cell_angle_gamma    90

_symmetry_space_group_name_H-M    "P 1"
_symmetry_Int_Tables_number       1

loop_
  _symmetry_equiv_pos_as_xyz
  'x, y, z'

loop_
  _atom_site_type_symbol
  _atom_site_label
  _atom_site_symmetry_multiplicity
  _atom_site_fract_x
  _atom_site_fract_y
  _atom_site_fract_z
  _atom_site_occupancy
  _atom_site_charge
Ni  Ni1       1.0  0.18836  0.37662  0.47306  1.0000 1.0268071649
Ni  Ni2       1.0  0.21566  0.48416  0.68238  1.0000 1.0225457905
O   O1        1.0  0.24250  0.48510  0.53800  1.0000 -0.819316143
O   O2        1.0  0.60070  0.40970  0.58760  1.0000 -0.526167238
O   O3        1.0  0.90570  0.08620  0.89730  1.0000 -0.5700145008
O   O4        1.0  0.52190  0.07860  0.86080  1.0000 -0.5757360699
O   O5        1.0  0.95980  0.34910  0.53940  1.0000 -0.5610577705
O   O6        1.0  0.01550  0.39570  0.68790  1.0000 -0.53990891
O   O7        1.0  0.42920  0.05020  0.71290  1.0000 -0.4938634279
O   O8        1.0  0.08000  0.07230  0.77940  1.0000 -0.5213458779
O   O9        1.0  0.36230  0.32700  0.57520  1.0000 -0.5610577705
C   C1        1.0  0.94790  0.10110  0.81530  1.0000 0.6082299632
C   C2        1.0  0.83350  0.16010  0.75510  1.0000 -0.040759364
C   C3        1.0  0.93980  0.34950  0.62700  1.0000 0.6082299632
C   C4        1.0  0.82790  0.28370  0.66420  1.0000 -0.0071289643
C   C5        1.0  0.64320  0.15450  0.73680  1.0000 -0.0502840447
C   C6        1.0  0.92070  0.22320  0.71590  1.0000 -0.1315996068
H   H1        1.0  0.04660  0.22530  0.72460  1.0000 0.136989942
C   C7        1.0  0.55030  0.21350  0.68320  1.0000 -0.1094974371
H   H2        1.0  0.42530  0.20900  0.66970  1.0000 0.136989942
C   C8        1.0  0.52480  0.34400  0.59940  1.0000 0.5883633453
C   C9        1.0  0.52710  0.09030  0.77250  1.0000 0.5883633453
C   C10       1.0  0.63820  0.27930  0.64890  1.0000 -0.040759364
H   H3        1.0  0.18600  0.52500  0.51300  1.0000 0.3833779601
Mn  Mn1       1.0  0.81164  0.62338  0.52694  1.0000 0.9474073408
Mn  Mn2       1.0  0.78434  0.51584  0.31762  1.0000 0.9285132645
Ni  Ni3       1.0  0.31164  0.87662  0.02694  1.0000 1.0268071649
Ni  Ni4       1.0  0.28434  0.98416  0.81762  1.0000 1.0225457905
O   O10       1.0  0.25750  0.98510  0.96200  1.0000 -0.819316143
O   O11       1.0  0.89930  0.90970  0.91240  1.0000 -0.526167238
O   O12       1.0  0.59430  0.58620  0.60270  1.0000 -0.5700145008
O   O13       1.0  0.97810  0.57860  0.63920  1.0000 -0.5700145008
O   O14       1.0  0.54020  0.84910  0.96060  1.0000 -0.5610577705
O   O15       1.0  0.48450  0.89570  0.81210  1.0000 -0.53990891
O   O16       1.0  0.07080  0.55020  0.78710  1.0000 -0.4938634279
O   O17       1.0  0.42000  0.57230  0.72060  1.0000 -0.5213458779
O   O18       1.0  0.13770  0.82700  0.92480  1.0000 -0.5610577705
C   C11       1.0  0.55210  0.60110  0.68470  1.0000 0.6082299632
C   C12       1.0  0.66650  0.66010  0.74490  1.0000 -0.040759364
C   C13       1.0  0.56020  0.84950  0.87300  1.0000 0.6082299632
C   C14       1.0  0.67210  0.78370  0.83580  1.0000 -0.0071289643
C   C15       1.0  0.85680  0.65450  0.76320  1.0000 -0.0502840447
C   C16       1.0  0.57930  0.72320  0.78410  1.0000 -0.1315996068
H   H4        1.0  0.45340  0.72530  0.77540  1.0000 0.136989942
C   C17       1.0  0.94970  0.71350  0.81680  1.0000 -0.1094974371
H   H5        1.0  0.07470  0.70900  0.83030  1.0000 0.136989942
C   C18       1.0  0.97520  0.84400  0.90060  1.0000 0.5883633453
C   C19       1.0  0.97290  0.59030  0.72750  1.0000 0.5883633453
C   C20       1.0  0.86180  0.77930  0.85110  1.0000 -0.040759364
H   H6        1.0  0.31400  0.02500  0.98700  1.0000 0.3833779601
Mn  Mn3       1.0  0.68836  0.12338  0.97306  1.0000 0.9474073408
Mn  Mn4       1.0  0.71566  0.01584  0.18238  1.0000 0.9285132645
O   O19       1.0  0.75750  0.51490  0.46200  1.0000 -0.8306209685
O   O20       1.0  0.39930  0.59030  0.41240  1.0000 -0.526167238
O   O21       1.0  0.09430  0.91380  0.10270  1.0000 -0.5610577705
O   O22       1.0  0.47810  0.92140  0.13920  1.0000 -0.5700145008
O   O23       1.0  0.04020  0.65090  0.46060  1.0000 -0.5610577705
O   O24       1.0  0.98450  0.60430  0.31210  1.0000 -0.53990891
O   O25       1.0  0.57080  0.94980  0.28710  1.0000 -0.4766991081
O   O26       1.0  0.92000  0.92770  0.22060  1.0000 -0.5091568472
O   O27       1.0  0.63770  0.67300  0.42480  1.0000 -0.5610577705
C   C21       1.0  0.05210  0.89890  0.18470  1.0000 0.6082299632
C   C22       1.0  0.16650  0.83990  0.24490  1.0000 -0.0502840447
C   C23       1.0  0.06020  0.65050  0.37300  1.0000 0.6082299632
C   C24       1.0  0.17210  0.71630  0.33580  1.0000 -0.0040488082
C   C25       1.0  0.35680  0.84550  0.26320  1.0000 -0.0576582196
C   C26       1.0  0.07930  0.77680  0.28410  1.0000 -0.1228232326
H   H7        1.0  0.95340  0.77470  0.27540  1.0000 0.136989942
C   C27       1.0  0.44970  0.78650  0.31680  1.0000 -0.1094974371
H   H8        1.0  0.57470  0.79100  0.33030  1.0000 0.136989942
C   C28       1.0  0.47520  0.65600  0.40060  1.0000 0.5883633453
C   C29       1.0  0.47290  0.90970  0.22750  1.0000 0.583228266
C   C30       1.0  0.36180  0.72070  0.35110  1.0000 -0.040759364
H   H9        1.0  0.81400  0.47500  0.48700  1.0000 0.3833779601
O   O28       1.0  0.74250  0.01490  0.03800  1.0000 -0.8306209685
O   O29       1.0  0.10070  0.09030  0.08760  1.0000 -0.526167238
O   O30       1.0  0.40570  0.41380  0.39730  1.0000 -0.5610577705
O   O31       1.0  0.02190  0.42140  0.36080  1.0000 -0.5700145008
O   O32       1.0  0.45980  0.15090  0.03940  1.0000 -0.5610577705
O   O33       1.0  0.51550  0.10430  0.18790  1.0000 -0.53990891
O   O34       1.0  0.92920  0.44980  0.21290  1.0000 -0.4766991081
O   O35       1.0  0.58000  0.42770  0.27940  1.0000 -0.5091568472
O   O36       1.0  0.86230  0.17300  0.07520  1.0000 -0.5610577705
C   C31       1.0  0.44790  0.39890  0.31530  1.0000 0.6082299632
C   C32       1.0  0.33350  0.33990  0.25510  1.0000 -0.0502840447
C   C33       1.0  0.43980  0.15050  0.12700  1.0000 0.6082299632
C   C34       1.0  0.32790  0.21630  0.16420  1.0000 -0.0040488082
C   C35       1.0  0.14320  0.34550  0.23680  1.0000 -0.0576582196
C   C36       1.0  0.42070  0.27680  0.21590  1.0000 -0.1228232326
H   H10       1.0  0.54660  0.27470  0.22460  1.0000 0.136989942
C   C37       1.0  0.05030  0.28650  0.18320  1.0000 -0.1094974371
H   H11       1.0  0.92530  0.29100  0.16970  1.0000 0.136989942
C   C38       1.0  0.02480  0.15600  0.09940  1.0000 0.5883633453
C   C39       1.0  0.02710  0.40970  0.27250  1.0000 0.583228266
C   C40       1.0  0.13820  0.22070  0.14890  1.0000 -0.040759364
H   H12       1.0  0.68600  0.97500  0.01300  1.0000 0.3833779601
Ni  Ni5       1.0  0.50000  0.50000  0.50000  1.0000 1.0456092117
Ni  Ni6       1.0  0.00000  0.00000  0.00000  1.0000 1.0448313711
