# DDEC6 charges by PACMAN v1.1 (https://github.com/mtap-research/PACMAN-charge/)
data_2022[Ni][bex]2[ASR]1
_chemical_formula_sum              "Ni2 H38 C46 S2 N4 O14"
_cell_length_a       7.1192
_cell_length_b       11.0064
_cell_length_c       17.0108
_cell_angle_alpha    89.7201
_cell_angle_beta     101.119
_cell_angle_gamma    98.543

_symmetry_space_group_name_H-M    "P 1"
_symmetry_Int_Tables_number       1

loop_
  _symmetry_equiv_pos_as_xyz
  'x, y, z'

loop_
  _atom_site_type_symbol
  _atom_site_label
  _atom_site_symmetry_multiplicity
  _atom_site_fract_x
  _atom_site_fract_y
  _atom_site_fract_z
  _atom_site_occupancy
  _atom_site_charge
Ni  Ni1       1.0  0.61344  0.27815  0.33895  1.0000 0.810508381
Ni  Ni2       1.0  0.38656  0.72185  0.66105  1.0000 0.810508381
H   H1        1.0  0.73900  0.14770  0.61880  1.0000 0.2961740451
H   H2        1.0  0.13040  0.51930  0.56360  1.0000 0.1001347782
H   H3        1.0  0.12770  0.33180  0.50480  1.0000 0.131164269
H   H4        1.0  0.40750  0.24330  0.52490  1.0000 0.131164269
H   H5        1.0  0.67720  0.53660  0.65950  1.0000 0.1203658184
H   H6        1.0  0.85420  0.38210  0.58300  1.0000 0.1001347782
H   H7        1.0  0.81890  0.33840  0.66730  1.0000 0.1203658184
H   H8        1.0  0.62510  0.01410  0.44710  1.0000 0.131164269
H   H9        1.0  0.71230  0.99110  0.53690  1.0000 0.131164269
H   H10       1.0  0.88450  0.92130  0.43840  1.0000 0.0873195039
H   H11       1.0  0.95900  0.06030  0.42670  1.0000 0.1077905105
H   H12       1.0  0.93240  0.27310  0.10660  1.0000 0.131164269
H   H13       1.0  0.84430  0.30230  0.96960  1.0000 0.131164269
H   H14       1.0  0.40320  0.40230  0.95930  1.0000 0.1203658184
H   H15       1.0  0.48820  0.37230  0.09590  1.0000 0.131164269
H   H16       1.0  0.93140  0.12890  0.80230  1.0000 0.1398865352
H   H17       1.0  0.07520  0.97770  0.75220  1.0000 0.1398865352
H   H18       1.0  0.54940  0.22220  0.74670  1.0000 0.1203658184
H   H19       1.0  0.40810  0.37350  0.79780  1.0000 0.131164269
H   H20       1.0  0.26100  0.85230  0.38120  1.0000 0.2961740451
H   H21       1.0  0.86960  0.48070  0.43640  1.0000 0.1001347782
H   H22       1.0  0.87230  0.66820  0.49520  1.0000 0.131164269
H   H23       1.0  0.59250  0.75670  0.47510  1.0000 0.131164269
H   H24       1.0  0.32280  0.46340  0.34050  1.0000 0.1203658184
H   H25       1.0  0.14580  0.61790  0.41700  1.0000 0.1001347782
H   H26       1.0  0.18110  0.66160  0.33270  1.0000 0.1203658184
H   H27       1.0  0.37490  0.98590  0.55290  1.0000 0.131164269
H   H28       1.0  0.28770  0.00890  0.46310  1.0000 0.131164269
H   H29       1.0  0.11550  0.07870  0.56160  1.0000 0.0873195039
H   H30       1.0  0.04100  0.93970  0.57330  1.0000 0.1077905105
H   H31       1.0  0.06760  0.72690  0.89340  1.0000 0.131164269
H   H32       1.0  0.15570  0.69770  0.03040  1.0000 0.131164269
H   H33       1.0  0.59680  0.59770  0.04070  1.0000 0.1203658184
H   H34       1.0  0.51180  0.62770  0.90410  1.0000 0.131164269
H   H35       1.0  0.06860  0.87110  0.19770  1.0000 0.1398865352
H   H36       1.0  0.92480  0.02230  0.24780  1.0000 0.1398865352
H   H37       1.0  0.45060  0.77780  0.25330  1.0000 0.1203658184
H   H38       1.0  0.59190  0.62650  0.20220  1.0000 0.131164269
C   C1        1.0  0.24420  0.48510  0.57133  1.0000 0.0478946076
C   C2        1.0  0.24120  0.37210  0.53626  1.0000 -0.1356720818
C   C3        1.0  0.40740  0.31950  0.54820  1.0000 -0.081538119
C   C4        1.0  0.57460  0.38090  0.59526  1.0000 0.0715745793
C   C5        1.0  0.56540  0.49470  0.62781  1.0000 0.022972138
C   C6        1.0  0.76480  0.33130  0.61038  1.0000 -0.1093252773
C   C7        1.0  0.75490  0.17130  0.50889  1.0000 0.5228023635
C   C8        1.0  0.73600  0.03710  0.49007  1.0000 -0.3528263463
C   C9        1.0  0.91740  0.00160  0.46490  1.0000 -0.129021187
C   C10       1.0  0.27920  0.29760  0.20293  1.0000 0.5605952399
C   C11       1.0  0.21910  0.31940  0.11439  1.0000 0.000780892
C   C12       1.0  0.02720  0.29900  0.07691  1.0000 -0.081538119
C   C13       1.0  0.97380  0.31690  0.99495  1.0000 -0.0991773604
C   C14       1.0  0.11550  0.35650  0.95235  1.0000 -0.0889763558
C   C15       1.0  0.30820  0.37670  0.98890  1.0000 -0.1093252773
C   C16       1.0  0.35860  0.35820  0.07064  1.0000 -0.0889763558
C   C17       1.0  0.15850  0.26510  0.80502  1.0000 -0.0991773604
C   C18       1.0  0.05550  0.14720  0.79143  1.0000 -0.0991773604
C   C19       1.0  0.14160  0.05730  0.76127  1.0000 -0.081538119
C   C20       1.0  0.32610  0.08530  0.74449  1.0000 -0.0180322552
C   C21       1.0  0.42580  0.20350  0.75807  1.0000 -0.0991773604
C   C22       1.0  0.34150  0.29400  0.78857  1.0000 -0.0991773604
C   C23       1.0  0.42070  0.98830  0.71069  1.0000 0.5605952399
C   C24       1.0  0.75580  0.51490  0.42867  1.0000 0.0478946076
C   C25       1.0  0.75880  0.62790  0.46374  1.0000 -0.1356720818
C   C26       1.0  0.59260  0.68050  0.45180  1.0000 -0.081538119
C   C27       1.0  0.42540  0.61910  0.40474  1.0000 0.0715745793
C   C28       1.0  0.43460  0.50530  0.37219  1.0000 0.022972138
C   C29       1.0  0.23520  0.66870  0.38962  1.0000 -0.1093252773
C   C30       1.0  0.24510  0.82870  0.49111  1.0000 0.5228023635
C   C31       1.0  0.26400  0.96290  0.50993  1.0000 -0.3528263463
C   C32       1.0  0.08260  0.99840  0.53510  1.0000 -0.129021187
C   C33       1.0  0.72080  0.70240  0.79707  1.0000 0.5605952399
C   C34       1.0  0.78090  0.68060  0.88561  1.0000 0.000780892
C   C35       1.0  0.97280  0.70100  0.92309  1.0000 -0.081538119
C   C36       1.0  0.02620  0.68310  0.00505  1.0000 -0.0991773604
C   C37       1.0  0.88450  0.64350  0.04765  1.0000 -0.0889763558
C   C38       1.0  0.69180  0.62330  0.01110  1.0000 -0.1093252773
C   C39       1.0  0.64140  0.64180  0.92936  1.0000 -0.0889763558
C   C40       1.0  0.84150  0.73490  0.19498  1.0000 -0.0991773604
C   C41       1.0  0.94450  0.85280  0.20857  1.0000 -0.0991773604
C   C42       1.0  0.85840  0.94270  0.23873  1.0000 -0.081538119
C   C43       1.0  0.67390  0.91470  0.25551  1.0000 -0.0180322552
C   C44       1.0  0.57420  0.79650  0.24193  1.0000 -0.0991773604
C   C45       1.0  0.65850  0.70600  0.21143  1.0000 -0.0991773604
C   C46       1.0  0.57930  0.01170  0.28931  1.0000 0.5605952399
S   S1        1.0  0.05738  0.37975  0.84838  1.0000 0.9748219358
S   S2        1.0  0.94262  0.62025  0.15162  1.0000 0.9748219358
N   N1        1.0  0.40500  0.54769  0.61619  1.0000 -0.2257180182
N   N2        1.0  0.75060  0.20434  0.58433  1.0000 -0.3303271128
N   N3        1.0  0.59500  0.45231  0.38381  1.0000 -0.2257180182
N   N4        1.0  0.24940  0.79566  0.41567  1.0000 -0.3303271128
O   O1        1.0  0.77640  0.25076  0.45758  1.0000 -0.5271085841
O   O2        1.0  0.45850  0.31472  0.23010  1.0000 -0.5469456209
O   O3        1.0  0.14970  0.26372  0.24268  1.0000 -0.5750868215
O   O4        1.0  0.16390  0.49640  0.83299  1.0000 -0.4755064143
O   O5        1.0  0.85080  0.35903  0.82286  1.0000 -0.5059381319
O   O6        1.0  0.58130  0.02034  0.69063  1.0000 -0.5885257019
O   O7        1.0  0.32610  0.88136  0.70323  1.0000 -0.5271085841
O   O8        1.0  0.22360  0.74924  0.54242  1.0000 -0.5271085841
O   O9        1.0  0.54150  0.68528  0.76990  1.0000 -0.5469456209
O   O10       1.0  0.85030  0.73628  0.75732  1.0000 -0.5745432271
O   O11       1.0  0.83610  0.50360  0.16701  1.0000 -0.4755064143
O   O12       1.0  0.14920  0.64097  0.17714  1.0000 -0.5059381319
O   O13       1.0  0.41870  0.97966  0.30937  1.0000 -0.5885257019
O   O14       1.0  0.67390  0.11864  0.29677  1.0000 -0.5271085841
