# DDEC6 charges by PACMAN v1.1 (https://github.com/mtap-research/PACMAN-charge/)
data_2022[Cd][nan]3[ASR]2
_chemical_formula_sum              "Cd4 H44 C72 N12 O24"
_cell_length_a       15.982
_cell_length_b       15.982
_cell_length_c       15.982
_cell_angle_alpha    134.098
_cell_angle_beta     122.659
_cell_angle_gamma    76.3775

_symmetry_space_group_name_H-M    "P 1"
_symmetry_Int_Tables_number       1

loop_
  _symmetry_equiv_pos_as_xyz
  'x, y, z'

loop_
  _atom_site_type_symbol
  _atom_site_label
  _atom_site_symmetry_multiplicity
  _atom_site_fract_x
  _atom_site_fract_y
  _atom_site_fract_z
  _atom_site_occupancy
  _atom_site_charge
Cd  Cd1       1.0  0.31042  0.90483  0.74509  1.0000 0.9006523659
Cd  Cd2       1.0  0.84026  0.09517  0.40559  1.0000 0.9006523659
Cd  Cd3       1.0  0.81042  0.56533  0.90559  1.0000 0.9006523659
Cd  Cd4       1.0  0.34026  0.43467  0.24509  1.0000 0.9006523659
H   H1        1.0  0.42630  0.36900  0.01450  1.0000 0.1370696277
H   H2        1.0  0.38040  0.36150  0.84570  1.0000 0.130591807
H   H3        1.0  0.20970  0.28630  0.66500  1.0000 0.130591807
H   H4        1.0  0.02140  0.02850  0.79650  1.0000 0.1217912082
H   H5        1.0  0.93340  0.17430  0.88290  1.0000 0.1217912082
H   H6        1.0  0.96740  0.35250  0.95470  1.0000 0.130591807
H   H7        1.0  0.36900  0.08250  0.74390  1.0000 0.1092189905
H   H8        1.0  0.45490  0.10600  0.68090  1.0000 0.130591807
H   H9        1.0  0.50380  0.77670  0.50570  1.0000 0.1508312543
H   H10       1.0  0.42390  0.76670  0.58140  1.0000 0.1092189905
H   H11       1.0  0.54060  0.87880  0.45760  1.0000 0.1370696277
H   H12       1.0  0.64550  0.63100  0.05730  1.0000 0.1370696277
H   H13       1.0  0.48420  0.63850  0.01890  1.0000 0.130591807
H   H14       1.0  0.37870  0.71370  0.92340  1.0000 0.130591807
H   H15       1.0  0.76800  0.97150  0.99290  1.0000 0.1217912082
H   H16       1.0  0.70860  0.82570  0.75910  1.0000 0.1217912082
H   H17       1.0  0.60220  0.64750  0.61490  1.0000 0.130591807
H   H18       1.0  0.66140  0.91750  0.28650  1.0000 0.1092189905
H   H19       1.0  0.57490  0.89400  0.34890  1.0000 0.130591807
H   H20       1.0  0.72900  0.22330  0.72710  1.0000 0.1508312543
H   H21       1.0  0.81470  0.23330  0.65720  1.0000 0.1092189905
H   H22       1.0  0.57880  0.12120  0.66180  1.0000 0.1370696277
H   H23       1.0  0.92630  0.41180  0.55730  1.0000 0.1370696277
H   H24       1.0  0.88040  0.53470  0.51890  1.0000 0.130591807
H   H25       1.0  0.70970  0.54470  0.42340  1.0000 0.130591807
H   H26       1.0  0.52140  0.22490  0.49290  1.0000 0.1217912082
H   H27       1.0  0.43340  0.05050  0.25910  1.0000 0.1217912082
H   H28       1.0  0.46740  0.01270  0.11490  1.0000 0.130591807
H   H29       1.0  0.86900  0.62510  0.78650  1.0000 0.1092189905
H   H30       1.0  0.95490  0.77400  0.84890  1.0000 0.130591807
H   H31       1.0  0.00380  0.99810  0.22710  1.0000 0.1508312543
H   H32       1.0  0.92390  0.84250  0.15720  1.0000 0.1092189905
H   H33       1.0  0.04060  0.08300  0.16180  1.0000 0.1370696277
H   H34       1.0  0.14550  0.58820  0.51450  1.0000 0.1370696277
H   H35       1.0  0.98420  0.46530  0.34570  1.0000 0.130591807
H   H36       1.0  0.87870  0.45530  0.16500  1.0000 0.130591807
H   H37       1.0  0.26800  0.77510  0.29650  1.0000 0.1217912082
H   H38       1.0  0.20860  0.94950  0.38290  1.0000 0.1217912082
H   H39       1.0  0.10220  0.98730  0.45470  1.0000 0.130591807
H   H40       1.0  0.16140  0.37490  0.24390  1.0000 0.1092189905
H   H41       1.0  0.07490  0.22600  0.18090  1.0000 0.130591807
H   H42       1.0  0.22900  0.00190  0.00570  1.0000 0.1508312543
H   H43       1.0  0.31470  0.15750  0.08140  1.0000 0.1092189905
H   H44       1.0  0.07880  0.91700  0.95760  1.0000 0.1370696277
C   C1        1.0  0.35850  0.33930  0.94200  1.0000 -0.0297424396
C   C2        1.0  0.33150  0.33530  0.84220  1.0000 -0.1602374668
C   C3        1.0  0.22940  0.29110  0.73490  1.0000 -0.0753411464
C   C4        1.0  0.15770  0.25470  0.73300  1.0000 -0.0675464849
C   C5        1.0  0.18780  0.26080  0.83480  1.0000 0.0837334228
C   C6        1.0  0.11710  0.22810  0.84600  1.0000 0.0666813758
C   C7        1.0  0.10300  0.11850  0.80730  1.0000 -0.0622815228
C   C8        1.0  0.03330  0.09950  0.82200  1.0000 -0.0987909938
C   C9        1.0  0.98140  0.18750  0.87510  1.0000 -0.1406799982
C   C10       1.0  0.00050  0.29310  0.91600  1.0000 -0.0541727505
C   C11       1.0  0.04670  0.20070  0.61180  1.0000 0.5511162151
C   C12       1.0  0.16510  0.02990  0.75820  1.0000 0.5559398999
C   C13       1.0  0.39790  0.02140  0.69750  1.0000 0.0902640317
C   C14       1.0  0.44830  0.03540  0.65850  1.0000 -0.2044796179
C   C15       1.0  0.48930  0.94260  0.58490  1.0000 0.1508312543
C   C16       1.0  0.47840  0.84080  0.55540  1.0000 -0.1827013175
C   C17       1.0  0.42960  0.83560  0.60060  1.0000 0.1033421625
C   C18       1.0  0.54010  0.95020  0.53430  1.0000 -0.1310428287
C   C19       1.0  0.60270  0.66070  0.01920  1.0000 -0.0297424396
C   C20       1.0  0.50690  0.66470  0.99620  1.0000 -0.1602374668
C   C21       1.0  0.44380  0.70890  0.93830  1.0000 -0.0753411464
C   C22       1.0  0.47830  0.74530  0.90300  1.0000 -0.0675464849
C   C23       1.0  0.57400  0.73920  0.92700  1.0000 0.0837334228
C   C24       1.0  0.61790  0.77190  0.88900  1.0000 0.0666813758
C   C25       1.0  0.68880  0.88150  0.98450  1.0000 -0.0622815228
C   C26       1.0  0.72250  0.90050  0.93380  1.0000 -0.0987909938
C   C27       1.0  0.68760  0.81250  0.79390  1.0000 -0.1406799982
C   C28       1.0  0.62290  0.70690  0.70740  1.0000 -0.0541727505
C   C29       1.0  0.41110  0.79930  0.84600  1.0000 0.5511162151
C   C30       1.0  0.72830  0.97010  0.13520  1.0000 0.5559398999
C   C31       1.0  0.67610  0.97860  0.37650  1.0000 0.0902640317
C   C32       1.0  0.62310  0.96460  0.41290  1.0000 -0.2057304363
C   C33       1.0  0.64230  0.05740  0.54670  1.0000 0.1508312543
C   C34       1.0  0.71460  0.15920  0.63760  1.0000 -0.1827013175
C   C35       1.0  0.76500  0.16440  0.59400  1.0000 0.1033421625
C   C36       1.0  0.58410  0.04980  0.58990  1.0000 -0.1310428287
C   C37       1.0  0.85850  0.41650  0.51920  1.0000 -0.0297424396
C   C38       1.0  0.83150  0.48930  0.49620  1.0000 -0.1602374668
C   C39       1.0  0.72940  0.49450  0.43830  1.0000 -0.0753411464
C   C40       1.0  0.65770  0.42470  0.40300  1.0000 -0.0675464849
C   C41       1.0  0.68780  0.35300  0.42700  1.0000 0.0837334228
C   C42       1.0  0.61710  0.27110  0.38900  1.0000 0.0666813758
C   C43       1.0  0.60300  0.29570  0.48450  1.0000 -0.0622815228
C   C44       1.0  0.53330  0.21130  0.43380  1.0000 -0.0987909938
C   C45       1.0  0.48140  0.10630  0.29390  1.0000 -0.1406799982
C   C46       1.0  0.50050  0.08450  0.20740  1.0000 -0.0541727505
C   C47       1.0  0.54670  0.43490  0.34600  1.0000 0.5511162151
C   C48       1.0  0.66510  0.40690  0.63520  1.0000 0.5559398999
C   C49       1.0  0.89790  0.70040  0.87650  1.0000 0.0902640317
C   C50       1.0  0.94830  0.78980  0.91290  1.0000 -0.2057304363
C   C51       1.0  0.98930  0.90440  0.04670  1.0000 0.1508312543
C   C52       1.0  0.97840  0.92300  0.13760  1.0000 -0.1827013175
C   C53       1.0  0.92960  0.82900  0.09400  1.0000 0.1033421625
C   C54       1.0  0.04010  0.00580  0.08990  1.0000 -0.1310428287
C   C55       1.0  0.10270  0.58350  0.44200  1.0000 -0.0297424396
C   C56       1.0  0.00690  0.51070  0.34220  1.0000 -0.1602374668
C   C57       1.0  0.94380  0.50550  0.23490  1.0000 -0.0753411464
C   C58       1.0  0.97830  0.57530  0.23300  1.0000 -0.0675464849
C   C59       1.0  0.07400  0.64700  0.33480  1.0000 0.0837334228
C   C60       1.0  0.11790  0.72890  0.34600  1.0000 0.0666813758
C   C61       1.0  0.18880  0.70430  0.30730  1.0000 -0.0622815228
C   C62       1.0  0.22250  0.78870  0.32200  1.0000 -0.0987909938
C   C63       1.0  0.18760  0.89370  0.37510  1.0000 -0.1406799982
C   C64       1.0  0.12290  0.91550  0.41600  1.0000 -0.0541727505
C   C65       1.0  0.91110  0.56510  0.11180  1.0000 0.5511162151
C   C66       1.0  0.22830  0.59310  0.25820  1.0000 0.5559398999
C   C67       1.0  0.17610  0.29960  0.19750  1.0000 0.0902640317
C   C68       1.0  0.12310  0.21020  0.15850  1.0000 -0.2057304363
C   C69       1.0  0.14230  0.09560  0.08490  1.0000 0.1508312543
C   C70       1.0  0.21460  0.07700  0.05540  1.0000 -0.1827013175
C   C71       1.0  0.26500  0.17100  0.10060  1.0000 0.1033421625
C   C72       1.0  0.08410  0.99420  0.03430  1.0000 -0.1310428287
N   N1        1.0  0.38947  0.92257  0.67050  1.0000 -0.2282290998
N   N2        1.0  0.28820  0.30090  0.93590  1.0000 0.2766635288
N   N3        1.0  0.06740  0.31200  0.90060  1.0000 0.2910108735
N   N4        1.0  0.74793  0.07743  0.46690  1.0000 -0.2282290998
N   N5        1.0  0.63500  0.69910  0.98730  1.0000 0.2766635288
N   N6        1.0  0.58860  0.68800  0.75540  1.0000 0.2910108735
N   N7        1.0  0.88947  0.71897  0.96690  1.0000 -0.2282290998
N   N8        1.0  0.78820  0.35230  0.48730  1.0000 0.2766635288
N   N9        1.0  0.56740  0.16680  0.25540  1.0000 0.2910108735
N   N10       1.0  0.24793  0.28103  0.17050  1.0000 -0.2282290998
N   N11       1.0  0.13500  0.64770  0.43590  1.0000 0.2766635288
N   N12       1.0  0.08860  0.83320  0.40060  1.0000 0.2910108735
O   O1        1.0  0.31920  0.29600  0.02820  1.0000 -0.5030764471
O   O2        1.0  0.02620  0.17120  0.50660  1.0000 -0.5321337114
O   O3        1.0  0.98130  0.18270  0.61900  1.0000 -0.4907218645
O   O4        1.0  0.21639  0.04369  0.72930  1.0000 -0.5502094905
O   O5        1.0  0.16560  0.94970  0.75530  1.0000 -0.5321337114
O   O6        1.0  0.08650  0.41300  0.93990  1.0000 -0.4339951406
O   O7        1.0  0.73220  0.70400  0.02320  1.0000 -0.5030764471
O   O8        1.0  0.33540  0.82880  0.85500  1.0000 -0.5321337114
O   O9        1.0  0.43630  0.81730  0.79860  1.0000 -0.4907218645
O   O10       1.0  0.68561  0.95631  0.17270  1.0000 -0.5502094905
O   O11       1.0  0.80560  0.05030  0.21590  1.0000 -0.5321337114
O   O12       1.0  0.52690  0.58700  0.67350  1.0000 -0.4362733791
O   O13       1.0  0.81920  0.29100  0.52320  1.0000 -0.5030764471
O   O14       1.0  0.52620  0.51960  0.35500  1.0000 -0.5321337114
O   O15       1.0  0.48130  0.36230  0.29860  1.0000 -0.4907218645
O   O16       1.0  0.71639  0.48709  0.67270  1.0000 -0.5502094905
O   O17       1.0  0.66560  0.41030  0.71590  1.0000 -0.5321337114
O   O18       1.0  0.58650  0.14660  0.17350  1.0000 -0.4362733791
O   O19       1.0  0.23220  0.70900  0.52820  1.0000 -0.5030764471
O   O20       1.0  0.83540  0.48040  0.00660  1.0000 -0.5321337114
O   O21       1.0  0.93630  0.63770  0.11900  1.0000 -0.4907218645
O   O22       1.0  0.18561  0.51291  0.22930  1.0000 -0.5502094905
O   O23       1.0  0.30560  0.58970  0.25530  1.0000 -0.5321337114
O   O24       1.0  0.02690  0.85340  0.43990  1.0000 -0.4339951406
