# DDEC6 charges by PACMAN v1.1 (https://github.com/mtap-research/PACMAN-charge/)
data_2022[Zn][nan]3[ASR]24
_chemical_formula_sum              "Zn12 H48 C78 N24 O36"
_cell_length_a       21.1351
_cell_length_b       21.1351
_cell_length_c       21.1351
_cell_angle_alpha    116.402
_cell_angle_beta     116.402
_cell_angle_gamma    116.402

_symmetry_space_group_name_H-M    "P 1"
_symmetry_Int_Tables_number       1

loop_
  _symmetry_equiv_pos_as_xyz
  'x, y, z'

loop_
  _atom_site_type_symbol
  _atom_site_label
  _atom_site_symmetry_multiplicity
  _atom_site_fract_x
  _atom_site_fract_y
  _atom_site_fract_z
  _atom_site_occupancy
  _atom_site_charge
Zn  Zn1       1.0  0.05520  0.49442  0.96892  1.0000 0.8340389558
Zn  Zn2       1.0  0.05611  0.31205  0.85935  1.0000 0.7785110899
Zn  Zn3       1.0  0.49442  0.96892  0.05520  1.0000 0.8340389558
Zn  Zn4       1.0  0.31205  0.85935  0.05611  1.0000 0.7785110899
Zn  Zn5       1.0  0.96892  0.05520  0.49442  1.0000 0.8340389558
Zn  Zn6       1.0  0.85935  0.05611  0.31205  1.0000 0.7785110899
Zn  Zn7       1.0  0.94480  0.50558  0.03108  1.0000 0.8340389558
Zn  Zn8       1.0  0.94389  0.68795  0.14065  1.0000 0.7785110899
Zn  Zn9       1.0  0.50558  0.03108  0.94480  1.0000 0.8340389558
Zn  Zn10      1.0  0.68795  0.14065  0.94389  1.0000 0.7785110899
Zn  Zn11      1.0  0.03108  0.94480  0.50558  1.0000 0.8340389558
Zn  Zn12      1.0  0.14065  0.94389  0.68795  1.0000 0.7785110899
H   H1        1.0  0.75120  0.12270  0.37330  1.0000 0.1102004762
H   H2        1.0  0.89570  0.21740  0.55650  1.0000 0.1102004762
H   H3        1.0  0.78500  0.30230  0.64110  1.0000 0.1102004762
H   H4        1.0  0.62500  0.18460  0.44840  1.0000 0.1236217845
H   H5        1.0  0.17360  0.65160  0.98080  1.0000 0.1102004762
H   H6        1.0  0.08910  0.85080  0.15170  1.0000 0.1236217845
H   H7        1.0  0.14680  0.57970  0.16650  1.0000 0.3752091655
H   H8        1.0  0.17520  0.66590  0.18990  1.0000 0.3696170441
H   H9        1.0  0.12270  0.37330  0.75120  1.0000 0.1102004762
H   H10       1.0  0.21740  0.55650  0.89570  1.0000 0.1102004762
H   H11       1.0  0.30230  0.64110  0.78500  1.0000 0.1102004762
H   H12       1.0  0.18460  0.44840  0.62500  1.0000 0.1236217845
H   H13       1.0  0.65160  0.98080  0.17360  1.0000 0.1102004762
H   H14       1.0  0.85080  0.15170  0.08910  1.0000 0.1236217845
H   H15       1.0  0.57970  0.16650  0.14680  1.0000 0.3696170441
H   H16       1.0  0.66590  0.18990  0.17520  1.0000 0.3696170441
H   H17       1.0  0.37330  0.75120  0.12270  1.0000 0.1102004762
H   H18       1.0  0.55650  0.89570  0.21740  1.0000 0.1102004762
H   H19       1.0  0.64110  0.78500  0.30230  1.0000 0.1102004762
H   H20       1.0  0.44840  0.62500  0.18460  1.0000 0.1236217845
H   H21       1.0  0.98080  0.17360  0.65160  1.0000 0.1102004762
H   H22       1.0  0.15170  0.08910  0.85080  1.0000 0.1236217845
H   H23       1.0  0.16650  0.14680  0.57970  1.0000 0.3696170441
H   H24       1.0  0.18990  0.17520  0.66590  1.0000 0.3696170441
H   H25       1.0  0.24880  0.87730  0.62670  1.0000 0.1102004762
H   H26       1.0  0.10430  0.78260  0.44350  1.0000 0.1102004762
H   H27       1.0  0.21500  0.69770  0.35890  1.0000 0.1102004762
H   H28       1.0  0.37500  0.81540  0.55160  1.0000 0.1236217845
H   H29       1.0  0.82640  0.34840  0.01920  1.0000 0.1102004762
H   H30       1.0  0.91090  0.14920  0.84830  1.0000 0.1236217845
H   H31       1.0  0.85320  0.42030  0.83350  1.0000 0.3696170441
H   H32       1.0  0.82480  0.33410  0.81010  1.0000 0.3696170441
H   H33       1.0  0.87730  0.62670  0.24880  1.0000 0.1102004762
H   H34       1.0  0.78260  0.44350  0.10430  1.0000 0.1102004762
H   H35       1.0  0.69770  0.35890  0.21500  1.0000 0.1102004762
H   H36       1.0  0.81540  0.55160  0.37500  1.0000 0.1236217845
H   H37       1.0  0.34840  0.01920  0.82640  1.0000 0.1102004762
H   H38       1.0  0.14920  0.84830  0.91090  1.0000 0.1236217845
H   H39       1.0  0.42030  0.83350  0.85320  1.0000 0.3696170441
H   H40       1.0  0.33410  0.81010  0.82480  1.0000 0.3696170441
H   H41       1.0  0.62670  0.24880  0.87730  1.0000 0.1102004762
H   H42       1.0  0.44350  0.10430  0.78260  1.0000 0.1102004762
H   H43       1.0  0.35890  0.21500  0.69770  1.0000 0.1102004762
H   H44       1.0  0.55160  0.37500  0.81540  1.0000 0.1236217845
H   H45       1.0  0.01920  0.82640  0.34840  1.0000 0.1102004762
H   H46       1.0  0.84830  0.91090  0.14920  1.0000 0.1236217845
H   H47       1.0  0.83350  0.85320  0.42030  1.0000 0.3696170441
H   H48       1.0  0.81010  0.82480  0.33410  1.0000 0.3696170441
C   C1        1.0  0.56724  0.06033  0.26683  1.0000 0.5919352152
C   C2        1.0  0.67172  0.14045  0.39213  1.0000 -0.0216893929
C   C3        1.0  0.75462  0.15408  0.42580  1.0000 -0.1070996693
C   C4        1.0  0.94401  0.32838  0.73321  1.0000 0.5919352152
C   C5        1.0  0.84268  0.21346  0.53576  1.0000 -0.1021650008
C   C6        1.0  0.85293  0.26725  0.61542  1.0000 -0.0216893929
C   C7        1.0  0.77466  0.26098  0.58476  1.0000 -0.126454512
C   C8        1.0  0.68185  0.19393  0.47162  1.0000 -0.1021650008
C   C9        1.0  0.11855  0.77494  0.08981  1.0000 -0.1829806389
C   C10       1.0  0.07835  0.67810  0.05345  1.0000 0.2915292807
C   C11       1.0  0.15879  0.68287  0.00964  1.0000 0.2771275221
C   C12       1.0  0.07735  0.79180  0.12285  1.0000 0.0314507264
C   C13       1.0  0.18484  0.82898  0.08558  1.0000 0.5039548207
C   C14       1.0  0.06033  0.26683  0.56724  1.0000 0.5919352152
C   C15       1.0  0.14045  0.39213  0.67172  1.0000 -0.0216893929
C   C16       1.0  0.15408  0.42580  0.75462  1.0000 -0.1070996693
C   C17       1.0  0.32838  0.73321  0.94401  1.0000 0.5919352152
C   C18       1.0  0.21346  0.53576  0.84268  1.0000 -0.1021650008
C   C19       1.0  0.26725  0.61542  0.85293  1.0000 -0.0216893929
C   C20       1.0  0.26098  0.58476  0.77466  1.0000 -0.126454512
C   C21       1.0  0.19393  0.47162  0.68185  1.0000 -0.1021650008
C   C22       1.0  0.77494  0.08981  0.11855  1.0000 -0.1829806389
C   C23       1.0  0.67810  0.05345  0.07835  1.0000 0.2915292807
C   C24       1.0  0.68287  0.00964  0.15879  1.0000 0.2771275221
C   C25       1.0  0.79180  0.12285  0.07735  1.0000 0.0314507264
C   C26       1.0  0.82898  0.08558  0.18484  1.0000 0.5039548207
C   C27       1.0  0.26683  0.56724  0.06033  1.0000 0.5919352152
C   C28       1.0  0.39213  0.67172  0.14045  1.0000 -0.0216893929
C   C29       1.0  0.42580  0.75462  0.15408  1.0000 -0.1070996693
C   C30       1.0  0.73321  0.94401  0.32838  1.0000 0.5919352152
C   C31       1.0  0.53576  0.84268  0.21346  1.0000 -0.1021650008
C   C32       1.0  0.61542  0.85293  0.26725  1.0000 -0.0216893929
C   C33       1.0  0.58476  0.77466  0.26098  1.0000 -0.126454512
C   C34       1.0  0.47162  0.68185  0.19393  1.0000 -0.1021650008
C   C35       1.0  0.08981  0.11855  0.77494  1.0000 -0.1829806389
C   C36       1.0  0.05345  0.07835  0.67810  1.0000 0.2915292807
C   C37       1.0  0.00964  0.15879  0.68287  1.0000 0.2771275221
C   C38       1.0  0.12285  0.07735  0.79180  1.0000 0.0314507264
C   C39       1.0  0.08558  0.18484  0.82898  1.0000 0.5039548207
C   C40       1.0  0.43276  0.93967  0.73317  1.0000 0.5919352152
C   C41       1.0  0.32828  0.85955  0.60787  1.0000 -0.0216893929
C   C42       1.0  0.24538  0.84592  0.57420  1.0000 -0.1070996693
C   C43       1.0  0.05599  0.67162  0.26679  1.0000 0.5919352152
C   C44       1.0  0.15732  0.78654  0.46424  1.0000 -0.1021650008
C   C45       1.0  0.14707  0.73275  0.38458  1.0000 -0.0216893929
C   C46       1.0  0.22534  0.73902  0.41524  1.0000 -0.126454512
C   C47       1.0  0.31815  0.80607  0.52838  1.0000 -0.1021650008
C   C48       1.0  0.88145  0.22506  0.91019  1.0000 -0.1829806389
C   C49       1.0  0.92165  0.32190  0.94655  1.0000 0.2915292807
C   C50       1.0  0.84121  0.31713  0.99036  1.0000 0.2771275221
C   C51       1.0  0.92265  0.20820  0.87715  1.0000 0.0314507264
C   C52       1.0  0.81516  0.17102  0.91442  1.0000 0.5039548207
C   C53       1.0  0.93967  0.73317  0.43276  1.0000 0.5919352152
C   C54       1.0  0.85955  0.60787  0.32828  1.0000 -0.0216893929
C   C55       1.0  0.84592  0.57420  0.24538  1.0000 -0.1070996693
C   C56       1.0  0.67162  0.26679  0.05599  1.0000 0.5919352152
C   C57       1.0  0.78654  0.46424  0.15732  1.0000 -0.1021650008
C   C58       1.0  0.73275  0.38458  0.14707  1.0000 -0.0216893929
C   C59       1.0  0.73902  0.41524  0.22534  1.0000 -0.126454512
C   C60       1.0  0.80607  0.52838  0.31815  1.0000 -0.1021650008
C   C61       1.0  0.22506  0.91019  0.88145  1.0000 -0.1829806389
C   C62       1.0  0.32190  0.94655  0.92165  1.0000 0.2915292807
C   C63       1.0  0.31713  0.99036  0.84121  1.0000 0.2771275221
C   C64       1.0  0.20820  0.87715  0.92265  1.0000 0.0314507264
C   C65       1.0  0.17102  0.91442  0.81516  1.0000 0.5039548207
C   C66       1.0  0.73317  0.43276  0.93967  1.0000 0.5919352152
C   C67       1.0  0.60787  0.32828  0.85955  1.0000 -0.0216893929
C   C68       1.0  0.57420  0.24538  0.84592  1.0000 -0.1070996693
C   C69       1.0  0.26679  0.05599  0.67162  1.0000 0.5919352152
C   C70       1.0  0.46424  0.15732  0.78654  1.0000 -0.1021650008
C   C71       1.0  0.38458  0.14707  0.73275  1.0000 -0.0216893929
C   C72       1.0  0.41524  0.22534  0.73902  1.0000 -0.126454512
C   C73       1.0  0.52838  0.31815  0.80607  1.0000 -0.1021650008
C   C74       1.0  0.91019  0.88145  0.22506  1.0000 -0.1829806389
C   C75       1.0  0.94655  0.92165  0.32190  1.0000 0.2915292807
C   C76       1.0  0.99036  0.84121  0.31713  1.0000 0.2771275221
C   C77       1.0  0.87715  0.92265  0.20820  1.0000 0.0314507264
C   C78       1.0  0.91442  0.81516  0.17102  1.0000 0.5039548207
N   N1        1.0  0.01924  0.71201  0.10745  1.0000 -0.1829806389
N   N2        1.0  0.01852  0.63984  0.06364  1.0000 -0.3475650819
N   N3        1.0  0.20190  0.77622  0.04298  1.0000 -0.4396498126
N   N4        1.0  0.09841  0.62978  0.01241  1.0000 -0.4012645207
N   N5        1.0  0.71201  0.10745  0.01924  1.0000 -0.1829806389
N   N6        1.0  0.63984  0.06364  0.01852  1.0000 -0.3475650819
N   N7        1.0  0.77622  0.04298  0.20190  1.0000 -0.4396498126
N   N8        1.0  0.62978  0.01241  0.09841  1.0000 -0.4012645207
N   N9        1.0  0.10745  0.01924  0.71201  1.0000 -0.1829806389
N   N10       1.0  0.06364  0.01852  0.63984  1.0000 -0.3475650819
N   N11       1.0  0.04298  0.20190  0.77622  1.0000 -0.4396498126
N   N12       1.0  0.01241  0.09841  0.62978  1.0000 -0.4012645207
N   N13       1.0  0.98076  0.28799  0.89255  1.0000 -0.1829806389
N   N14       1.0  0.98148  0.36016  0.93636  1.0000 -0.3475650819
N   N15       1.0  0.79810  0.22378  0.95702  1.0000 -0.4396498126
N   N16       1.0  0.90159  0.37022  0.98759  1.0000 -0.4012645207
N   N17       1.0  0.28799  0.89255  0.98076  1.0000 -0.1829806389
N   N18       1.0  0.36016  0.93636  0.98148  1.0000 -0.3475650819
N   N19       1.0  0.22378  0.95702  0.79810  1.0000 -0.4396498126
N   N20       1.0  0.37022  0.98759  0.90159  1.0000 -0.4012645207
N   N21       1.0  0.89255  0.98076  0.28799  1.0000 -0.1829806389
N   N22       1.0  0.93636  0.98148  0.36016  1.0000 -0.3475650819
N   N23       1.0  0.95702  0.79810  0.22378  1.0000 -0.4396498126
N   N24       1.0  0.98759  0.90159  0.37022  1.0000 -0.4012645207
O   O1        1.0  0.58298  0.05554  0.21538  1.0000 -0.553326445
O   O2        1.0  0.47121  0.00213  0.22336  1.0000 -0.5274141601
O   O3        1.0  0.98096  0.41115  0.81479  1.0000 -0.5566884251
O   O4        1.0  0.97486  0.28970  0.73984  1.0000 -0.5407422951
O   O5        1.0  0.22601  0.91433  0.11476  1.0000 -0.4862091017
O   O6        1.0  0.12582  0.59532  0.13286  1.0000 -0.6296461991
O   O7        1.0  0.05554  0.21538  0.58298  1.0000 -0.553326445
O   O8        1.0  0.00213  0.22336  0.47121  1.0000 -0.5274141601
O   O9        1.0  0.41115  0.81479  0.98096  1.0000 -0.5566884251
O   O10       1.0  0.28970  0.73984  0.97486  1.0000 -0.5407422951
O   O11       1.0  0.91433  0.11476  0.22601  1.0000 -0.4841373435
O   O12       1.0  0.59532  0.13286  0.12582  1.0000 -0.6296461991
O   O13       1.0  0.21538  0.58298  0.05554  1.0000 -0.553326445
O   O14       1.0  0.22336  0.47121  0.00213  1.0000 -0.5274141601
O   O15       1.0  0.81479  0.98096  0.41115  1.0000 -0.5566884251
O   O16       1.0  0.73984  0.97486  0.28970  1.0000 -0.5407422951
O   O17       1.0  0.11476  0.22601  0.91433  1.0000 -0.4862091017
O   O18       1.0  0.13286  0.12582  0.59532  1.0000 -0.6296461991
O   O19       1.0  0.41702  0.94446  0.78462  1.0000 -0.553326445
O   O20       1.0  0.52879  0.99787  0.77664  1.0000 -0.5274141601
O   O21       1.0  0.01904  0.58885  0.18521  1.0000 -0.5566884251
O   O22       1.0  0.02514  0.71030  0.26016  1.0000 -0.5407422951
O   O23       1.0  0.77399  0.08567  0.88524  1.0000 -0.4862091017
O   O24       1.0  0.87418  0.40468  0.86714  1.0000 -0.6296461991
O   O25       1.0  0.94446  0.78462  0.41702  1.0000 -0.553326445
O   O26       1.0  0.99787  0.77664  0.52879  1.0000 -0.5274141601
O   O27       1.0  0.58885  0.18521  0.01904  1.0000 -0.5566884251
O   O28       1.0  0.71030  0.26016  0.02514  1.0000 -0.5407422951
O   O29       1.0  0.08567  0.88524  0.77399  1.0000 -0.4841373435
O   O30       1.0  0.40468  0.86714  0.87418  1.0000 -0.6296461991
O   O31       1.0  0.78462  0.41702  0.94446  1.0000 -0.553326445
O   O32       1.0  0.77664  0.52879  0.99787  1.0000 -0.5274141601
O   O33       1.0  0.18521  0.01904  0.58885  1.0000 -0.5566884251
O   O34       1.0  0.26016  0.02514  0.71030  1.0000 -0.5407422951
O   O35       1.0  0.88524  0.77399  0.08567  1.0000 -0.4841373435
O   O36       1.0  0.86714  0.87418  0.40468  1.0000 -0.6296461991
