# DDEC6 charges by PACMAN v1.1 (https://github.com/mtap-research/PACMAN-charge/)
data_2022[Sm][ant]3[ASR]1
_chemical_formula_sum              "Sm2 H28 C44 N26 O14"
_cell_length_a       12.5858
_cell_length_b       12.5858
_cell_length_c       10.8451
_cell_angle_alpha    64.4802
_cell_angle_beta     115.52
_cell_angle_gamma    114.23

_symmetry_space_group_name_H-M    "P 1"
_symmetry_Int_Tables_number       1

loop_
  _symmetry_equiv_pos_as_xyz
  'x, y, z'

loop_
  _atom_site_type_symbol
  _atom_site_label
  _atom_site_symmetry_multiplicity
  _atom_site_fract_x
  _atom_site_fract_y
  _atom_site_fract_z
  _atom_site_occupancy
  _atom_site_charge
Sm  Sm1       1.0  0.53946  0.53946  0.75000  1.0000 1.9874222632
Sm  Sm2       1.0  0.46054  0.46054  0.25000  1.0000 1.9874222632
H   H1        1.0  0.26341  0.61341  0.55531  1.0000 0.1372427561
H   H2        1.0  0.94738  0.68970  0.27569  1.0000 0.1372427561
H   H3        1.0  0.14323  0.58553  0.15841  1.0000 0.1321643814
H   H4        1.0  0.12128  0.65890  0.83541  1.0000 0.0984016936
H   H5        1.0  0.99246  0.80800  0.42885  1.0000 0.1204405259
H   H6        1.0  0.85137  0.68045  0.74699  1.0000 0.1119532566
H   H7        1.0  0.77764  0.58664  0.09761  1.0000 0.1321643814
H   H8        1.0  0.61341  0.26341  0.94469  1.0000 0.1372427561
H   H9        1.0  0.68970  0.94738  0.22431  1.0000 0.1372427561
H   H10       1.0  0.58553  0.14323  0.34159  1.0000 0.1321643814
H   H11       1.0  0.65890  0.12128  0.66459  1.0000 0.0984016936
H   H12       1.0  0.80800  0.99246  0.07115  1.0000 0.1204405259
H   H13       1.0  0.68045  0.85137  0.75301  1.0000 0.1119532566
H   H14       1.0  0.58664  0.77764  0.40239  1.0000 0.1321643814
H   H15       1.0  0.73659  0.38659  0.44469  1.0000 0.1372427561
H   H16       1.0  0.05262  0.31030  0.72431  1.0000 0.1372427561
H   H17       1.0  0.85677  0.41447  0.84159  1.0000 0.1321643814
H   H18       1.0  0.87872  0.34110  0.16459  1.0000 0.0984016936
H   H19       1.0  0.00754  0.19200  0.57115  1.0000 0.1204405259
H   H20       1.0  0.14863  0.31955  0.25301  1.0000 0.1119532566
H   H21       1.0  0.22236  0.41336  0.90239  1.0000 0.1321643814
H   H22       1.0  0.38659  0.73659  0.05531  1.0000 0.1372427561
H   H23       1.0  0.31030  0.05262  0.77569  1.0000 0.1372427561
H   H24       1.0  0.41447  0.85677  0.65841  1.0000 0.1321643814
H   H25       1.0  0.34110  0.87872  0.33541  1.0000 0.0984016936
H   H26       1.0  0.19200  0.00754  0.92885  1.0000 0.1204405259
H   H27       1.0  0.31955  0.14863  0.24699  1.0000 0.1119532566
H   H28       1.0  0.41336  0.22236  0.59761  1.0000 0.1321643814
C   C1        1.0  0.22102  0.59358  0.36242  1.0000 0.0010905121
C   C2        1.0  0.20549  0.61971  0.46479  1.0000 -0.2024863307
C   C3        1.0  0.10354  0.65506  0.43114  1.0000 0.159748936
C   C4        1.0  0.01572  0.66548  0.29772  1.0000 -0.2563345899
C   C5        1.0  0.03324  0.63836  0.19764  1.0000 0.159748936
C   C6        1.0  0.13367  0.60293  0.22747  1.0000 -0.1899028514
C   C7        1.0  0.33489  0.55911  0.39659  1.0000 0.6646702643
C   C8        1.0  0.10190  0.67850  0.73660  1.0000 0.1372427561
C   C9        1.0  0.03130  0.76010  0.51760  1.0000 0.1119532566
C   C10       1.0  0.86150  0.66330  0.84320  1.0000 0.159748936
C   C11       1.0  0.81830  0.61230  0.03130  1.0000 0.1204405259
C   C12       1.0  0.59358  0.22102  0.13758  1.0000 0.0010905121
C   C13       1.0  0.61971  0.20549  0.03521  1.0000 -0.2024863307
C   C14       1.0  0.65506  0.10354  0.06886  1.0000 0.159748936
C   C15       1.0  0.66548  0.01572  0.20228  1.0000 -0.2563345899
C   C16       1.0  0.63836  0.03324  0.30236  1.0000 0.159748936
C   C17       1.0  0.60293  0.13367  0.27253  1.0000 -0.1899028514
C   C18       1.0  0.55911  0.33489  0.10341  1.0000 0.6646702643
C   C19       1.0  0.67850  0.10190  0.76340  1.0000 0.1372427561
C   C20       1.0  0.76010  0.03130  0.98240  1.0000 0.1119532566
C   C21       1.0  0.66330  0.86150  0.65680  1.0000 0.159748936
C   C22       1.0  0.61230  0.81830  0.46870  1.0000 0.1204405259
C   C23       1.0  0.77898  0.40642  0.63758  1.0000 0.0010905121
C   C24       1.0  0.79451  0.38029  0.53521  1.0000 -0.2024863307
C   C25       1.0  0.89646  0.34494  0.56886  1.0000 0.159748936
C   C26       1.0  0.98428  0.33452  0.70228  1.0000 -0.2563345899
C   C27       1.0  0.96676  0.36164  0.80236  1.0000 0.159748936
C   C28       1.0  0.86633  0.39707  0.77253  1.0000 -0.1899028514
C   C29       1.0  0.66511  0.44089  0.60341  1.0000 0.6646702643
C   C30       1.0  0.89810  0.32150  0.26340  1.0000 0.1372427561
C   C31       1.0  0.96870  0.23990  0.48240  1.0000 0.1119532566
C   C32       1.0  0.13850  0.33670  0.15680  1.0000 0.159748936
C   C33       1.0  0.18170  0.38770  0.96870  1.0000 0.1204405259
C   C34       1.0  0.40642  0.77898  0.86242  1.0000 0.0010905121
C   C35       1.0  0.38029  0.79451  0.96479  1.0000 -0.2024863307
C   C36       1.0  0.34494  0.89646  0.93114  1.0000 0.159748936
C   C37       1.0  0.33452  0.98428  0.79772  1.0000 -0.2563345899
C   C38       1.0  0.36164  0.96676  0.69764  1.0000 0.159748936
C   C39       1.0  0.39707  0.86633  0.72747  1.0000 -0.1899028514
C   C40       1.0  0.44089  0.66511  0.89659  1.0000 0.6646702643
C   C41       1.0  0.32150  0.89810  0.23660  1.0000 0.1372427561
C   C42       1.0  0.23990  0.96870  0.01760  1.0000 0.1119532566
C   C43       1.0  0.33670  0.13850  0.34320  1.0000 0.159748936
C   C44       1.0  0.38770  0.18170  0.53130  1.0000 0.1204405259
N   N1        1.0  0.08801  0.68359  0.53561  1.0000 0.1204405259
N   N2        1.0  0.13563  0.62897  0.67923  1.0000 -0.2535691169
N   N3        1.0  0.03750  0.75910  0.64260  1.0000 -0.3415913079
N   N4        1.0  0.94049  0.64291  0.06199  1.0000 0.1204405259
N   N5        1.0  0.96874  0.67486  0.93984  1.0000 -0.2535691169
N   N6        1.0  0.76475  0.62425  0.89305  1.0000 -0.4444453264
N   N7        1.0  0.68359  0.08801  0.96439  1.0000 0.1204405259
N   N8        1.0  0.62897  0.13563  0.82077  1.0000 -0.2535691169
N   N9        1.0  0.75910  0.03750  0.85740  1.0000 -0.3415913079
N   N10       1.0  0.64291  0.94049  0.43801  1.0000 0.1204405259
N   N11       1.0  0.67486  0.96874  0.56016  1.0000 -0.2535691169
N   N12       1.0  0.62425  0.76475  0.60695  1.0000 -0.4461063389
N   N13       1.0  0.91199  0.31641  0.46439  1.0000 0.1204405259
N   N14       1.0  0.86437  0.37103  0.32077  1.0000 -0.2535691169
N   N15       1.0  0.96250  0.24090  0.35740  1.0000 -0.3415913079
N   N16       1.0  0.05951  0.35709  0.93801  1.0000 0.1204405259
N   N17       1.0  0.03126  0.32514  0.06016  1.0000 -0.2535691169
N   N18       1.0  0.23525  0.37575  0.10695  1.0000 -0.4444453264
N   N19       1.0  0.31641  0.91199  0.03561  1.0000 0.1204405259
N   N20       1.0  0.37103  0.86437  0.17923  1.0000 -0.2535691169
N   N21       1.0  0.24090  0.96250  0.14260  1.0000 -0.3415913079
N   N22       1.0  0.35709  0.05951  0.56199  1.0000 0.1204405259
N   N23       1.0  0.32514  0.03126  0.43984  1.0000 -0.2535691169
N   N24       1.0  0.37575  0.23525  0.39305  1.0000 -0.4444453264
N   N25       1.0  0.32310  0.32310  0.75000  1.0000 0.7057129498
N   N26       1.0  0.67690  0.67690  0.25000  1.0000 0.7057129498
O   O1        1.0  0.41727  0.56897  0.51115  1.0000 -0.6718661432
O   O2        1.0  0.34006  0.52556  0.30665  1.0000 -0.6616364364
O   O3        1.0  0.41825  0.32447  0.73609  1.0000 -0.4906463046
O   O4        1.0  0.56897  0.41727  0.98885  1.0000 -0.6718661432
O   O5        1.0  0.52556  0.34006  0.19335  1.0000 -0.6616364364
O   O6        1.0  0.32447  0.41825  0.76391  1.0000 -0.4906463046
O   O7        1.0  0.58273  0.43103  0.48885  1.0000 -0.6718661432
O   O8        1.0  0.65994  0.47444  0.69335  1.0000 -0.6616364364
O   O9        1.0  0.58175  0.67553  0.26391  1.0000 -0.4906463046
O   O10       1.0  0.43103  0.58273  0.01115  1.0000 -0.6718661432
O   O11       1.0  0.47444  0.65994  0.80665  1.0000 -0.6616364364
O   O12       1.0  0.67553  0.58175  0.23609  1.0000 -0.4906463046
O   O13       1.0  0.23330  0.23330  0.75000  1.0000 -0.4104795103
O   O14       1.0  0.76670  0.76670  0.25000  1.0000 -0.4104795103
