# DDEC6 charges by PACMAN v1.1 (https://github.com/mtap-research/PACMAN-charge/)
data_2023[Zn][sql]2[ASR]10
_chemical_formula_sum              "Zn2 H36 C60 N8 O8"
_cell_length_a       6.823
_cell_length_b       12.76
_cell_length_c       17.016
_cell_angle_alpha    108.137
_cell_angle_beta     98.022
_cell_angle_gamma    90.263

_symmetry_space_group_name_H-M    "P 1"
_symmetry_Int_Tables_number       1

loop_
  _symmetry_equiv_pos_as_xyz
  'x, y, z'

loop_
  _atom_site_type_symbol
  _atom_site_label
  _atom_site_symmetry_multiplicity
  _atom_site_fract_x
  _atom_site_fract_y
  _atom_site_fract_z
  _atom_site_occupancy
  _atom_site_charge
Zn  Zn1       1.0  0.79962  0.98977  0.80200  1.0000 0.7439338185
Zn  Zn2       1.0  0.20038  0.01023  0.19800  1.0000 0.7439338185
H   H1        1.0  0.37514  0.05003  0.80059  1.0000 0.1104204833
H   H2        1.0  0.62486  0.94997  0.19941  1.0000 0.1104204833
H   H3        1.0  0.24593  0.86377  0.95273  1.0000 0.130033147
H   H4        1.0  0.75407  0.13623  0.04727  1.0000 0.130033147
H   H5        1.0  0.44737  0.17299  0.98666  1.0000 0.1104204833
H   H6        1.0  0.55263  0.82701  0.01334  1.0000 0.1104204833
H   H7        1.0  0.61194  0.63652  0.84344  1.0000 0.1397305644
H   H8        1.0  0.38806  0.36348  0.15656  1.0000 0.1397305644
H   H9        1.0  0.66073  0.96689  0.48694  1.0000 0.1190869074
H   H10       1.0  0.33927  0.03311  0.51306  1.0000 0.1190869074
H   H11       1.0  0.18493  0.18213  0.76949  1.0000 0.1397305644
H   H12       1.0  0.81507  0.81787  0.23051  1.0000 0.1397305644
H   H13       1.0  0.79917  0.98329  0.37466  1.0000 0.1190869074
H   H14       1.0  0.20083  0.01671  0.62534  1.0000 0.1190869074
H   H15       1.0  0.78890  0.79831  0.86361  1.0000 0.1190869074
H   H16       1.0  0.21110  0.20169  0.13639  1.0000 0.1190869074
H   H17       1.0  0.05585  0.26942  0.68375  1.0000 0.1190869074
H   H18       1.0  0.94415  0.73058  0.31625  1.0000 0.1190869074
H   H19       1.0  0.02693  0.58002  0.67581  1.0000 0.130033147
H   H20       1.0  0.97307  0.41998  0.32419  1.0000 0.130033147
H   H21       1.0  0.85937  0.22985  0.82847  1.0000 0.1190869074
H   H22       1.0  0.14063  0.77015  0.17153  1.0000 0.1190869074
H   H23       1.0  0.21507  0.71733  0.67746  1.0000 0.1397305644
H   H24       1.0  0.78493  0.28267  0.32254  1.0000 0.1397305644
H   H25       1.0  0.69473  0.53868  0.65689  1.0000 0.1190869074
H   H26       1.0  0.30527  0.46132  0.34311  1.0000 0.1190869074
H   H27       1.0  0.41063  0.87281  0.69734  1.0000 0.1190869074
H   H28       1.0  0.58937  0.12719  0.30266  1.0000 0.1190869074
H   H29       1.0  0.68214  0.36791  0.79694  1.0000 0.1397305644
H   H30       1.0  0.31786  0.63209  0.20306  1.0000 0.1397305644
H   H31       1.0  0.38932  0.49322  0.57349  1.0000 0.1190869074
H   H32       1.0  0.61068  0.50678  0.42651  1.0000 0.1190869074
H   H33       1.0  0.85896  0.22942  0.55641  1.0000 0.1190869074
H   H34       1.0  0.14104  0.77058  0.44359  1.0000 0.1190869074
H   H35       1.0  0.55300  0.18307  0.47362  1.0000 0.130033147
H   H36       1.0  0.44700  0.81693  0.52638  1.0000 0.130033147
C   C1        1.0  0.91600  0.99090  0.56880  1.0000 -0.0272205862
C   C2        1.0  0.08400  0.00910  0.43120  1.0000 -0.0272205862
C   C3        1.0  0.39190  0.65670  0.75710  1.0000 0.0982470011
C   C4        1.0  0.60810  0.34330  0.24290  1.0000 0.0982470011
C   C5        1.0  0.12070  0.04440  0.91960  1.0000 0.5509691454
C   C6        1.0  0.87930  0.95560  0.08040  1.0000 0.5509691454
C   C7        1.0  0.43730  0.11400  0.79860  1.0000 0.0982470011
C   C8        1.0  0.56270  0.88600  0.20140  1.0000 0.0982470011
C   C9        1.0  0.31620  0.02140  0.96280  1.0000 -0.0272205862
C   C10       1.0  0.68380  0.97860  0.03720  1.0000 -0.0272205862
C   C11       1.0  0.34760  0.91840  0.97150  1.0000 -0.1125122516
C   C12       1.0  0.65240  0.08160  0.02850  1.0000 -0.1125122516
C   C13       1.0  0.82360  0.98280  0.64230  1.0000 0.5509691454
C   C14       1.0  0.17640  0.01720  0.35770  1.0000 0.5509691454
C   C15       1.0  0.46870  0.10340  0.99190  1.0000 -0.1209245257
C   C16       1.0  0.53130  0.89660  0.00810  1.0000 -0.1209245257
C   C17       1.0  0.28140  0.54810  0.73930  1.0000 0.2016255922
C   C18       1.0  0.71860  0.45190  0.26070  1.0000 0.2016255922
C   C19       1.0  0.56700  0.68370  0.81350  1.0000 -0.1826317765
C   C20       1.0  0.43300  0.31630  0.18650  1.0000 -0.1826317765
C   C21       1.0  0.29520  0.37140  0.74690  1.0000 0.2067026413
C   C22       1.0  0.70480  0.62860  0.25310  1.0000 0.2067026413
C   C23       1.0  0.79680  0.98040  0.49240  1.0000 -0.1125122516
C   C24       1.0  0.20320  0.01960  0.50760  1.0000 -0.1125122516
C   C25       1.0  0.32220  0.19270  0.77960  1.0000 -0.1707185776
C   C26       1.0  0.67780  0.80730  0.22040  1.0000 -0.1707185776
C   C27       1.0  0.80800  0.38870  0.61610  1.0000 0.0821323821
C   C28       1.0  0.19200  0.61130  0.38390  1.0000 0.0821323821
C   C29       1.0  0.88030  0.98990  0.42480  1.0000 -0.1209245257
C   C30       1.0  0.11970  0.01010  0.57520  1.0000 -0.1209245257
C   C31       1.0  0.41160  0.28870  0.77540  1.0000 0.0982470011
C   C32       1.0  0.58840  0.71130  0.22460  1.0000 0.0982470011
C   C33       1.0  0.67370  0.78100  0.82480  1.0000 0.0982470011
C   C34       1.0  0.32630  0.21900  0.17520  1.0000 0.0982470011
C   C35       1.0  0.00470  0.41910  0.67000  1.0000 0.1190869074
C   C36       1.0  0.99530  0.58090  0.33000  1.0000 0.1190869074
C   C37       1.0  0.10910  0.34120  0.69770  1.0000 -0.2282268551
C   C38       1.0  0.89090  0.65880  0.30230  1.0000 -0.2282268551
C   C39       1.0  0.09320  0.52510  0.69230  1.0000 -0.2282268551
C   C40       1.0  0.90680  0.47490  0.30770  1.0000 -0.2282268551
C   C41       1.0  0.44230  0.33430  0.51520  1.0000 0.0475228272
C   C42       1.0  0.55770  0.66570  0.48480  1.0000 0.0475228272
C   C43       1.0  0.72230  0.22000  0.81490  1.0000 0.0821323821
C   C44       1.0  0.27770  0.78000  0.18510  1.0000 0.0821323821
C   C45       1.0  0.33290  0.73100  0.71460  1.0000 -0.1826317765
C   C46       1.0  0.66710  0.26900  0.28540  1.0000 -0.1826317765
C   C47       1.0  0.66650  0.46740  0.62020  1.0000 -0.1465135746
C   C48       1.0  0.33350  0.53260  0.37980  1.0000 -0.1465135746
C   C49       1.0  0.45010  0.82530  0.72770  1.0000 0.0821323821
C   C50       1.0  0.54990  0.17470  0.27230  1.0000 0.0821323821
C   C51       1.0  0.61710  0.30320  0.79600  1.0000 -0.1707185776
C   C52       1.0  0.38290  0.69680  0.20400  1.0000 -0.1707185776
C   C53       1.0  0.48390  0.44040  0.57020  1.0000 -0.1290059023
C   C54       1.0  0.51610  0.55960  0.42980  1.0000 -0.1290059023
C   C55       1.0  0.76420  0.28220  0.56010  1.0000 -0.1290059023
C   C56       1.0  0.23580  0.71780  0.43990  1.0000 -0.1290059023
C   C57       1.0  0.58190  0.25440  0.51010  1.0000 -0.1125122516
C   C58       1.0  0.41810  0.74560  0.48990  1.0000 -0.1125122516
C   C59       1.0  0.25190  0.30910  0.46130  1.0000 0.2646581746
C   C60       1.0  0.74810  0.69090  0.53870  1.0000 0.2646581746
N   N1        1.0  0.61890  0.85140  0.78262  1.0000 -0.2351114535
N   N2        1.0  0.38110  0.14860  0.21738  1.0000 -0.2282268551
N   N3        1.0  0.63450  0.12470  0.81453  1.0000 -0.2282268551
N   N4        1.0  0.36550  0.87530  0.18547  1.0000 -0.2282268551
N   N5        1.0  0.38030  0.47320  0.76708  1.0000 -0.33697524
N   N6        1.0  0.61970  0.52680  0.23292  1.0000 -0.33697524
N   N7        1.0  0.10570  0.29190  0.41890  1.0000 -0.3579548233
N   N8        1.0  0.89430  0.70810  0.58110  1.0000 -0.3579548233
O   O1        1.0  0.99930  0.96130  0.88486  1.0000 -0.5497085734
O   O2        1.0  0.00070  0.03870  0.11514  1.0000 -0.5497085734
O   O3        1.0  0.94340  0.99550  0.71053  1.0000 -0.5497085734
O   O4        1.0  0.05660  0.00450  0.28947  1.0000 -0.5497085734
O   O5        1.0  0.64240  0.96560  0.63466  1.0000 -0.5610396646
O   O6        1.0  0.35760  0.03440  0.36534  1.0000 -0.5610396646
O   O7        1.0  0.09110  0.13790  0.91555  1.0000 -0.5497085734
O   O8        1.0  0.90890  0.86210  0.08445  1.0000 -0.5497085734
