# DDEC6 charges by PACMAN v1.1 (https://github.com/mtap-research/PACMAN-charge/)
data_2023[Cd][sql]2[ASR]5
_chemical_formula_sum              "Cd4 H64 C80 S4 N16 O16"
_cell_length_a       10.507
_cell_length_b       11.686
_cell_length_c       22.3363
_cell_angle_alpha    90
_cell_angle_beta     115.806
_cell_angle_gamma    90

_symmetry_space_group_name_H-M    "P 1"
_symmetry_Int_Tables_number       1

loop_
  _symmetry_equiv_pos_as_xyz
  'x, y, z'

loop_
  _atom_site_type_symbol
  _atom_site_label
  _atom_site_symmetry_multiplicity
  _atom_site_fract_x
  _atom_site_fract_y
  _atom_site_fract_z
  _atom_site_occupancy
  _atom_site_charge
Cd  Cd1       1.0  0.45874  0.92643  0.30840  1.0000 0.8454132958
Cd  Cd2       1.0  0.45874  0.57357  0.80840  1.0000 0.8454132958
Cd  Cd3       1.0  0.54126  0.42643  0.19160  1.0000 0.8454132958
Cd  Cd4       1.0  0.54126  0.07357  0.69160  1.0000 0.8454132958
H   H1        1.0  0.56570  0.64510  0.59300  1.0000 0.1204327049
H   H2        1.0  0.56570  0.85490  0.09300  1.0000 0.1204327049
H   H3        1.0  0.79490  0.36350  0.60160  1.0000 0.1204327049
H   H4        1.0  0.79490  0.13650  0.10160  1.0000 0.1204327049
H   H5        1.0  0.97390  0.47680  0.60420  1.0000 0.1204327049
H   H6        1.0  0.97390  0.02320  0.10420  1.0000 0.1204327049
H   H7        1.0  0.94720  0.67370  0.59520  1.0000 0.1204327049
H   H8        1.0  0.94720  0.82630  0.09520  1.0000 0.1204327049
H   H9        1.0  0.82260  0.84000  0.59200  1.0000 0.1300453453
H   H10       1.0  0.82260  0.66000  0.09200  1.0000 0.1300453453
H   H11       1.0  0.71400  0.83470  0.62280  1.0000 0.1363939776
H   H12       1.0  0.71400  0.66530  0.12280  1.0000 0.1363939776
H   H13       1.0  0.71900  0.85820  0.46220  1.0000 0.1204327049
H   H14       1.0  0.71900  0.64180  0.96220  1.0000 0.1204327049
H   H15       1.0  0.31760  0.89550  0.42020  1.0000 0.1300453453
H   H16       1.0  0.31760  0.60450  0.92020  1.0000 0.1300453453
H   H17       1.0  0.44060  0.84510  0.53710  1.0000 0.1300453453
H   H18       1.0  0.44060  0.65490  0.03710  1.0000 0.1300453453
H   H19       1.0  0.58160  0.34060  0.61400  1.0000 0.1300453453
H   H20       1.0  0.58160  0.15940  0.11400  1.0000 0.1300453453
H   H21       1.0  0.47830  0.39420  0.54570  1.0000 0.1108649506
H   H22       1.0  0.47830  0.10580  0.04570  1.0000 0.1108649506
H   H23       1.0  0.58070  0.43460  0.71920  1.0000 0.1300453453
H   H24       1.0  0.58070  0.06540  0.21920  1.0000 0.1300453453
H   H25       1.0  0.22300  0.59600  0.63930  1.0000 0.1204327049
H   H26       1.0  0.22300  0.90400  0.13930  1.0000 0.1204327049
H   H27       1.0  0.27400  0.52640  0.54840  1.0000 0.1204327049
H   H28       1.0  0.27400  0.97360  0.04840  1.0000 0.1204327049
H   H29       1.0  0.02270  0.64950  0.24960  1.0000 0.1204327049
H   H30       1.0  0.02270  0.85050  0.74960  1.0000 0.1204327049
H   H31       1.0  0.80100  0.64430  0.26030  1.0000 0.1300453453
H   H32       1.0  0.80100  0.85570  0.76030  1.0000 0.1300453453
H   H33       1.0  0.43430  0.14510  0.90700  1.0000 0.1204327049
H   H34       1.0  0.43430  0.35490  0.40700  1.0000 0.1204327049
H   H35       1.0  0.20510  0.86350  0.89840  1.0000 0.1204327049
H   H36       1.0  0.20510  0.63650  0.39840  1.0000 0.1204327049
H   H37       1.0  0.02610  0.97680  0.89580  1.0000 0.1204327049
H   H38       1.0  0.02610  0.52320  0.39580  1.0000 0.1204327049
H   H39       1.0  0.05280  0.17370  0.90480  1.0000 0.1204327049
H   H40       1.0  0.05280  0.32630  0.40480  1.0000 0.1204327049
H   H41       1.0  0.17740  0.34000  0.90800  1.0000 0.1300453453
H   H42       1.0  0.17740  0.16000  0.40800  1.0000 0.1300453453
H   H43       1.0  0.28600  0.33470  0.87720  1.0000 0.1363939776
H   H44       1.0  0.28600  0.16530  0.37720  1.0000 0.1363939776
H   H45       1.0  0.28100  0.35820  0.03780  1.0000 0.1204327049
H   H46       1.0  0.28100  0.14180  0.53780  1.0000 0.1204327049
H   H47       1.0  0.68240  0.39550  0.07980  1.0000 0.1300453453
H   H48       1.0  0.68240  0.10450  0.57980  1.0000 0.1300453453
H   H49       1.0  0.55940  0.34510  0.96290  1.0000 0.1300453453
H   H50       1.0  0.55940  0.15490  0.46290  1.0000 0.1300453453
H   H51       1.0  0.41840  0.84060  0.88600  1.0000 0.1300453453
H   H52       1.0  0.41840  0.65940  0.38600  1.0000 0.1300453453
H   H53       1.0  0.52170  0.89420  0.95430  1.0000 0.1108649506
H   H54       1.0  0.52170  0.60580  0.45430  1.0000 0.1108649506
H   H55       1.0  0.41930  0.93460  0.78080  1.0000 0.1300453453
H   H56       1.0  0.41930  0.56540  0.28080  1.0000 0.1300453453
H   H57       1.0  0.77700  0.09600  0.86070  1.0000 0.1204327049
H   H58       1.0  0.77700  0.40400  0.36070  1.0000 0.1204327049
H   H59       1.0  0.72600  0.02640  0.95160  1.0000 0.1204327049
H   H60       1.0  0.72600  0.47360  0.45160  1.0000 0.1204327049
H   H61       1.0  0.97730  0.14950  0.25040  1.0000 0.1204327049
H   H62       1.0  0.97730  0.35050  0.75040  1.0000 0.1204327049
H   H63       1.0  0.19900  0.14430  0.23970  1.0000 0.1300453453
H   H64       1.0  0.19900  0.35570  0.73970  1.0000 0.1300453453
C   C1        1.0  0.74890  0.67820  0.59200  1.0000 0.1108649506
C   C2        1.0  0.74890  0.82180  0.09200  1.0000 0.1108649506
C   C3        1.0  0.64590  0.61130  0.59300  1.0000 -0.2088249342
C   C4        1.0  0.64590  0.88870  0.09300  1.0000 -0.2088249342
C   C5        1.0  0.65690  0.48960  0.59400  1.0000 0.1032923183
C   C6        1.0  0.65690  0.01040  0.09400  1.0000 0.1032923183
C   C7        1.0  0.78330  0.44250  0.59900  1.0000 -0.1589634286
C   C8        1.0  0.78330  0.05750  0.09900  1.0000 -0.1589634286
C   C9        1.0  0.89020  0.51010  0.60030  1.0000 -0.0737467126
C   C10       1.0  0.89020  0.98990  0.10030  1.0000 -0.0737467126
C   C11       1.0  0.87520  0.62800  0.59570  1.0000 -0.1690596731
C   C12       1.0  0.87520  0.87200  0.09570  1.0000 -0.1690596731
C   C13       1.0  0.73420  0.80640  0.58710  1.0000 -0.1690596731
C   C14       1.0  0.73420  0.69360  0.08710  1.0000 -0.1690596731
C   C15       1.0  0.63410  0.86140  0.46570  1.0000 0.0841686709
C   C16       1.0  0.63410  0.63860  0.96570  1.0000 0.0841686709
C   C17       1.0  0.41400  0.88150  0.44330  1.0000 -0.0527025701
C   C18       1.0  0.41400  0.61850  0.94330  1.0000 -0.0527025701
C   C19       1.0  0.48140  0.85390  0.50780  1.0000 -0.1003560524
C   C20       1.0  0.48140  0.64610  0.00780  1.0000 -0.1003560524
C   C21       1.0  0.54000  0.41180  0.59180  1.0000 -0.1690596731
C   C22       1.0  0.54000  0.08820  0.09180  1.0000 -0.1690596731
C   C23       1.0  0.49710  0.46590  0.68760  1.0000 0.1300453453
C   C24       1.0  0.49710  0.03410  0.18760  1.0000 0.1300453453
C   C25       1.0  0.30220  0.55400  0.64430  1.0000 -0.022531131
C   C26       1.0  0.30220  0.94600  0.14430  1.0000 -0.022531131
C   C27       1.0  0.33000  0.51580  0.59360  1.0000 -0.1220259859
C   C28       1.0  0.33000  0.98420  0.09360  1.0000 -0.1220259859
C   C29       1.0  0.05040  0.81660  0.27820  1.0000 -0.1456403786
C   C30       1.0  0.05040  0.68340  0.77820  1.0000 -0.1456403786
C   C31       1.0  0.98620  0.71190  0.26280  1.0000 -0.1220259859
C   C32       1.0  0.98620  0.78810  0.76280  1.0000 -0.1220259859
C   C33       1.0  0.85790  0.70900  0.26920  1.0000 -0.1310646923
C   C34       1.0  0.85790  0.79100  0.76920  1.0000 -0.1310646923
C   C35       1.0  0.82620  0.81080  0.28980  1.0000 -0.1003560524
C   C36       1.0  0.82620  0.68920  0.78980  1.0000 -0.1003560524
C   C37       1.0  0.18390  0.85200  0.27940  1.0000 0.5445204659
C   C38       1.0  0.18390  0.64800  0.77940  1.0000 0.5445204659
C   C39       1.0  0.70220  0.84080  0.30260  1.0000 0.5494354053
C   C40       1.0  0.70220  0.65920  0.80260  1.0000 0.5494354053
C   C41       1.0  0.25110  0.17820  0.90800  1.0000 0.1108649506
C   C42       1.0  0.25110  0.32180  0.40800  1.0000 0.1108649506
C   C43       1.0  0.35410  0.11130  0.90700  1.0000 -0.2088249342
C   C44       1.0  0.35410  0.38870  0.40700  1.0000 -0.2088249342
C   C45       1.0  0.34310  0.98960  0.90600  1.0000 0.1032923183
C   C46       1.0  0.34310  0.51040  0.40600  1.0000 0.1032923183
C   C47       1.0  0.21670  0.94250  0.90100  1.0000 -0.1589634286
C   C48       1.0  0.21670  0.55750  0.40100  1.0000 -0.1589634286
C   C49       1.0  0.10980  0.01010  0.89970  1.0000 -0.0737467126
C   C50       1.0  0.10980  0.48990  0.39970  1.0000 -0.0737467126
C   C51       1.0  0.12480  0.12800  0.90430  1.0000 -0.1690596731
C   C52       1.0  0.12480  0.37200  0.40430  1.0000 -0.1690596731
C   C53       1.0  0.26580  0.30640  0.91290  1.0000 -0.1690596731
C   C54       1.0  0.26580  0.19360  0.41290  1.0000 -0.1690596731
C   C55       1.0  0.36590  0.36140  0.03430  1.0000 0.0841686709
C   C56       1.0  0.36590  0.13860  0.53430  1.0000 0.0841686709
C   C57       1.0  0.58600  0.38150  0.05670  1.0000 -0.0527025701
C   C58       1.0  0.58600  0.11850  0.55670  1.0000 -0.0527025701
C   C59       1.0  0.51860  0.35390  0.99220  1.0000 -0.1003560524
C   C60       1.0  0.51860  0.14610  0.49220  1.0000 -0.1003560524
C   C61       1.0  0.46000  0.91180  0.90820  1.0000 -0.1690596731
C   C62       1.0  0.46000  0.58820  0.40820  1.0000 -0.1690596731
C   C63       1.0  0.50290  0.96590  0.81240  1.0000 0.1300453453
C   C64       1.0  0.50290  0.53410  0.31240  1.0000 0.1300453453
C   C65       1.0  0.69780  0.05400  0.85570  1.0000 -0.022531131
C   C66       1.0  0.69780  0.44600  0.35570  1.0000 -0.022531131
C   C67       1.0  0.67000  0.01580  0.90640  1.0000 -0.1220259859
C   C68       1.0  0.67000  0.48420  0.40640  1.0000 -0.1220259859
C   C69       1.0  0.94960  0.31660  0.22180  1.0000 -0.1456403786
C   C70       1.0  0.94960  0.18340  0.72180  1.0000 -0.1456403786
C   C71       1.0  0.01380  0.21190  0.23720  1.0000 -0.1220259859
C   C72       1.0  0.01380  0.28810  0.73720  1.0000 -0.1220259859
C   C73       1.0  0.14210  0.20900  0.23080  1.0000 -0.1310646923
C   C74       1.0  0.14210  0.29100  0.73080  1.0000 -0.1310646923
C   C75       1.0  0.17380  0.31080  0.21020  1.0000 -0.1003560524
C   C76       1.0  0.17380  0.18920  0.71020  1.0000 -0.1003560524
C   C77       1.0  0.81610  0.35200  0.22060  1.0000 0.5445204659
C   C78       1.0  0.81610  0.14800  0.72060  1.0000 0.5445204659
C   C79       1.0  0.29780  0.34080  0.19740  1.0000 0.5494354053
C   C80       1.0  0.29780  0.15920  0.69740  1.0000 0.5494354053
S   S1        1.0  0.95301  0.91188  0.30019  1.0000 0.1300453453
S   S2        1.0  0.95301  0.58812  0.80019  1.0000 0.1300453453
S   S3        1.0  0.04699  0.41188  0.19981  1.0000 0.1300453453
S   S4        1.0  0.04699  0.08812  0.69981  1.0000 0.1300453453
N   N1        1.0  0.61970  0.84120  0.52260  1.0000 0.0393267667
N   N2        1.0  0.61970  0.65880  0.02260  1.0000 0.0393267667
N   N3        1.0  0.51080  0.88590  0.41630  1.0000 -0.2929032759
N   N4        1.0  0.51080  0.61410  0.91630  1.0000 -0.2929032759
N   N5        1.0  0.45660  0.45870  0.62210  1.0000 0.0393267667
N   N6        1.0  0.45660  0.04130  0.12210  1.0000 0.0393267667
N   N7        1.0  0.40730  0.52150  0.70270  1.0000 -0.2762344496
N   N8        1.0  0.40730  0.97850  0.20270  1.0000 -0.2762344496
N   N9        1.0  0.38030  0.34120  0.97740  1.0000 0.0393267667
N   N10       1.0  0.38030  0.15880  0.47740  1.0000 0.0393267667
N   N11       1.0  0.48920  0.38590  0.08370  1.0000 -0.2929032759
N   N12       1.0  0.48920  0.11410  0.58370  1.0000 -0.2929032759
N   N13       1.0  0.54340  0.95870  0.87790  1.0000 0.0393267667
N   N14       1.0  0.54340  0.54130  0.37790  1.0000 0.0393267667
N   N15       1.0  0.59270  0.02150  0.79730  1.0000 -0.2762344496
N   N16       1.0  0.59270  0.47850  0.29730  1.0000 -0.2762344496
O   O1        1.0  0.22400  0.95510  0.29640  1.0000 -0.5746335105
O   O2        1.0  0.22400  0.54490  0.79640  1.0000 -0.5746335105
O   O3        1.0  0.26220  0.77970  0.26910  1.0000 -0.5508191304
O   O4        1.0  0.26220  0.72030  0.76910  1.0000 -0.5508191304
O   O5        1.0  0.59980  0.77180  0.28410  1.0000 -0.5508191304
O   O6        1.0  0.59980  0.72820  0.78410  1.0000 -0.5508191304
O   O7        1.0  0.70530  0.93480  0.33090  1.0000 -0.5766055302
O   O8        1.0  0.70530  0.56520  0.83090  1.0000 -0.5766055302
O   O9        1.0  0.77600  0.45510  0.20360  1.0000 -0.5746335105
O   O10       1.0  0.77600  0.04490  0.70360  1.0000 -0.5746335105
O   O11       1.0  0.73780  0.27970  0.23090  1.0000 -0.5508191304
O   O12       1.0  0.73780  0.22030  0.73090  1.0000 -0.5508191304
O   O13       1.0  0.40020  0.27180  0.21590  1.0000 -0.5508191304
O   O14       1.0  0.40020  0.22820  0.71590  1.0000 -0.5508191304
O   O15       1.0  0.29470  0.43480  0.16910  1.0000 -0.5766055302
O   O16       1.0  0.29470  0.06520  0.66910  1.0000 -0.5766055302
