# DDEC6 charges by PACMAN v1.1 (https://github.com/mtap-research/PACMAN-charge/)
data_2023[Co][pcu]3[ASR]3
_chemical_formula_sum              "Co4 H56 C104 S8 N16 O16"
_cell_length_a       12.242
_cell_length_b       16.974
_cell_length_c       17.187
_cell_angle_alpha    79.92
_cell_angle_beta     76.943
_cell_angle_gamma    82.522

_symmetry_space_group_name_H-M    "P 1"
_symmetry_Int_Tables_number       1

loop_
  _symmetry_equiv_pos_as_xyz
  'x, y, z'

loop_
  _atom_site_type_symbol
  _atom_site_label
  _atom_site_symmetry_multiplicity
  _atom_site_fract_x
  _atom_site_fract_y
  _atom_site_fract_z
  _atom_site_occupancy
  _atom_site_charge
Co  Co1       1.0  0.22459  0.87168  0.31391  1.0000 0.8505235906
Co  Co2       1.0  0.27420  0.63036  0.27441  1.0000 0.8505235906
Co  Co3       1.0  0.77541  0.12832  0.68609  1.0000 0.8505235906
Co  Co4       1.0  0.72580  0.36964  0.72559  1.0000 0.8505235906
H   H1        1.0  0.08095  0.94274  0.18900  1.0000 0.1017867267
H   H2        1.0  0.07224  0.94894  0.05692  1.0000 0.1383452374
H   H3        1.0  0.38334  0.83435  0.02044  1.0000 0.1288577836
H   H4        1.0  0.38317  0.83499  0.15277  1.0000 0.1117806026
H   H5        1.0  0.42266  0.56115  0.12531  1.0000 0.1208706213
H   H6        1.0  0.13883  0.69772  0.01079  1.0000 0.1288577836
H   H7        1.0  0.10738  0.14476  0.29928  1.0000 0.1117806026
H   H8        1.0  0.02983  0.28788  0.29843  1.0000 0.1208706213
H   H9        1.0  0.14332  0.70000  0.14172  1.0000 0.1117806026
H   H10       1.0  0.88252  0.86097  0.30044  1.0000 0.1288577836
H   H11       1.0  0.05846  0.41900  0.29522  1.0000 0.1288577836
H   H12       1.0  0.35647  0.80344  0.44863  1.0000 0.1117806026
H   H13       1.0  0.38888  0.35891  0.28614  1.0000 0.1208706213
H   H14       1.0  0.46564  0.21704  0.28504  1.0000 0.1208706213
H   H15       1.0  0.42638  0.55240  0.99344  1.0000 0.1383452374
H   H16       1.0  0.05866  0.91837  0.46525  1.0000 0.1208706213
H   H17       1.0  0.62332  0.65185  0.26035  1.0000 0.1288577836
H   H18       1.0  0.99948  0.63399  0.27050  1.0000 0.1288577836
H   H19       1.0  0.04604  0.92695  0.59833  1.0000 0.1383452374
H   H20       1.0  0.42964  0.57916  0.39101  1.0000 0.1017867267
H   H21       1.0  0.43859  0.08536  0.28580  1.0000 0.1208706213
H   H22       1.0  0.44124  0.57249  0.52279  1.0000 0.1288577836
H   H23       1.0  0.50759  0.87797  0.28978  1.0000 0.1383452374
H   H24       1.0  0.35329  0.80685  0.58135  1.0000 0.1383452374
H   H25       1.0  0.11399  0.65569  0.43812  1.0000 0.1117806026
H   H26       1.0  0.11421  0.64710  0.57245  1.0000 0.1383452374
H   H27       1.0  0.68232  0.90715  0.29415  1.0000 0.1208706213
H   H28       1.0  0.82633  0.60679  0.25752  1.0000 0.1208706213
H   H29       1.0  0.91905  0.05726  0.81100  1.0000 0.1017867267
H   H30       1.0  0.92776  0.05106  0.94308  1.0000 0.1383452374
H   H31       1.0  0.61666  0.16565  0.97956  1.0000 0.1288577836
H   H32       1.0  0.61683  0.16501  0.84723  1.0000 0.1117806026
H   H33       1.0  0.57734  0.43885  0.87469  1.0000 0.1208706213
H   H34       1.0  0.86117  0.30228  0.98921  1.0000 0.1288577836
H   H35       1.0  0.89262  0.85524  0.70072  1.0000 0.1117806026
H   H36       1.0  0.97017  0.71212  0.70157  1.0000 0.1208706213
H   H37       1.0  0.85668  0.30000  0.85828  1.0000 0.1117806026
H   H38       1.0  0.11748  0.13903  0.69956  1.0000 0.1288577836
H   H39       1.0  0.94154  0.58100  0.70478  1.0000 0.1288577836
H   H40       1.0  0.64353  0.19656  0.55137  1.0000 0.1117806026
H   H41       1.0  0.61112  0.64109  0.71386  1.0000 0.1208706213
H   H42       1.0  0.53436  0.78296  0.71496  1.0000 0.1208706213
H   H43       1.0  0.57362  0.44760  0.00656  1.0000 0.1383452374
H   H44       1.0  0.94134  0.08163  0.53475  1.0000 0.1208706213
H   H45       1.0  0.37668  0.34815  0.73965  1.0000 0.1288577836
H   H46       1.0  0.00052  0.36601  0.72950  1.0000 0.1288577836
H   H47       1.0  0.95396  0.07305  0.40167  1.0000 0.1383452374
H   H48       1.0  0.57036  0.42084  0.60899  1.0000 0.1017867267
H   H49       1.0  0.56141  0.91464  0.71420  1.0000 0.1208706213
H   H50       1.0  0.55876  0.42751  0.47721  1.0000 0.1288577836
H   H51       1.0  0.49241  0.12203  0.71022  1.0000 0.1383452374
H   H52       1.0  0.64671  0.19315  0.41865  1.0000 0.1383452374
H   H53       1.0  0.88601  0.34431  0.56188  1.0000 0.1117806026
H   H54       1.0  0.88579  0.35290  0.42755  1.0000 0.1383452374
H   H55       1.0  0.31768  0.09285  0.70585  1.0000 0.1208706213
H   H56       1.0  0.17367  0.39321  0.74248  1.0000 0.1208706213
C   C1        1.0  0.27850  0.61050  0.56310  1.0000 0.0901766482
C   C2        1.0  0.28110  0.62310  0.98590  1.0000 0.0901766482
C   C3        1.0  0.14260  0.92070  0.15440  1.0000 0.0718802669
C   C4        1.0  0.22730  0.89100  0.02220  1.0000 0.0901766482
C   C5        1.0  0.22640  0.40120  0.29160  1.0000 -0.0057693352
C   C6        1.0  0.06750  0.76690  0.29950  1.0000 0.5673453307
C   C7        1.0  0.30270  0.26330  0.29030  1.0000 0.0793491151
C   C8        1.0  0.13620  0.92450  0.07510  1.0000 -0.1622916166
C   C9        1.0  0.32040  0.85710  0.05340  1.0000 -0.1942289327
C   C10       1.0  0.24970  0.01670  0.30140  1.0000 0.5362174209
C   C11       1.0  0.31910  0.85730  0.13350  1.0000 0.1017867267
C   C12       1.0  0.74790  0.71820  0.27090  1.0000 0.0793491151
C   C13       1.0  0.19370  0.24180  0.29280  1.0000 0.0793491151
C   C14       1.0  0.20160  0.87680  0.68810  1.0000 0.1117806026
C   C15       1.0  0.19970  0.87040  0.60620  1.0000 0.0793491151
C   C16       1.0  0.28280  0.60780  0.64790  1.0000 0.1117806026
C   C17       1.0  0.27860  0.61910  0.90220  1.0000 0.1017867267
C   C18       1.0  0.43330  0.74020  0.27900  1.0000 0.5648727115
C   C19       1.0  0.36480  0.58910  0.10180  1.0000 0.0901766482
C   C20       1.0  0.19740  0.66870  0.03280  1.0000 -0.2051618699
C   C21       1.0  0.17880  0.15970  0.29620  1.0000 -0.1622916166
C   C22       1.0  0.16320  0.90640  0.82610  1.0000 0.0531524136
C   C23       1.0  0.10180  0.30170  0.29560  1.0000 -0.1494625796
C   C24       1.0  0.20160  0.67050  0.11120  1.0000 0.0901766482
C   C25       1.0  0.76190  0.79560  0.28310  1.0000 0.0793491151
C   C26       1.0  0.87090  0.81040  0.29190  1.0000 -0.1494625796
C   C27       1.0  0.11890  0.37960  0.29430  1.0000 -0.1064909638
C   C28       1.0  0.95680  0.75150  0.28790  1.0000 -0.0398791753
C   C29       1.0  0.29330  0.82880  0.47900  1.0000 0.0793491151
C   C30       1.0  0.31750  0.34390  0.28890  1.0000 -0.1494625796
C   C31       1.0  0.39370  0.20320  0.28770  1.0000 -0.1494625796
C   C32       1.0  0.36760  0.58300  0.02230  1.0000 -0.168441147
C   C33       1.0  0.26570  0.86360  0.79900  1.0000 0.0618617381
C   C34       1.0  0.11930  0.89620  0.48870  1.0000 0.1017867267
C   C35       1.0  0.63570  0.70260  0.26810  1.0000 -0.1494625796
C   C36       1.0  0.26800  0.10240  0.29510  1.0000 -0.0158611931
C   C37       1.0  0.24480  0.48730  0.28970  1.0000 0.5334633883
C   C38       1.0  0.22480  0.88940  0.93770  1.0000 0.1208706213
C   C39       1.0  0.93970  0.67400  0.27410  1.0000 -0.1064909638
C   C40       1.0  0.23000  0.63200  0.77190  1.0000 0.0531524136
C   C41       1.0  0.11090  0.90200  0.56930  1.0000 -0.2051618699
C   C42       1.0  0.36560  0.59430  0.42800  1.0000 0.0793491151
C   C43       1.0  0.33333  0.59250  0.77990  1.0000 0.0618617381
C   C44       1.0  0.54940  0.75970  0.27630  1.0000 -0.0297737685
C   C45       1.0  0.37750  0.12430  0.28900  1.0000 -0.1064909638
C   C46       1.0  0.37310  0.58960  0.50710  1.0000 -0.2051618699
C   C47       1.0  0.56750  0.83810  0.28560  1.0000 -0.101802275
C   C48       1.0  0.29260  0.83120  0.55890  1.0000 -0.168441147
C   C49       1.0  0.18100  0.63840  0.45540  1.0000 0.1017867267
C   C50       1.0  0.18050  0.63410  0.53640  1.0000 -0.1622916166
C   C51       1.0  0.67120  0.85540  0.28850  1.0000 -0.140584432
C   C52       1.0  0.83690  0.65760  0.26610  1.0000 -0.140584432
C   C53       1.0  0.72150  0.38950  0.43690  1.0000 0.0901766482
C   C54       1.0  0.71890  0.37690  0.01410  1.0000 0.0901766482
C   C55       1.0  0.85740  0.07930  0.84560  1.0000 0.0718802669
C   C56       1.0  0.77270  0.10900  0.97780  1.0000 0.0901766482
C   C57       1.0  0.77360  0.59880  0.70840  1.0000 -0.0057693352
C   C58       1.0  0.93250  0.23310  0.70050  1.0000 0.5673453307
C   C59       1.0  0.69730  0.73670  0.70970  1.0000 0.0793491151
C   C60       1.0  0.86380  0.07550  0.92490  1.0000 -0.1622916166
C   C61       1.0  0.67960  0.14290  0.94660  1.0000 -0.1942289327
C   C62       1.0  0.75030  0.98330  0.69860  1.0000 0.5362174209
C   C63       1.0  0.68090  0.14270  0.86650  1.0000 0.1017867267
C   C64       1.0  0.25210  0.28180  0.72910  1.0000 0.0793491151
C   C65       1.0  0.80630  0.75820  0.70720  1.0000 0.0793491151
C   C66       1.0  0.79840  0.12320  0.31190  1.0000 0.1117806026
C   C67       1.0  0.80030  0.12960  0.39380  1.0000 0.0793491151
C   C68       1.0  0.71720  0.39220  0.35210  1.0000 0.1117806026
C   C69       1.0  0.72140  0.38090  0.09780  1.0000 0.1017867267
C   C70       1.0  0.56670  0.25980  0.72100  1.0000 0.5673453307
C   C71       1.0  0.63520  0.41090  0.89820  1.0000 0.0901766482
C   C72       1.0  0.80260  0.33130  0.96720  1.0000 -0.2051618699
C   C73       1.0  0.82120  0.84030  0.70380  1.0000 -0.1622916166
C   C74       1.0  0.83680  0.09360  0.17390  1.0000 0.0531524136
C   C75       1.0  0.89820  0.69830  0.70440  1.0000 -0.1494625796
C   C76       1.0  0.79840  0.32950  0.88880  1.0000 0.0901766482
C   C77       1.0  0.23810  0.20440  0.71690  1.0000 0.0793491151
C   C78       1.0  0.12910  0.18960  0.70810  1.0000 -0.1494625796
C   C79       1.0  0.88110  0.62040  0.70570  1.0000 -0.1064909638
C   C80       1.0  0.04320  0.24850  0.71210  1.0000 -0.0398791753
C   C81       1.0  0.70670  0.17120  0.52100  1.0000 0.0793491151
C   C82       1.0  0.68250  0.65610  0.71110  1.0000 -0.1494625796
C   C83       1.0  0.60630  0.79680  0.71230  1.0000 -0.1494625796
C   C84       1.0  0.63240  0.41700  0.97770  1.0000 -0.168441147
C   C85       1.0  0.73430  0.13640  0.20100  1.0000 0.0618617381
C   C86       1.0  0.88070  0.10380  0.51130  1.0000 0.1017867267
C   C87       1.0  0.36430  0.29740  0.73190  1.0000 -0.1494625796
C   C88       1.0  0.73200  0.89760  0.70490  1.0000 -0.0158611931
C   C89       1.0  0.75520  0.51270  0.71030  1.0000 0.5334633883
C   C90       1.0  0.77520  0.11060  0.06230  1.0000 0.1208706213
C   C91       1.0  0.06030  0.32600  0.72590  1.0000 -0.1064909638
C   C92       1.0  0.77000  0.36800  0.22810  1.0000 0.0531524136
C   C93       1.0  0.88910  0.09800  0.43070  1.0000 -0.2051618699
C   C94       1.0  0.63440  0.40570  0.57200  1.0000 0.0793491151
C   C95       1.0  0.66667  0.40750  0.22010  1.0000 0.0618617381
C   C96       1.0  0.45060  0.24030  0.72370  1.0000 -0.0297737685
C   C97       1.0  0.62250  0.87570  0.71100  1.0000 -0.1064909638
C   C98       1.0  0.62690  0.41040  0.49290  1.0000 -0.2047382448
C   C99       1.0  0.43250  0.16190  0.71440  1.0000 -0.101802275
C   C100      1.0  0.70740  0.16880  0.44110  1.0000 -0.168441147
C   C101      1.0  0.81900  0.36160  0.54460  1.0000 0.1017867267
C   C102      1.0  0.81950  0.36590  0.46360  1.0000 -0.1622916166
C   C103      1.0  0.32880  0.14460  0.71150  1.0000 -0.140584432
C   C104      1.0  0.16310  0.34240  0.73390  1.0000 -0.140584432
S   S1        1.0  0.16252  0.66257  0.86240  1.0000 0.0718802669
S   S2        1.0  0.09012  0.92751  0.74937  1.0000 0.0793491151
S   S3        1.0  0.33827  0.84096  0.87613  1.0000 0.0396732237
S   S4        1.0  0.40003  0.56416  0.68797  1.0000 0.0718802669
S   S5        1.0  0.83748  0.33743  0.13760  1.0000 0.0718802669
S   S6        1.0  0.90988  0.07249  0.25063  1.0000 0.0793491151
S   S7        1.0  0.66173  0.15904  0.12387  1.0000 0.0396732237
S   S8        1.0  0.59997  0.43584  0.31203  1.0000 0.0718802669
N   N1        1.0  0.20850  0.86110  0.44220  1.0000 -0.2415153686
N   N2        1.0  0.23230  0.88710  0.18540  1.0000 -0.2415153686
N   N3        1.0  0.28480  0.63230  0.14690  1.0000 -0.2346491818
N   N4        1.0  0.27060  0.61970  0.40140  1.0000 -0.2222591643
N   N5        1.0  0.13940  0.92120  0.90420  1.0000 -0.3171804849
N   N6        1.0  0.19940  0.64080  0.69950  1.0000 -0.3012283746
N   N7        1.0  0.28750  0.84700  0.72310  1.0000 -0.3012283746
N   N8        1.0  0.36130  0.58480  0.85260  1.0000 -0.3050124351
N   N9        1.0  0.79150  0.13890  0.55780  1.0000 -0.2415153686
N   N10       1.0  0.76770  0.11290  0.81460  1.0000 -0.2415153686
N   N11       1.0  0.71520  0.36770  0.85310  1.0000 -0.2346491818
N   N12       1.0  0.72940  0.38030  0.59860  1.0000 -0.2222591643
N   N13       1.0  0.86060  0.07880  0.09580  1.0000 -0.3171804849
N   N14       1.0  0.80060  0.35920  0.30050  1.0000 -0.3012283746
N   N15       1.0  0.71250  0.15300  0.27690  1.0000 -0.3050124351
N   N16       1.0  0.63870  0.41520  0.14740  1.0000 -0.3050124351
O   O1        1.0  0.34330  0.50710  0.27800  1.0000 -0.5488742296
O   O2        1.0  0.42160  0.67970  0.25000  1.0000 -0.5301481117
O   O3        1.0  0.15110  0.99590  0.31390  1.0000 -0.5593497261
O   O4        1.0  0.07460  0.82750  0.33110  1.0000 -0.5301481117
O   O5        1.0  0.14960  0.71880  0.27650  1.0000 -0.5593497261
O   O6        1.0  0.35360  0.78650  0.31110  1.0000 -0.5593497261
O   O7        1.0  0.33370  0.96540  0.29580  1.0000 -0.5301481117
O   O8        1.0  0.16070  0.53800  0.29910  1.0000 -0.5301481117
O   O9        1.0  0.65670  0.49290  0.72200  1.0000 -0.5488742296
O   O10       1.0  0.57840  0.32030  0.75000  1.0000 -0.5301481117
O   O11       1.0  0.84890  0.00410  0.68610  1.0000 -0.5593497261
O   O12       1.0  0.92540  0.17250  0.66890  1.0000 -0.5301481117
O   O13       1.0  0.85040  0.28120  0.72350  1.0000 -0.5593497261
O   O14       1.0  0.64640  0.21350  0.68890  1.0000 -0.5593497261
O   O15       1.0  0.66630  0.03460  0.70420  1.0000 -0.5301481117
O   O16       1.0  0.83930  0.46200  0.70090  1.0000 -0.5301481117
