# DDEC6 charges by PACMAN v1.1 (https://github.com/mtap-research/PACMAN-charge/)
data_2023[Cd][nan]3[ASR]8
_chemical_formula_sum              "Cd8 H92 C148 N12 O32"
_cell_length_a       14.9677
_cell_length_b       27.6453
_cell_length_c       18.9661
_cell_angle_alpha    90
_cell_angle_beta     104.433
_cell_angle_gamma    90

_symmetry_space_group_name_H-M    "P 1"
_symmetry_Int_Tables_number       1

loop_
  _symmetry_equiv_pos_as_xyz
  'x, y, z'

loop_
  _atom_site_type_symbol
  _atom_site_label
  _atom_site_symmetry_multiplicity
  _atom_site_fract_x
  _atom_site_fract_y
  _atom_site_fract_z
  _atom_site_occupancy
  _atom_site_charge
Cd  Cd1       1.0  0.36332  0.50245  0.97047  1.0000 0.8669093159
Cd  Cd2       1.0  0.63668  0.00245  0.02953  1.0000 0.8669093159
Cd  Cd3       1.0  0.63668  0.49755  0.02953  1.0000 0.8669093159
Cd  Cd4       1.0  0.36332  0.99755  0.97047  1.0000 0.8669093159
Cd  Cd5       1.0  0.25935  0.25000  0.33046  1.0000 0.9054940102
Cd  Cd6       1.0  0.74065  0.75000  0.66954  1.0000 0.9031347391
Cd  Cd7       1.0  0.53270  0.25000  0.37355  1.0000 0.9215990362
Cd  Cd8       1.0  0.46730  0.75000  0.62645  1.0000 0.9215990362
H   H1        1.0  0.38573  0.38629  0.00130  1.0000 0.1095415895
H   H2        1.0  0.61427  0.88629  0.99870  1.0000 0.1095415895
H   H3        1.0  0.61427  0.61371  0.99870  1.0000 0.1095415895
H   H4        1.0  0.38573  0.11371  0.00130  1.0000 0.1095415895
H   H5        1.0  0.37651  0.31307  0.94014  1.0000 0.1213285329
H   H6        1.0  0.62349  0.81307  0.05986  1.0000 0.1213285329
H   H7        1.0  0.62349  0.68693  0.05986  1.0000 0.1213285329
H   H8        1.0  0.37651  0.18693  0.94014  1.0000 0.1213285329
H   H9        1.0  0.32464  0.38383  0.74916  1.0000 0.1213285329
H   H10       1.0  0.67536  0.88383  0.25084  1.0000 0.1213285329
H   H11       1.0  0.67536  0.61617  0.25084  1.0000 0.1213285329
H   H12       1.0  0.32464  0.11617  0.74916  1.0000 0.1213285329
H   H13       1.0  0.33386  0.45705  0.81033  1.0000 0.1213285329
H   H14       1.0  0.66614  0.95705  0.18967  1.0000 0.1213285329
H   H15       1.0  0.66614  0.54295  0.18967  1.0000 0.1213285329
H   H16       1.0  0.33386  0.04295  0.81033  1.0000 0.1213285329
H   H17       1.0  0.58408  0.45607  0.85978  1.0000 0.1095415895
H   H18       1.0  0.41592  0.95607  0.14022  1.0000 0.1095415895
H   H19       1.0  0.41592  0.54393  0.14022  1.0000 0.1095415895
H   H20       1.0  0.58408  0.04393  0.85978  1.0000 0.1095415895
H   H21       1.0  0.57892  0.38404  0.79612  1.0000 0.1213285329
H   H22       1.0  0.42108  0.88404  0.20388  1.0000 0.1213285329
H   H23       1.0  0.42108  0.61596  0.20388  1.0000 0.1213285329
H   H24       1.0  0.57892  0.11596  0.79612  1.0000 0.1213285329
H   H25       1.0  0.65616  0.31139  0.98506  1.0000 0.1279062022
H   H26       1.0  0.34384  0.81139  0.01494  1.0000 0.1279062022
H   H27       1.0  0.34384  0.68861  0.01494  1.0000 0.1279062022
H   H28       1.0  0.65616  0.18861  0.98506  1.0000 0.1279062022
H   H29       1.0  0.66131  0.38342  0.04873  1.0000 0.1213285329
H   H30       1.0  0.33869  0.88342  0.95127  1.0000 0.1213285329
H   H31       1.0  0.33869  0.61658  0.95127  1.0000 0.1213285329
H   H32       1.0  0.66131  0.11658  0.04873  1.0000 0.1213285329
H   H33       1.0  0.33618  0.32251  0.69856  1.0000 0.1095415895
H   H34       1.0  0.66382  0.82251  0.30144  1.0000 0.1095415895
H   H35       1.0  0.66382  0.67749  0.30144  1.0000 0.1095415895
H   H36       1.0  0.33618  0.17749  0.69856  1.0000 0.1095415895
H   H37       1.0  0.62421  0.25000  0.92834  1.0000 0.1095415895
H   H38       1.0  0.37579  0.75000  0.07166  1.0000 0.1095415895
H   H39       1.0  0.59707  0.32301  0.74183  1.0000 0.1095415895
H   H40       1.0  0.40293  0.82301  0.25817  1.0000 0.1095415895
H   H41       1.0  0.40293  0.67699  0.25817  1.0000 0.1095415895
H   H42       1.0  0.59707  0.17699  0.74183  1.0000 0.1095415895
H   H43       1.0  0.35261  0.25000  0.88499  1.0000 0.1095415895
H   H44       1.0  0.64739  0.75000  0.11501  1.0000 0.1095415895
H   H45       1.0  0.11341  0.45951  0.08258  1.0000 0.1279062022
H   H46       1.0  0.88659  0.95951  0.91742  1.0000 0.1213285329
H   H47       1.0  0.88659  0.54049  0.91742  1.0000 0.1279062022
H   H48       1.0  0.11341  0.04049  0.08258  1.0000 0.1279062022
H   H49       1.0  0.96630  0.46251  0.09937  1.0000 0.1213285329
H   H50       1.0  0.03370  0.96251  0.90063  1.0000 0.1213285329
H   H51       1.0  0.03370  0.53749  0.90063  1.0000 0.1213285329
H   H52       1.0  0.96630  0.03749  0.09937  1.0000 0.1213285329
H   H53       1.0  0.36044  0.06770  0.11563  1.0000 0.1279062022
H   H54       1.0  0.63956  0.56770  0.88437  1.0000 0.1279062022
H   H55       1.0  0.63956  0.93230  0.88437  1.0000 0.1279062022
H   H56       1.0  0.36044  0.43230  0.11563  1.0000 0.1279062022
H   H57       1.0  0.61128  0.09166  0.24229  1.0000 0.1279062022
H   H58       1.0  0.38872  0.59166  0.75771  1.0000 0.1279062022
H   H59       1.0  0.38872  0.90834  0.75771  1.0000 0.1279062022
H   H60       1.0  0.61128  0.40834  0.24229  1.0000 0.1279062022
H   H61       1.0  0.30026  0.12100  0.18668  1.0000 0.1279062022
H   H62       1.0  0.69974  0.62100  0.81332  1.0000 0.1279062022
H   H63       1.0  0.69974  0.87900  0.81332  1.0000 0.1279062022
H   H64       1.0  0.30026  0.37900  0.18668  1.0000 0.1279062022
H   H65       1.0  0.55044  0.14017  0.31851  1.0000 0.1213285329
H   H66       1.0  0.44956  0.64017  0.68149  1.0000 0.1213285329
H   H67       1.0  0.44956  0.85983  0.68149  1.0000 0.1213285329
H   H68       1.0  0.55044  0.35983  0.31851  1.0000 0.1213285329
H   H69       1.0  0.82053  0.32210  0.36053  1.0000 0.1279062022
H   H70       1.0  0.17947  0.82210  0.63947  1.0000 0.1279062022
H   H71       1.0  0.17947  0.67790  0.63947  1.0000 0.1279062022
H   H72       1.0  0.82053  0.17790  0.36053  1.0000 0.1279062022
H   H73       1.0  0.30289  0.18309  0.46719  1.0000 0.1213285329
H   H74       1.0  0.69711  0.68309  0.53281  1.0000 0.1213285329
H   H75       1.0  0.69711  0.81691  0.53281  1.0000 0.1213285329
H   H76       1.0  0.30289  0.31691  0.46719  1.0000 0.1213285329
H   H77       1.0  0.97172  0.32232  0.34945  1.0000 0.1213285329
H   H78       1.0  0.02828  0.82232  0.65055  1.0000 0.1213285329
H   H79       1.0  0.02828  0.67768  0.65055  1.0000 0.1213285329
H   H80       1.0  0.97172  0.17768  0.34945  1.0000 0.1213285329
H   H81       1.0  0.55050  0.31789  0.51414  1.0000 0.1213285329
H   H82       1.0  0.44950  0.81789  0.48586  1.0000 0.1213285329
H   H83       1.0  0.44950  0.68211  0.48586  1.0000 0.1213285329
H   H84       1.0  0.55050  0.18211  0.51414  1.0000 0.1213285329
H   H85       1.0  0.32781  0.18096  0.59033  1.0000 0.1279062022
H   H86       1.0  0.67219  0.68096  0.40967  1.0000 0.1279062022
H   H87       1.0  0.67219  0.81904  0.40967  1.0000 0.1279062022
H   H88       1.0  0.32781  0.31904  0.59033  1.0000 0.1279062022
H   H89       1.0  0.57637  0.31814  0.63264  1.0000 0.1279062022
H   H90       1.0  0.42363  0.81814  0.36736  1.0000 0.1279062022
H   H91       1.0  0.42363  0.68186  0.36736  1.0000 0.1279062022
H   H92       1.0  0.57637  0.18186  0.63264  1.0000 0.1279062022
C   C1        1.0  0.37350  0.38580  0.95077  1.0000 0.0890481684
C   C2        1.0  0.62650  0.88580  0.04923  1.0000 0.0890481684
C   C3        1.0  0.62650  0.61420  0.04923  1.0000 0.0890481684
C   C4        1.0  0.37350  0.11420  0.95077  1.0000 0.0890481684
C   C5        1.0  0.36800  0.34193  0.91412  1.0000 -0.1997766505
C   C6        1.0  0.63200  0.84193  0.08588  1.0000 -0.1997766505
C   C7        1.0  0.63200  0.65807  0.08588  1.0000 -0.1997766505
C   C8        1.0  0.36800  0.15807  0.91412  1.0000 -0.1997766505
C   C9        1.0  0.34970  0.34119  0.83859  1.0000 0.1095415895
C   C10       1.0  0.65030  0.84119  0.16141  1.0000 0.1095415895
C   C11       1.0  0.65030  0.65881  0.16141  1.0000 0.1095415895
C   C12       1.0  0.34970  0.15881  0.83859  1.0000 0.1095415895
C   C13       1.0  0.33690  0.38433  0.79970  1.0000 -0.1997766505
C   C14       1.0  0.66310  0.88433  0.20030  1.0000 -0.1997766505
C   C15       1.0  0.66310  0.61567  0.20030  1.0000 -0.1997766505
C   C16       1.0  0.33690  0.11567  0.79970  1.0000 -0.1997766505
C   C17       1.0  0.34240  0.42820  0.83634  1.0000 0.0821230692
C   C18       1.0  0.65760  0.92820  0.16366  1.0000 0.0821230692
C   C19       1.0  0.65760  0.57180  0.16366  1.0000 0.0821230692
C   C20       1.0  0.34240  0.07180  0.83634  1.0000 0.0821230692
C   C21       1.0  0.59850  0.42707  0.88489  1.0000 0.0890481684
C   C22       1.0  0.40150  0.92707  0.11511  1.0000 0.0890481684
C   C23       1.0  0.40150  0.57293  0.11511  1.0000 0.0890481684
C   C24       1.0  0.59850  0.07293  0.88489  1.0000 0.0890481684
C   C25       1.0  0.59540  0.38392  0.84675  1.0000 -0.1997766505
C   C26       1.0  0.40460  0.88392  0.15325  1.0000 -0.1997766505
C   C27       1.0  0.40460  0.61608  0.15325  1.0000 -0.1997766505
C   C28       1.0  0.59540  0.11608  0.84675  1.0000 -0.1997766505
C   C29       1.0  0.61700  0.34058  0.88428  1.0000 0.1095415895
C   C30       1.0  0.38300  0.84058  0.11572  1.0000 0.1095415895
C   C31       1.0  0.38300  0.65942  0.11572  1.0000 0.1095415895
C   C32       1.0  0.61700  0.15942  0.88428  1.0000 0.1095415895
C   C33       1.0  0.64170  0.34039  0.95995  1.0000 -0.1997766505
C   C34       1.0  0.35830  0.84039  0.04005  1.0000 -0.1997766505
C   C35       1.0  0.35830  0.65961  0.04005  1.0000 -0.1997766505
C   C36       1.0  0.64170  0.15961  0.95995  1.0000 -0.1997766505
C   C37       1.0  0.64480  0.38354  0.99809  1.0000 0.0821230692
C   C38       1.0  0.35520  0.88354  0.00191  1.0000 0.0821230692
C   C39       1.0  0.35520  0.61646  0.00191  1.0000 0.0821230692
C   C40       1.0  0.64480  0.11646  0.99809  1.0000 0.0821230692
C   C41       1.0  0.53450  0.04733  0.11870  1.0000 0.5492392537
C   C42       1.0  0.46550  0.54733  0.88130  1.0000 0.5492392537
C   C43       1.0  0.46550  0.95267  0.88130  1.0000 0.5492392537
C   C44       1.0  0.53450  0.45267  0.11870  1.0000 0.5492392537
C   C45       1.0  0.33320  0.25000  0.68530  1.0000 0.0890481684
C   C46       1.0  0.66680  0.75000  0.31470  1.0000 0.0890481684
C   C47       1.0  0.59490  0.25000  0.72880  1.0000 0.0890481684
C   C48       1.0  0.40510  0.75000  0.27120  1.0000 0.1000580547
C   C49       1.0  0.18660  0.49724  0.98130  1.0000 0.5334280318
C   C50       1.0  0.81340  0.99724  0.01870  1.0000 0.5334280318
C   C51       1.0  0.81340  0.50276  0.01870  1.0000 0.5334280318
C   C52       1.0  0.18660  0.00276  0.98130  1.0000 0.5334280318
C   C53       1.0  0.58200  0.25000  0.64900  1.0000 0.0890481684
C   C54       1.0  0.41800  0.75000  0.35100  1.0000 0.0890481684
C   C55       1.0  0.08950  0.49797  0.99130  1.0000 -0.0107975017
C   C56       1.0  0.91050  0.99797  0.00870  1.0000 -0.0107975017
C   C57       1.0  0.91050  0.50203  0.00870  1.0000 -0.0107975017
C   C58       1.0  0.08950  0.00203  0.99130  1.0000 -0.0107975017
C   C59       1.0  0.33800  0.29340  0.72340  1.0000 -0.2084090831
C   C60       1.0  0.66200  0.79340  0.27660  1.0000 -0.2084090831
C   C61       1.0  0.66200  0.70660  0.27660  1.0000 -0.2084090831
C   C62       1.0  0.33800  0.20660  0.72340  1.0000 -0.2084090831
C   C63       1.0  0.61080  0.29403  0.84200  1.0000 0.0821230692
C   C64       1.0  0.38920  0.79403  0.15800  1.0000 0.0821230692
C   C65       1.0  0.38920  0.70597  0.15800  1.0000 0.0821230692
C   C66       1.0  0.61080  0.20597  0.84200  1.0000 0.0821230692
C   C67       1.0  0.32280  0.25000  0.60700  1.0000 0.1095415895
C   C68       1.0  0.67720  0.75000  0.39300  1.0000 0.1095415895
C   C69       1.0  0.61640  0.25000  0.87810  1.0000 -0.1997766505
C   C70       1.0  0.38360  0.75000  0.12190  1.0000 -0.1997766505
C   C71       1.0  0.49270  0.07685  0.16860  1.0000 -0.0310545562
C   C72       1.0  0.50730  0.57685  0.83140  1.0000 -0.0310545562
C   C73       1.0  0.50730  0.92315  0.83140  1.0000 -0.0310545562
C   C74       1.0  0.49270  0.42315  0.16860  1.0000 -0.0310545562
C   C75       1.0  0.60040  0.29387  0.76690  1.0000 -0.2084090831
C   C76       1.0  0.39960  0.79387  0.23310  1.0000 -0.2084090831
C   C77       1.0  0.39960  0.70613  0.23310  1.0000 -0.2084090831
C   C78       1.0  0.60040  0.20613  0.76690  1.0000 -0.2084090831
C   C79       1.0  0.34850  0.25000  0.83520  1.0000 -0.2084090831
C   C80       1.0  0.65150  0.75000  0.16480  1.0000 -0.2084090831
C   C81       1.0  0.34540  0.29404  0.79840  1.0000 0.0821230692
C   C82       1.0  0.65460  0.79404  0.20160  1.0000 0.0821230692
C   C83       1.0  0.65460  0.70596  0.20160  1.0000 0.0821230692
C   C84       1.0  0.34540  0.20596  0.79840  1.0000 0.0821230692
C   C85       1.0  0.06760  0.47600  0.04900  1.0000 -0.1093615423
C   C86       1.0  0.93240  0.97600  0.95100  1.0000 -0.1093615423
C   C87       1.0  0.93240  0.52400  0.95100  1.0000 -0.1093615423
C   C88       1.0  0.06760  0.02400  0.04900  1.0000 -0.1093615423
C   C89       1.0  0.97950  0.47760  0.05930  1.0000 -0.0989459212
C   C90       1.0  0.02050  0.97760  0.94070  1.0000 -0.0989459212
C   C91       1.0  0.02050  0.52240  0.94070  1.0000 -0.0989459212
C   C92       1.0  0.97950  0.02240  0.05930  1.0000 -0.0989459212
C   C93       1.0  0.39970  0.08378  0.15420  1.0000 -0.1093615423
C   C94       1.0  0.60030  0.58378  0.84580  1.0000 -0.1093615423
C   C95       1.0  0.60030  0.91622  0.84580  1.0000 -0.1093615423
C   C96       1.0  0.39970  0.41622  0.15420  1.0000 -0.1093615423
C   C97       1.0  0.41700  0.13799  0.25660  1.0000 -0.03626688
C   C98       1.0  0.58300  0.63799  0.74340  1.0000 -0.03626688
C   C99       1.0  0.58300  0.86201  0.74340  1.0000 -0.03626688
C   C100      1.0  0.41700  0.36201  0.25660  1.0000 -0.03626688
C   C101      1.0  0.70680  0.25000  0.36830  1.0000 0.5334280318
C   C102      1.0  0.29320  0.75000  0.63170  1.0000 0.5334280318
C   C103      1.0  0.54820  0.09770  0.23060  1.0000 -0.0989459212
C   C104      1.0  0.45180  0.59770  0.76940  1.0000 -0.0989459212
C   C105      1.0  0.45180  0.90230  0.76940  1.0000 -0.0989459212
C   C106      1.0  0.54820  0.40230  0.23060  1.0000 -0.0989459212
C   C107      1.0  0.80410  0.25000  0.36040  1.0000 -0.0193752813
C   C108      1.0  0.19590  0.75000  0.63960  1.0000 -0.0193752813
C   C109      1.0  0.36350  0.11550  0.19830  1.0000 -0.0808752495
C   C110      1.0  0.63650  0.61550  0.80170  1.0000 -0.0808752495
C   C111      1.0  0.63650  0.88450  0.80170  1.0000 -0.0808752495
C   C112      1.0  0.36350  0.38450  0.19830  1.0000 -0.0808752495
C   C113      1.0  0.51240  0.12750  0.27620  1.0000 -0.0989459212
C   C114      1.0  0.48760  0.62750  0.72380  1.0000 -0.0989459212
C   C115      1.0  0.48760  0.87250  0.72380  1.0000 -0.0989459212
C   C116      1.0  0.51240  0.37250  0.27620  1.0000 -0.0989459212
C   C117      1.0  0.08230  0.25000  0.33530  1.0000 0.536060786
C   C118      1.0  0.91770  0.75000  0.66470  1.0000 0.5334280318
C   C119      1.0  0.37780  0.17390  0.29840  1.0000 0.5631486532
C   C120      1.0  0.62220  0.67390  0.70160  1.0000 0.5631486532
C   C121      1.0  0.62220  0.82610  0.70160  1.0000 0.5631486532
C   C122      1.0  0.37780  0.32610  0.29840  1.0000 0.5631486532
C   C123      1.0  0.85030  0.29290  0.35750  1.0000 -0.0989459212
C   C124      1.0  0.14970  0.79290  0.64250  1.0000 -0.0989459212
C   C125      1.0  0.14970  0.70710  0.64250  1.0000 -0.0989459212
C   C126      1.0  0.85030  0.20710  0.35750  1.0000 -0.0989459212
C   C127      1.0  0.98310  0.25000  0.34410  1.0000 -0.0107975017
C   C128      1.0  0.01690  0.75000  0.65590  1.0000 -0.0107975017
C   C129      1.0  0.30670  0.21250  0.49160  1.0000 0.1000580547
C   C130      1.0  0.69330  0.71250  0.50840  1.0000 0.1000580547
C   C131      1.0  0.69330  0.78750  0.50840  1.0000 0.1000580547
C   C132      1.0  0.30670  0.28750  0.49160  1.0000 0.1000580547
C   C133      1.0  0.94070  0.29330  0.35020  1.0000 -0.0937862041
C   C134      1.0  0.05930  0.79330  0.64980  1.0000 -0.0989459212
C   C135      1.0  0.05930  0.70670  0.64980  1.0000 -0.0989459212
C   C136      1.0  0.94070  0.20670  0.35020  1.0000 -0.0937862041
C   C137      1.0  0.55840  0.28800  0.53740  1.0000 0.0481984561
C   C138      1.0  0.44160  0.78800  0.46260  1.0000 0.0481984561
C   C139      1.0  0.44160  0.71200  0.46260  1.0000 0.0481984561
C   C140      1.0  0.55840  0.21200  0.53740  1.0000 0.0481984561
C   C141      1.0  0.32030  0.21090  0.56730  1.0000 -0.2294018584
C   C142      1.0  0.67970  0.71090  0.43270  1.0000 -0.2294018584
C   C143      1.0  0.67970  0.78910  0.43270  1.0000 -0.2294018584
C   C144      1.0  0.32030  0.28910  0.56730  1.0000 -0.2294018584
C   C145      1.0  0.57280  0.28830  0.60940  1.0000 -0.1997766505
C   C146      1.0  0.42720  0.78830  0.39060  1.0000 -0.1997766505
C   C147      1.0  0.42720  0.71170  0.39060  1.0000 -0.1997766505
C   C148      1.0  0.57280  0.21170  0.60940  1.0000 -0.1997766505
N   N1        1.0  0.55420  0.25000  0.49630  1.0000 -0.2294018584
N   N2        1.0  0.44580  0.75000  0.50370  1.0000 -0.2294018584
N   N3        1.0  0.36070  0.42893  0.91188  1.0000 -0.2641884106
N   N4        1.0  0.63930  0.92893  0.08812  1.0000 -0.2641884106
N   N5        1.0  0.63930  0.57107  0.08812  1.0000 -0.2641884106
N   N6        1.0  0.36070  0.07107  0.91188  1.0000 -0.2641884106
N   N7        1.0  0.62320  0.42689  0.96056  1.0000 -0.2641884106
N   N8        1.0  0.37680  0.92689  0.03944  1.0000 -0.2641884106
N   N9        1.0  0.37680  0.57311  0.03944  1.0000 -0.2641884106
N   N10       1.0  0.62320  0.07311  0.96056  1.0000 -0.2641884106
N   N11       1.0  0.29920  0.25000  0.45440  1.0000 -0.2294018584
N   N12       1.0  0.70080  0.75000  0.54560  1.0000 -0.2294018584
O   O1        1.0  0.48380  0.02785  0.06444  1.0000 -0.5606280806
O   O2        1.0  0.51620  0.52785  0.93556  1.0000 -0.5606280806
O   O3        1.0  0.51620  0.97215  0.93556  1.0000 -0.5606280806
O   O4        1.0  0.48380  0.47215  0.06444  1.0000 -0.5606280806
O   O5        1.0  0.62020  0.04406  0.13125  1.0000 -0.5101820173
O   O6        1.0  0.37980  0.54406  0.86875  1.0000 -0.5101820173
O   O7        1.0  0.37980  0.95594  0.86875  1.0000 -0.5101820173
O   O8        1.0  0.62020  0.45594  0.13125  1.0000 -0.5101820173
O   O9        1.0  0.20400  0.51771  0.92810  1.0000 -0.5223868134
O   O10       1.0  0.79600  0.01771  0.07190  1.0000 -0.5223868134
O   O11       1.0  0.79600  0.48229  0.07190  1.0000 -0.5223868134
O   O12       1.0  0.20400  0.98229  0.92810  1.0000 -0.5223868134
O   O13       1.0  0.24740  0.47641  0.02850  1.0000 -0.550774658
O   O14       1.0  0.75260  0.97641  0.97150  1.0000 -0.550774658
O   O15       1.0  0.75260  0.52359  0.97150  1.0000 -0.550774658
O   O16       1.0  0.24740  0.02359  0.02850  1.0000 -0.550774658
O   O17       1.0  0.29830  0.18659  0.27710  1.0000 -0.4766615274
O   O18       1.0  0.70170  0.68659  0.72290  1.0000 -0.4766615274
O   O19       1.0  0.70170  0.81341  0.72290  1.0000 -0.4766615274
O   O20       1.0  0.29830  0.31341  0.27710  1.0000 -0.4766615274
O   O21       1.0  0.43090  0.18958  0.36000  1.0000 -0.6276171448
O   O22       1.0  0.56910  0.68958  0.64000  1.0000 -0.6276171448
O   O23       1.0  0.56910  0.81042  0.64000  1.0000 -0.6276171448
O   O24       1.0  0.43090  0.31042  0.36000  1.0000 -0.6276171448
O   O25       1.0  0.66810  0.28926  0.37110  1.0000 -0.5307785514
O   O26       1.0  0.33190  0.78926  0.62890  1.0000 -0.5307785514
O   O27       1.0  0.33190  0.71074  0.62890  1.0000 -0.5307785514
O   O28       1.0  0.66810  0.21074  0.37110  1.0000 -0.5307785514
O   O29       1.0  0.12010  0.28951  0.33360  1.0000 -0.5364334526
O   O30       1.0  0.87990  0.78951  0.66640  1.0000 -0.5364334526
O   O31       1.0  0.87990  0.71049  0.66640  1.0000 -0.5364334526
O   O32       1.0  0.12010  0.21049  0.33360  1.0000 -0.5364334526
