# DDEC6 charges by PACMAN v1.1 (https://github.com/mtap-research/PACMAN-charge/)
data_2023[Gd][kgd]2[ASR]1
_chemical_formula_sum              "Gd2 H14 C24 N4 O14"
_cell_length_a       6.4267
_cell_length_b       8.6326
_cell_length_c       13.2931
_cell_angle_alpha    74.133
_cell_angle_beta     76.952
_cell_angle_gamma    75.921

_symmetry_space_group_name_H-M    "P 1"
_symmetry_Int_Tables_number       1

loop_
  _symmetry_equiv_pos_as_xyz
  'x, y, z'

loop_
  _atom_site_type_symbol
  _atom_site_label
  _atom_site_symmetry_multiplicity
  _atom_site_fract_x
  _atom_site_fract_y
  _atom_site_fract_z
  _atom_site_occupancy
  _atom_site_charge
Gd  Gd1       1.0  0.36488  0.22006  0.03454  1.0000 1.9514487675
Gd  Gd2       1.0  0.63512  0.77994  0.96546  1.0000 1.9514487675
H   H1        1.0  0.18716  0.74216  0.54241  1.0000 0.1186674526
H   H2        1.0  0.81284  0.25784  0.45759  1.0000 0.1186674526
H   H3        1.0  0.18021  0.64262  0.72126  1.0000 0.1186674526
H   H4        1.0  0.81979  0.35738  0.27874  1.0000 0.1186674526
H   H5        1.0  0.26443  0.19073  0.68574  1.0000 0.1258907458
H   H6        1.0  0.73557  0.80927  0.31426  1.0000 0.1258907458
H   H7        1.0  0.27800  0.28848  0.50633  1.0000 0.1107077217
H   H8        1.0  0.72200  0.71152  0.49367  1.0000 0.1107077217
H   H9        1.0  0.29177  0.39767  0.33262  1.0000 0.307652562
H   H10       1.0  0.70823  0.60233  0.66738  1.0000 0.307652562
H   H11       1.0  0.92166  0.36348  0.09080  1.0000 0.3611179879
H   H12       1.0  0.07834  0.63652  0.90920  1.0000 0.3611179879
H   H13       1.0  0.94125  0.22252  0.05866  1.0000 0.3413223914
H   H14       1.0  0.05875  0.77748  0.94134  1.0000 0.3413223914
C   C1        1.0  0.31970  0.54400  0.12710  1.0000 0.6053728751
C   C2        1.0  0.68030  0.45600  0.87290  1.0000 0.6053728751
C   C3        1.0  0.29420  0.60480  0.22260  1.0000 -0.0203496906
C   C4        1.0  0.70580  0.39520  0.77740  1.0000 -0.0203496906
C   C5        1.0  0.26880  0.75800  0.24050  1.0000 -0.0009492167
C   C6        1.0  0.73120  0.24200  0.75950  1.0000 -0.0009492167
C   C7        1.0  0.27990  0.91630  0.16930  1.0000 0.5766180447
C   C8        1.0  0.72010  0.08370  0.83070  1.0000 0.5766180447
C   C9        1.0  0.25190  0.59110  0.39190  1.0000 0.2619882813
C   C10       1.0  0.74810  0.40890  0.60810  1.0000 0.2619882813
C   C11       1.0  0.23820  0.52420  0.50540  1.0000 0.0054656808
C   C12       1.0  0.76180  0.47580  0.49460  1.0000 0.0054656808
C   C13       1.0  0.20550  0.62960  0.57100  1.0000 -0.1383625129
C   C14       1.0  0.79450  0.37040  0.42900  1.0000 -0.1383625129
C   C15       1.0  0.19970  0.57010  0.67800  1.0000 -0.118058634
C   C16       1.0  0.80030  0.42990  0.32200  1.0000 -0.118058634
C   C17       1.0  0.22190  0.40800  0.72140  1.0000 -0.031642354
C   C18       1.0  0.77810  0.59200  0.27860  1.0000 -0.031642354
C   C19       1.0  0.25040  0.30300  0.65660  1.0000 -0.0856801578
C   C20       1.0  0.74960  0.69700  0.34340  1.0000 -0.0856801578
C   C21       1.0  0.25840  0.36140  0.54930  1.0000 -0.1515554496
C   C22       1.0  0.74160  0.63860  0.45070  1.0000 -0.1515554496
C   C23       1.0  0.23150  0.34520  0.83590  1.0000 0.5202189377
C   C24       1.0  0.76850  0.65480  0.16410  1.0000 0.5202189377
N   N1        1.0  0.28200  0.50220  0.31950  1.0000 -0.2408224055
N   N2        1.0  0.71800  0.49780  0.68050  1.0000 -0.2408224055
N   N3        1.0  0.24110  0.74520  0.34610  1.0000 -0.3142454186
N   N4        1.0  0.75890  0.25480  0.65390  1.0000 -0.3142454186
O   O1        1.0  0.28870  0.40350  0.14190  1.0000 -0.62373072
O   O2        1.0  0.71130  0.59650  0.85810  1.0000 -0.62373072
O   O3        1.0  0.36310  0.63410  0.03950  1.0000 -0.62373072
O   O4        1.0  0.63690  0.36590  0.96050  1.0000 -0.62373072
O   O5        1.0  0.35340  0.93280  0.07080  1.0000 -0.7141044149
O   O6        1.0  0.64660  0.06720  0.92920  1.0000 -0.7141044149
O   O7        1.0  0.22560  0.03760  0.20680  1.0000 -0.5332338223
O   O8        1.0  0.77440  0.96240  0.79320  1.0000 -0.5332338223
O   O9        1.0  0.24050  0.19820  0.87760  1.0000 -0.5605040202
O   O10       1.0  0.75950  0.80180  0.12240  1.0000 -0.5605040202
O   O11       1.0  0.24120  0.43870  0.89010  1.0000 -0.5886410782
O   O12       1.0  0.75880  0.56130  0.10990  1.0000 -0.5886410782
O   O13       1.0  0.98580  0.27710  0.07340  1.0000 -0.6595282861
O   O14       1.0  0.01420  0.72290  0.92660  1.0000 -0.6595282861
