# DDEC6 charges by PACMAN v1.1 (https://github.com/mtap-research/PACMAN-charge/)
data_2023[NiW][sql]2[ASR]1
_chemical_formula_sum              "Ni8 H128 W8 C160 S32 N32 O16"
_cell_length_a       21.641
_cell_length_b       13.6395
_cell_length_c       22.3868
_cell_angle_alpha    90
_cell_angle_beta     119.667
_cell_angle_gamma    90

_symmetry_space_group_name_H-M    "P 1"
_symmetry_Int_Tables_number       1

loop_
  _symmetry_equiv_pos_as_xyz
  'x, y, z'

loop_
  _atom_site_type_symbol
  _atom_site_label
  _atom_site_symmetry_multiplicity
  _atom_site_fract_x
  _atom_site_fract_y
  _atom_site_fract_z
  _atom_site_occupancy
  _atom_site_charge
Ni  Ni1       1.0  0.48940  0.76680  0.25250  1.0000 0.73877897
Ni  Ni2       1.0  0.51060  0.26680  0.24750  1.0000 0.73877897
Ni  Ni3       1.0  0.99300  0.71040  0.25720  1.0000 0.73877897
Ni  Ni4       1.0  0.00700  0.21040  0.24280  1.0000 0.73877897
Ni  Ni5       1.0  0.51060  0.23320  0.74750  1.0000 0.73877897
Ni  Ni6       1.0  0.48940  0.73320  0.75250  1.0000 0.73877897
Ni  Ni7       1.0  0.00700  0.28960  0.74280  1.0000 0.7348649884
Ni  Ni8       1.0  0.99300  0.78960  0.75720  1.0000 0.73877897
H   H1        1.0  0.46071  0.59277  0.16259  1.0000 0.1011672341
H   H2        1.0  0.53929  0.09277  0.33741  1.0000 0.1011672341
H   H3        1.0  0.50275  0.51675  0.09591  1.0000 0.1264885971
H   H4        1.0  0.49725  0.01675  0.40409  1.0000 0.1264885971
H   H5        1.0  0.62802  0.75213  0.12212  1.0000 0.1200684841
H   H6        1.0  0.37198  0.25213  0.37788  1.0000 0.1200684841
H   H7        1.0  0.58599  0.82815  0.18880  1.0000 0.0908700728
H   H8        1.0  0.41401  0.32815  0.31120  1.0000 0.0908700728
H   H9        1.0  0.74362  0.56419  0.16287  1.0000 0.1200684841
H   H10       1.0  0.25638  0.06419  0.33713  1.0000 0.1200684841
H   H11       1.0  0.86576  0.57766  0.23955  1.0000 0.1082230875
H   H12       1.0  0.13424  0.07766  0.26045  1.0000 0.1082230875
H   H13       1.0  0.88357  0.77046  0.11112  1.0000 0.0687449725
H   H14       1.0  0.11643  0.27046  0.38888  1.0000 0.0687449725
H   H15       1.0  0.76143  0.75699  0.03444  1.0000 0.1200684841
H   H16       1.0  0.23857  0.25699  0.46556  1.0000 0.1200684841
H   H17       1.0  0.98309  0.54558  0.15884  1.0000 0.1082230875
H   H18       1.0  0.01691  0.04558  0.34116  1.0000 0.1082230875
H   H19       1.0  0.02489  0.51312  0.08240  1.0000 0.1200684841
H   H20       1.0  0.97511  0.01312  0.41760  1.0000 0.1200684841
H   H21       1.0  0.11918  0.78022  0.12297  1.0000 0.1200684841
H   H22       1.0  0.88082  0.28022  0.37703  1.0000 0.1200684841
H   H23       1.0  0.07738  0.81269  0.19941  1.0000 0.1011672341
H   H24       1.0  0.92262  0.31269  0.30059  1.0000 0.1011672341
H   H25       1.0  0.23769  0.62483  0.14823  1.0000 0.1200684841
H   H26       1.0  0.76231  0.12483  0.35177  1.0000 0.1200684841
H   H27       1.0  0.35982  0.63485  0.22573  1.0000 0.1011672341
H   H28       1.0  0.64018  0.13485  0.27427  1.0000 0.1011672341
H   H29       1.0  0.37681  0.85617  0.11390  1.0000 0.0908700728
H   H30       1.0  0.62319  0.35617  0.38610  1.0000 0.0908700728
H   H31       1.0  0.25468  0.84615  0.03640  1.0000 0.1200684841
H   H32       1.0  0.74532  0.34615  0.46360  1.0000 0.1200684841
H   H33       1.0  0.14854  0.62907  0.32658  1.0000 0.1011672341
H   H34       1.0  0.85146  0.12907  0.17342  1.0000 0.1011672341
H   H35       1.0  0.26421  0.68487  0.40009  1.0000 0.1200684841
H   H36       1.0  0.73579  0.18487  0.09991  1.0000 0.1200684841
H   H37       1.0  0.18542  0.94481  0.41998  1.0000 0.1264885971
H   H38       1.0  0.81458  0.44481  0.08002  1.0000 0.1264885971
H   H39       1.0  0.06976  0.88901  0.34647  1.0000 0.1082230875
H   H40       1.0  0.93024  0.38901  0.15353  1.0000 0.1082230875
H   H41       1.0  0.50653  0.70284  0.48057  1.0000 0.1200684841
H   H42       1.0  0.49347  0.20284  0.01943  1.0000 0.1200684841
H   H43       1.0  0.54502  0.71314  0.39978  1.0000 0.0908700728
H   H44       1.0  0.45498  0.21314  0.10022  1.0000 0.0908700728
H   H45       1.0  0.36922  0.87063  0.27363  1.0000 0.1082230875
H   H46       1.0  0.63078  0.37063  0.22637  1.0000 0.1082230875
H   H47       1.0  0.33074  0.86033  0.35442  1.0000 0.1200684841
H   H48       1.0  0.66926  0.36033  0.14558  1.0000 0.1200684841
H   H49       1.0  0.57840  0.94060  0.33759  1.0000 0.1011672341
H   H50       1.0  0.42160  0.44060  0.16241  1.0000 0.1011672341
H   H51       1.0  0.69783  0.98263  0.40906  1.0000 0.1264885971
H   H52       1.0  0.30217  0.48263  0.09094  1.0000 0.1264885971
H   H53       1.0  0.75623  0.70443  0.39649  1.0000 0.1200684841
H   H54       1.0  0.24377  0.20443  0.10351  1.0000 0.1200684841
H   H55       1.0  0.63680  0.66240  0.32502  1.0000 0.1082230875
H   H56       1.0  0.36320  0.16240  0.17498  1.0000 0.1082230875
H   H57       1.0  0.98696  0.65573  0.47774  1.0000 0.1200684841
H   H58       1.0  0.01304  0.15573  0.02226  1.0000 0.1200684841
H   H59       1.0  0.02607  0.63380  0.39813  1.0000 0.0908700728
H   H60       1.0  0.97393  0.13380  0.10187  1.0000 0.0908700728
H   H61       1.0  0.88314  0.83569  0.27291  1.0000 0.1082230875
H   H62       1.0  0.11686  0.33569  0.22709  1.0000 0.1082230875
H   H63       1.0  0.84401  0.85762  0.35251  1.0000 0.1200684841
H   H64       1.0  0.15599  0.35762  0.14749  1.0000 0.1200684841
H   H65       1.0  0.53929  0.40723  0.83741  1.0000 0.1011672341
H   H66       1.0  0.46071  0.90723  0.66259  1.0000 0.1011672341
H   H67       1.0  0.49725  0.48325  0.90409  1.0000 0.1264885971
H   H68       1.0  0.50275  0.98325  0.59591  1.0000 0.1264885971
H   H69       1.0  0.37198  0.24787  0.87788  1.0000 0.1200684841
H   H70       1.0  0.62802  0.74787  0.62212  1.0000 0.1200684841
H   H71       1.0  0.41401  0.17185  0.81120  1.0000 0.0908700728
H   H72       1.0  0.58599  0.67185  0.68880  1.0000 0.0908700728
H   H73       1.0  0.25638  0.43581  0.83713  1.0000 0.1200684841
H   H74       1.0  0.74362  0.93581  0.66287  1.0000 0.1200684841
H   H75       1.0  0.13424  0.42234  0.76045  1.0000 0.1082230875
H   H76       1.0  0.86576  0.92234  0.73955  1.0000 0.1082230875
H   H77       1.0  0.11643  0.22954  0.88888  1.0000 0.0687449725
H   H78       1.0  0.88357  0.72954  0.61112  1.0000 0.0687449725
H   H79       1.0  0.23857  0.24301  0.96556  1.0000 0.1200684841
H   H80       1.0  0.76143  0.74301  0.53444  1.0000 0.1200684841
H   H81       1.0  0.01691  0.45442  0.84116  1.0000 0.1082230875
H   H82       1.0  0.98309  0.95442  0.65884  1.0000 0.1082230875
H   H83       1.0  0.97511  0.48688  0.91760  1.0000 0.1200684841
H   H84       1.0  0.02489  0.98688  0.58240  1.0000 0.1200684841
H   H85       1.0  0.88082  0.21978  0.87703  1.0000 0.1200684841
H   H86       1.0  0.11918  0.71978  0.62297  1.0000 0.1200684841
H   H87       1.0  0.92262  0.18731  0.80059  1.0000 0.1011672341
H   H88       1.0  0.07738  0.68731  0.69941  1.0000 0.1011672341
H   H89       1.0  0.76231  0.37517  0.85177  1.0000 0.1200684841
H   H90       1.0  0.23769  0.87517  0.64823  1.0000 0.1200684841
H   H91       1.0  0.64018  0.36515  0.77427  1.0000 0.1011672341
H   H92       1.0  0.35982  0.86515  0.72573  1.0000 0.1011672341
H   H93       1.0  0.62319  0.14383  0.88610  1.0000 0.0908700728
H   H94       1.0  0.37681  0.64383  0.61390  1.0000 0.0908700728
H   H95       1.0  0.74532  0.15385  0.96360  1.0000 0.1200684841
H   H96       1.0  0.25468  0.65385  0.53640  1.0000 0.1200684841
H   H97       1.0  0.85146  0.37093  0.67342  1.0000 0.1011672341
H   H98       1.0  0.14854  0.87093  0.82658  1.0000 0.1011672341
H   H99       1.0  0.73579  0.31513  0.59991  1.0000 0.1200684841
H   H100      1.0  0.26421  0.81513  0.90009  1.0000 0.1200684841
H   H101      1.0  0.81458  0.05519  0.58002  1.0000 0.1264885971
H   H102      1.0  0.18542  0.55519  0.91998  1.0000 0.1264885971
H   H103      1.0  0.93024  0.11099  0.65353  1.0000 0.1082230875
H   H104      1.0  0.06976  0.61099  0.84647  1.0000 0.1082230875
H   H105      1.0  0.49347  0.29716  0.51943  1.0000 0.1200684841
H   H106      1.0  0.50653  0.79716  0.98057  1.0000 0.1200684841
H   H107      1.0  0.45498  0.28686  0.60022  1.0000 0.0908700728
H   H108      1.0  0.54502  0.78686  0.89978  1.0000 0.0908700728
H   H109      1.0  0.63078  0.12937  0.72637  1.0000 0.1082230875
H   H110      1.0  0.36922  0.62937  0.77363  1.0000 0.1082230875
H   H111      1.0  0.66926  0.13967  0.64558  1.0000 0.1200684841
H   H112      1.0  0.33074  0.63967  0.85442  1.0000 0.1200684841
H   H113      1.0  0.42160  0.05940  0.66241  1.0000 0.1011672341
H   H114      1.0  0.57840  0.55940  0.83759  1.0000 0.1011672341
H   H115      1.0  0.30217  0.01737  0.59094  1.0000 0.1264885971
H   H116      1.0  0.69783  0.51737  0.90906  1.0000 0.1264885971
H   H117      1.0  0.24377  0.29557  0.60351  1.0000 0.1200684841
H   H118      1.0  0.75623  0.79557  0.89649  1.0000 0.1200684841
H   H119      1.0  0.36320  0.33760  0.67498  1.0000 0.1082230875
H   H120      1.0  0.63680  0.83760  0.82502  1.0000 0.1082230875
H   H121      1.0  0.01304  0.34427  0.52226  1.0000 0.1200684841
H   H122      1.0  0.98696  0.84427  0.97774  1.0000 0.1200684841
H   H123      1.0  0.97393  0.36620  0.60187  1.0000 0.0908700728
H   H124      1.0  0.02607  0.86620  0.89813  1.0000 0.0908700728
H   H125      1.0  0.11686  0.16431  0.72709  1.0000 0.1082230875
H   H126      1.0  0.88314  0.66431  0.77291  1.0000 0.1082230875
H   H127      1.0  0.15599  0.14238  0.64749  1.0000 0.1200684841
H   H128      1.0  0.84401  0.64238  0.85251  1.0000 0.1200684841
W   W1        1.0  0.50961  0.51063  0.32506  1.0000 0.9604247793
W   W2        1.0  0.49039  0.01063  0.17494  1.0000 0.9604247793
W   W3        1.0  0.05618  0.45613  0.33018  1.0000 0.8222240889
W   W4        1.0  0.94382  0.95613  0.16982  1.0000 0.8126334334
W   W5        1.0  0.49039  0.48937  0.67494  1.0000 0.9604247793
W   W6        1.0  0.50961  0.98937  0.82506  1.0000 0.9493018771
W   W7        1.0  0.94382  0.54387  0.66982  1.0000 0.8222240889
W   W8        1.0  0.05618  0.04387  0.83018  1.0000 0.8272798443
C   C1        1.0  0.49470  0.62510  0.15440  1.0000 0.0687449725
C   C2        1.0  0.50530  0.12510  0.34560  1.0000 0.0687449725
C   C3        1.0  0.51970  0.58000  0.11480  1.0000 -0.2180815817
C   C4        1.0  0.48030  0.08000  0.38520  1.0000 -0.2180815817
C   C5        1.0  0.56930  0.62730  0.10270  1.0000 0.0908700728
C   C6        1.0  0.43070  0.12730  0.39730  1.0000 0.0908700728
C   C7        1.0  0.59400  0.71980  0.13030  1.0000 -0.212364899
C   C8        1.0  0.40600  0.21980  0.36970  1.0000 -0.212364899
C   C9        1.0  0.56900  0.76490  0.16990  1.0000 0.051905588
C   C10       1.0  0.43100  0.26490  0.33010  1.0000 0.051905588
C   C11       1.0  0.74100  0.65930  0.09140  1.0000 0.1011672341
C   C12       1.0  0.25900  0.15930  0.40860  1.0000 0.1011672341
C   C13       1.0  0.77210  0.60610  0.15240  1.0000 -0.2180815817
C   C14       1.0  0.22790  0.10610  0.34760  1.0000 -0.2180815817
C   C15       1.0  0.84460  0.61410  0.19790  1.0000 0.0687449725
C   C16       1.0  0.15540  0.11410  0.30210  1.0000 0.0687449725
C   C17       1.0  0.85510  0.72860  0.12160  1.0000 0.051905588
C   C18       1.0  0.14490  0.22860  0.37840  1.0000 0.051905588
C   C19       1.0  0.78260  0.72060  0.07610  1.0000 -0.2180815817
C   C20       1.0  0.21740  0.22060  0.42390  1.0000 -0.2180815817
C   C21       1.0  0.01080  0.59320  0.15160  1.0000 0.05894094
C   C22       1.0  0.98920  0.09320  0.34840  1.0000 0.05894094
C   C23       1.0  0.03560  0.57390  0.10620  1.0000 -0.2180815817
C   C24       1.0  0.96440  0.07390  0.39380  1.0000 -0.2180815817
C   C25       1.0  0.07600  0.64360  0.09550  1.0000 0.0908700728
C   C26       1.0  0.92400  0.14360  0.40450  1.0000 0.0908700728
C   C27       1.0  0.09160  0.73260  0.13030  1.0000 -0.212364899
C   C28       1.0  0.90840  0.23260  0.36970  1.0000 -0.212364899
C   C29       1.0  0.06680  0.75190  0.17570  1.0000 0.051905588
C   C30       1.0  0.93320  0.25190  0.32430  1.0000 0.05894094
C   C31       1.0  0.23470  0.73450  0.08500  1.0000 0.0908700728
C   C32       1.0  0.76530  0.23450  0.41500  1.0000 0.0908700728
C   C33       1.0  0.26600  0.67180  0.14130  1.0000 -0.212364899
C   C34       1.0  0.73400  0.17180  0.35870  1.0000 -0.212364899
C   C35       1.0  0.33850  0.67770  0.18730  1.0000 0.05894094
C   C36       1.0  0.66150  0.17770  0.31270  1.0000 0.05894094
C   C37       1.0  0.34860  0.80920  0.12090  1.0000 0.05894094
C   C38       1.0  0.65140  0.30920  0.37910  1.0000 0.05894094
C   C39       1.0  0.27600  0.80330  0.07480  1.0000 -0.212364899
C   C40       1.0  0.72400  0.30330  0.42520  1.0000 -0.212364899
C   C41       1.0  0.15600  0.69320  0.34550  1.0000 0.051905588
C   C42       1.0  0.84400  0.19320  0.15450  1.0000 0.05894094
C   C43       1.0  0.22470  0.72630  0.38920  1.0000 -0.212364899
C   C44       1.0  0.77530  0.22630  0.11080  1.0000 -0.212364899
C   C45       1.0  0.23560  0.82010  0.41690  1.0000 0.1011672341
C   C46       1.0  0.76440  0.32010  0.08310  1.0000 0.1011672341
C   C47       1.0  0.17790  0.88070  0.40100  1.0000 -0.2180815817
C   C48       1.0  0.82210  0.38070  0.09900  1.0000 -0.2180815817
C   C49       1.0  0.10930  0.84760  0.35740  1.0000 0.05894094
C   C50       1.0  0.89070  0.34760  0.14260  1.0000 0.05894094
C   C51       1.0  0.41500  0.78060  0.42510  1.0000 0.0908700728
C   C52       1.0  0.58500  0.28060  0.07490  1.0000 0.0908700728
C   C53       1.0  0.47870  0.73690  0.43860  1.0000 -0.2180815817
C   C54       1.0  0.52130  0.23690  0.06140  1.0000 -0.2180815817
C   C55       1.0  0.50150  0.74300  0.39060  1.0000 0.0442647887
C   C56       1.0  0.49850  0.24300  0.10940  1.0000 0.0442647887
C   C57       1.0  0.39710  0.83660  0.31560  1.0000 0.0687449725
C   C58       1.0  0.60290  0.33660  0.18440  1.0000 0.0687449725
C   C59       1.0  0.37420  0.83050  0.36360  1.0000 -0.2180815817
C   C60       1.0  0.62580  0.33050  0.13640  1.0000 -0.2180815817
C   C61       1.0  0.61440  0.89270  0.34950  1.0000 0.05894094
C   C62       1.0  0.38560  0.39270  0.15050  1.0000 0.05894094
C   C63       1.0  0.68540  0.91760  0.39200  1.0000 -0.2180815817
C   C64       1.0  0.31460  0.41760  0.10800  1.0000 -0.2180815817
C   C65       1.0  0.73830  0.84750  0.40950  1.0000 0.1011672341
C   C66       1.0  0.26170  0.34750  0.09050  1.0000 0.1011672341
C   C67       1.0  0.72010  0.75240  0.38450  1.0000 -0.212364899
C   C68       1.0  0.27990  0.25240  0.11550  1.0000 -0.212364899
C   C69       1.0  0.64920  0.72740  0.34210  1.0000 0.05894094
C   C70       1.0  0.35080  0.22740  0.15790  1.0000 0.05894094
C   C71       1.0  0.91180  0.75870  0.42260  1.0000 0.0908700728
C   C72       1.0  0.08820  0.25870  0.07740  1.0000 0.0908700728
C   C73       1.0  0.96590  0.69230  0.43620  1.0000 -0.2180815817
C   C74       1.0  0.03410  0.19230  0.06380  1.0000 -0.2180815817
C   C75       1.0  0.98910  0.67920  0.38890  1.0000 0.051905588
C   C76       1.0  0.01090  0.17920  0.11110  1.0000 0.051905588
C   C77       1.0  0.90420  0.79920  0.31450  1.0000 0.0687449725
C   C78       1.0  0.09580  0.29920  0.18550  1.0000 0.0687449725
C   C79       1.0  0.88100  0.81220  0.36180  1.0000 -0.212364899
C   C80       1.0  0.11900  0.31220  0.13820  1.0000 -0.212364899
C   C81       1.0  0.50530  0.37490  0.84560  1.0000 0.0687449725
C   C82       1.0  0.49470  0.87490  0.65440  1.0000 0.0687449725
C   C83       1.0  0.48030  0.42000  0.88520  1.0000 -0.2180815817
C   C84       1.0  0.51970  0.92000  0.61480  1.0000 -0.2180815817
C   C85       1.0  0.43070  0.37270  0.89730  1.0000 0.0908700728
C   C86       1.0  0.56930  0.87270  0.60270  1.0000 0.0908700728
C   C87       1.0  0.40600  0.28020  0.86970  1.0000 -0.212364899
C   C88       1.0  0.59400  0.78020  0.63030  1.0000 -0.212364899
C   C89       1.0  0.43100  0.23510  0.83010  1.0000 0.051905588
C   C90       1.0  0.56900  0.73510  0.66990  1.0000 0.051905588
C   C91       1.0  0.25900  0.34070  0.90860  1.0000 0.1011672341
C   C92       1.0  0.74100  0.84070  0.59140  1.0000 0.1011672341
C   C93       1.0  0.22790  0.39390  0.84760  1.0000 -0.2180815817
C   C94       1.0  0.77210  0.89390  0.65240  1.0000 -0.2180815817
C   C95       1.0  0.15540  0.38590  0.80210  1.0000 0.0687449725
C   C96       1.0  0.84460  0.88590  0.69790  1.0000 0.0687449725
C   C97       1.0  0.14490  0.27140  0.87840  1.0000 0.051905588
C   C98       1.0  0.85510  0.77140  0.62160  1.0000 0.051905588
C   C99       1.0  0.21740  0.27940  0.92390  1.0000 -0.2180815817
C   C100      1.0  0.78260  0.77940  0.57610  1.0000 -0.2180815817
C   C101      1.0  0.98920  0.40680  0.84840  1.0000 0.05894094
C   C102      1.0  0.01080  0.90680  0.65160  1.0000 0.05894094
C   C103      1.0  0.96440  0.42610  0.89380  1.0000 -0.2180815817
C   C104      1.0  0.03560  0.92610  0.60620  1.0000 -0.2180815817
C   C105      1.0  0.92400  0.35640  0.90450  1.0000 0.0908700728
C   C106      1.0  0.07600  0.85640  0.59550  1.0000 0.0908700728
C   C107      1.0  0.90840  0.26740  0.86970  1.0000 -0.212364899
C   C108      1.0  0.09160  0.76740  0.63030  1.0000 -0.212364899
C   C109      1.0  0.93320  0.24810  0.82430  1.0000 0.051905588
C   C110      1.0  0.06680  0.74810  0.67570  1.0000 0.05894094
C   C111      1.0  0.76530  0.26550  0.91500  1.0000 0.0908700728
C   C112      1.0  0.23470  0.76550  0.58500  1.0000 0.0908700728
C   C113      1.0  0.73400  0.32820  0.85870  1.0000 -0.212364899
C   C114      1.0  0.26600  0.82820  0.64130  1.0000 -0.212364899
C   C115      1.0  0.66150  0.32230  0.81270  1.0000 0.05894094
C   C116      1.0  0.33850  0.82230  0.68730  1.0000 0.05894094
C   C117      1.0  0.65140  0.19080  0.87910  1.0000 0.05894094
C   C118      1.0  0.34860  0.69080  0.62090  1.0000 0.05894094
C   C119      1.0  0.72400  0.19670  0.92520  1.0000 -0.212364899
C   C120      1.0  0.27600  0.69670  0.57480  1.0000 -0.212364899
C   C121      1.0  0.84400  0.30680  0.65450  1.0000 0.05894094
C   C122      1.0  0.15600  0.80680  0.84550  1.0000 0.05894094
C   C123      1.0  0.77530  0.27370  0.61080  1.0000 -0.212364899
C   C124      1.0  0.22470  0.77370  0.88920  1.0000 -0.212364899
C   C125      1.0  0.76440  0.17990  0.58310  1.0000 0.1011672341
C   C126      1.0  0.23560  0.67990  0.91690  1.0000 0.1011672341
C   C127      1.0  0.82210  0.11930  0.59900  1.0000 -0.2180815817
C   C128      1.0  0.17790  0.61930  0.90100  1.0000 -0.2180815817
C   C129      1.0  0.89070  0.15240  0.64260  1.0000 0.05894094
C   C130      1.0  0.10930  0.65240  0.85740  1.0000 0.05894094
C   C131      1.0  0.58500  0.21940  0.57490  1.0000 0.0908700728
C   C132      1.0  0.41500  0.71940  0.92510  1.0000 0.0908700728
C   C133      1.0  0.52130  0.26310  0.56140  1.0000 -0.2180815817
C   C134      1.0  0.47870  0.76310  0.93860  1.0000 -0.2180815817
C   C135      1.0  0.49850  0.25700  0.60940  1.0000 0.0442647887
C   C136      1.0  0.50150  0.75700  0.89060  1.0000 0.0442647887
C   C137      1.0  0.60290  0.16340  0.68440  1.0000 0.0687449725
C   C138      1.0  0.39710  0.66340  0.81560  1.0000 0.0687449725
C   C139      1.0  0.62580  0.16950  0.63640  1.0000 -0.2180815817
C   C140      1.0  0.37420  0.66950  0.86360  1.0000 -0.2180815817
C   C141      1.0  0.38560  0.10730  0.65050  1.0000 0.05894094
C   C142      1.0  0.61440  0.60730  0.84950  1.0000 0.05894094
C   C143      1.0  0.31460  0.08240  0.60800  1.0000 -0.212364899
C   C144      1.0  0.68540  0.58240  0.89200  1.0000 -0.2180815817
C   C145      1.0  0.26170  0.15250  0.59050  1.0000 0.1011672341
C   C146      1.0  0.73830  0.65250  0.90950  1.0000 0.1011672341
C   C147      1.0  0.27990  0.24760  0.61550  1.0000 -0.212364899
C   C148      1.0  0.72010  0.74760  0.88450  1.0000 -0.212364899
C   C149      1.0  0.35080  0.27260  0.65790  1.0000 0.05894094
C   C150      1.0  0.64920  0.77260  0.84210  1.0000 0.05894094
C   C151      1.0  0.08820  0.24130  0.57740  1.0000 0.0908700728
C   C152      1.0  0.91180  0.74130  0.92260  1.0000 0.0908700728
C   C153      1.0  0.03410  0.30770  0.56380  1.0000 -0.2180815817
C   C154      1.0  0.96590  0.80770  0.93620  1.0000 -0.2180815817
C   C155      1.0  0.01090  0.32080  0.61110  1.0000 0.051905588
C   C156      1.0  0.98910  0.82080  0.88890  1.0000 0.051905588
C   C157      1.0  0.09580  0.20080  0.68550  1.0000 0.0687449725
C   C158      1.0  0.90420  0.70080  0.81450  1.0000 0.0687449725
C   C159      1.0  0.11900  0.18780  0.63820  1.0000 -0.212364899
C   C160      1.0  0.88100  0.68780  0.86180  1.0000 -0.212364899
S   S1        1.0  0.60010  0.56020  0.05570  1.0000 -0.0019686936
S   S2        1.0  0.39990  0.06020  0.44430  1.0000 -0.0019686936
S   S3        1.0  0.64820  0.65910  0.02650  1.0000 -0.0121850351
S   S4        1.0  0.35180  0.15910  0.47350  1.0000 -0.0121850351
S   S5        1.0  0.10120  0.61670  0.03350  1.0000 0.000826899
S   S6        1.0  0.89880  0.11670  0.46650  1.0000 0.000826899
S   S7        1.0  0.14180  0.74140  0.02130  1.0000 -0.0019686936
S   S8        1.0  0.85820  0.24140  0.47870  1.0000 -0.0019686936
S   S9        1.0  0.32130  0.86800  0.47460  1.0000 -0.0409235498
S   S10       1.0  0.67870  0.36800  0.02540  1.0000 -0.0409235498
S   S11       1.0  0.39180  0.76040  0.48890  1.0000 0.0202581249
S   S12       1.0  0.60820  0.26040  0.01110  1.0000 0.0202581249
S   S13       1.0  0.82810  0.88990  0.46250  1.0000 -0.0409235498
S   S14       1.0  0.17190  0.38990  0.03750  1.0000 -0.0409235498
S   S15       1.0  0.88960  0.76780  0.48770  1.0000 0.0202581249
S   S16       1.0  0.11040  0.26780  0.01230  1.0000 0.0202581249
S   S17       1.0  0.39990  0.43980  0.94430  1.0000 -0.0019686936
S   S18       1.0  0.60010  0.93980  0.55570  1.0000 -0.0019686936
S   S19       1.0  0.35180  0.34090  0.97350  1.0000 -0.0121850351
S   S20       1.0  0.64820  0.84090  0.52650  1.0000 -0.0121850351
S   S21       1.0  0.89880  0.38330  0.96650  1.0000 0.000826899
S   S22       1.0  0.10120  0.88330  0.53350  1.0000 -0.0019686936
S   S23       1.0  0.85820  0.25860  0.97870  1.0000 -0.0019686936
S   S24       1.0  0.14180  0.75860  0.52130  1.0000 -0.0019686936
S   S25       1.0  0.67870  0.13200  0.52540  1.0000 -0.0456142714
S   S26       1.0  0.32130  0.63200  0.97460  1.0000 -0.0456142714
S   S27       1.0  0.60820  0.23960  0.51110  1.0000 0.0202581249
S   S28       1.0  0.39180  0.73960  0.98890  1.0000 0.0202581249
S   S29       1.0  0.17190  0.11010  0.53750  1.0000 -0.0409235498
S   S30       1.0  0.82810  0.61010  0.96250  1.0000 -0.0409235498
S   S31       1.0  0.11040  0.23220  0.51230  1.0000 0.0202581249
S   S32       1.0  0.88960  0.73220  0.98770  1.0000 0.0202581249
N   N1        1.0  0.51940  0.71760  0.18200  1.0000 -0.2416828126
N   N2        1.0  0.48060  0.21760  0.31800  1.0000 -0.2416828126
N   N3        1.0  0.88610  0.67530  0.18250  1.0000 -0.2490811925
N   N4        1.0  0.11390  0.17530  0.31750  1.0000 -0.2490811925
N   N5        1.0  0.02630  0.68220  0.18630  1.0000 -0.2490811925
N   N6        1.0  0.97370  0.18220  0.31370  1.0000 -0.2490811925
N   N7        1.0  0.37980  0.74650  0.17710  1.0000 -0.2416828126
N   N8        1.0  0.62020  0.24650  0.32290  1.0000 -0.2416828126
N   N9        1.0  0.09830  0.75380  0.32960  1.0000 -0.2490811925
N   N10       1.0  0.90170  0.25380  0.17040  1.0000 -0.2490811925
N   N11       1.0  0.46070  0.79290  0.32910  1.0000 -0.2416828126
N   N12       1.0  0.53930  0.29290  0.17090  1.0000 -0.2416828126
N   N13       1.0  0.59640  0.79750  0.32460  1.0000 -0.2490811925
N   N14       1.0  0.40360  0.29750  0.17540  1.0000 -0.2490811925
N   N15       1.0  0.95820  0.73270  0.32800  1.0000 -0.2416828126
N   N16       1.0  0.04180  0.23270  0.17200  1.0000 -0.2416828126
N   N17       1.0  0.48060  0.28240  0.81800  1.0000 -0.2416828126
N   N18       1.0  0.51940  0.78240  0.68200  1.0000 -0.2416828126
N   N19       1.0  0.11390  0.32470  0.81750  1.0000 -0.2490811925
N   N20       1.0  0.88610  0.82470  0.68250  1.0000 -0.2490811925
N   N21       1.0  0.97370  0.31780  0.81370  1.0000 -0.2490811925
N   N22       1.0  0.02630  0.81780  0.68630  1.0000 -0.2490811925
N   N23       1.0  0.62020  0.25350  0.82290  1.0000 -0.2416828126
N   N24       1.0  0.37980  0.75350  0.67710  1.0000 -0.2416828126
N   N25       1.0  0.90170  0.24620  0.67040  1.0000 -0.2490811925
N   N26       1.0  0.09830  0.74620  0.82960  1.0000 -0.2490811925
N   N27       1.0  0.53930  0.20710  0.67090  1.0000 -0.2416828126
N   N28       1.0  0.46070  0.70710  0.82910  1.0000 -0.2416828126
N   N29       1.0  0.40360  0.20250  0.67540  1.0000 -0.2490811925
N   N30       1.0  0.59640  0.70250  0.82460  1.0000 -0.2490811925
N   N31       1.0  0.04180  0.26730  0.67200  1.0000 -0.2416828126
N   N32       1.0  0.95820  0.76730  0.82800  1.0000 -0.2416828126
O   O1        1.0  0.51770  0.41050  0.27790  1.0000 -0.7883687234
O   O2        1.0  0.48230  0.91050  0.22210  1.0000 -0.7883687234
O   O3        1.0  0.50060  0.62150  0.28220  1.0000 -0.7556736535
O   O4        1.0  0.49940  0.12150  0.21780  1.0000 -0.7556736535
O   O5        1.0  0.02610  0.35550  0.27460  1.0000 -0.7310485756
O   O6        1.0  0.97390  0.85550  0.22540  1.0000 -0.7310485756
O   O7        1.0  0.01490  0.56370  0.28580  1.0000 -0.7364574587
O   O8        1.0  0.98510  0.06370  0.21420  1.0000 -0.7364574587
O   O9        1.0  0.48230  0.58950  0.72210  1.0000 -0.7883687234
O   O10       1.0  0.51770  0.08950  0.77790  1.0000 -0.7883687234
O   O11       1.0  0.49940  0.37850  0.71780  1.0000 -0.7556736535
O   O12       1.0  0.50060  0.87850  0.78220  1.0000 -0.7556736535
O   O13       1.0  0.97390  0.64450  0.72540  1.0000 -0.7310485756
O   O14       1.0  0.02610  0.14450  0.77460  1.0000 -0.7310485756
O   O15       1.0  0.98510  0.43630  0.71420  1.0000 -0.7364574587
O   O16       1.0  0.01490  0.93630  0.78580  1.0000 -0.7364574587
