# DDEC6 charges by PACMAN v1.1 (https://github.com/mtap-research/PACMAN-charge/)
data_2023[CoW][sql]2[ASR]1
_chemical_formula_sum              "Co8 H128 W8 C160 S32 N32 O16"
_cell_length_a       21.995
_cell_length_b       13.5429
_cell_length_c       22.0974
_cell_angle_alpha    90
_cell_angle_beta     120.076
_cell_angle_gamma    90

_symmetry_space_group_name_H-M    "P 1"
_symmetry_Int_Tables_number       1

loop_
  _symmetry_equiv_pos_as_xyz
  'x, y, z'

loop_
  _atom_site_type_symbol
  _atom_site_label
  _atom_site_symmetry_multiplicity
  _atom_site_fract_x
  _atom_site_fract_y
  _atom_site_fract_z
  _atom_site_occupancy
  _atom_site_charge
Co  Co1       1.0  0.49231  0.70690  0.75602  1.0000 0.7917967589
Co  Co2       1.0  0.50769  0.20690  0.74398  1.0000 0.7917967589
Co  Co3       1.0  0.98700  0.77104  0.75115  1.0000 0.8185696156
Co  Co4       1.0  0.01300  0.27104  0.74885  1.0000 0.8185696156
Co  Co5       1.0  0.50769  0.29310  0.24398  1.0000 0.7917967589
Co  Co6       1.0  0.49231  0.79310  0.25602  1.0000 0.7917967589
Co  Co7       1.0  0.01300  0.22896  0.24885  1.0000 0.8185696156
Co  Co8       1.0  0.98700  0.72896  0.25115  1.0000 0.8185696156
H   H1        1.0  0.37902  0.75051  0.60668  1.0000 0.0687907231
H   H2        1.0  0.62098  0.25051  0.89332  1.0000 0.0687907231
H   H3        1.0  0.26182  0.75251  0.53547  1.0000 0.1213040302
H   H4        1.0  0.73818  0.25251  0.96453  1.0000 0.1213040302
H   H5        1.0  0.24410  0.55567  0.66196  1.0000 0.1213040302
H   H6        1.0  0.75590  0.05567  0.83804  1.0000 0.1213040302
H   H7        1.0  0.36433  0.57695  0.73881  1.0000 0.0996558128
H   H8        1.0  0.63567  0.07695  0.76119  1.0000 0.0996558128
H   H9        1.0  0.00478  0.50915  0.60016  1.0000 0.1213040302
H   H10       1.0  0.99522  0.00915  0.89984  1.0000 0.1213040302
H   H11       1.0  0.96337  0.59434  0.66104  1.0000 0.0996558128
H   H12       1.0  0.03663  0.09434  0.83896  1.0000 0.0996558128
H   H13       1.0  0.07862  0.82279  0.68506  1.0000 0.0800496855
H   H14       1.0  0.92138  0.32279  0.81494  1.0000 0.0800496855
H   H15       1.0  0.12732  0.75024  0.62378  1.0000 0.1213040302
H   H16       1.0  0.87268  0.25024  0.87622  1.0000 0.1213040302
H   H17       1.0  0.38766  0.83281  0.77518  1.0000 0.1075802979
H   H18       1.0  0.61234  0.33281  0.72482  1.0000 0.1075802979
H   H19       1.0  0.34357  0.85575  0.84999  1.0000 0.1213040302
H   H20       1.0  0.65643  0.35575  0.65001  1.0000 0.1213040302
H   H21       1.0  0.48346  0.65692  0.97891  1.0000 0.1213040302
H   H22       1.0  0.51654  0.15692  0.52109  1.0000 0.1213040302
H   H23       1.0  0.51601  0.63168  0.89674  1.0000 0.089457038
H   H24       1.0  0.48399  0.13168  0.60326  1.0000 0.089457038
H   H25       1.0  0.25288  0.70841  0.89539  1.0000 0.1213040302
H   H26       1.0  0.74712  0.20841  0.60461  1.0000 0.1213040302
H   H27       1.0  0.13604  0.67068  0.82964  1.0000 0.1075802979
H   H28       1.0  0.86396  0.17068  0.67036  1.0000 0.1075802979
H   H29       1.0  0.08073  0.93671  0.84440  1.0000 0.0996558128
H   H30       1.0  0.91927  0.43671  0.65560  1.0000 0.0996558128
H   H31       1.0  0.19649  0.98769  0.90713  1.0000 0.1254290642
H   H32       1.0  0.80351  0.48769  0.59287  1.0000 0.1254290642
H   H33       1.0  0.86911  0.86639  0.61148  1.0000 0.089457038
H   H34       1.0  0.13089  0.36639  0.88852  1.0000 0.089457038
H   H35       1.0  0.75140  0.85872  0.53476  1.0000 0.1213040302
H   H36       1.0  0.24860  0.35872  0.96524  1.0000 0.1213040302
H   H37       1.0  0.73646  0.63412  0.64382  1.0000 0.1213040302
H   H38       1.0  0.26354  0.13412  0.85618  1.0000 0.1213040302
H   H39       1.0  0.85565  0.64064  0.71702  1.0000 0.0996558128
H   H40       1.0  0.14435  0.14064  0.78298  1.0000 0.0996558128
H   H41       1.0  0.53143  0.51253  0.58025  1.0000 0.1213040302
H   H42       1.0  0.46857  0.01253  0.91975  1.0000 0.1213040302
H   H43       1.0  0.49653  0.53998  0.66002  1.0000 0.0996558128
H   H44       1.0  0.50347  0.03998  0.83998  1.0000 0.0996558128
H   H45       1.0  0.57237  0.80706  0.69290  1.0000 0.0996558128
H   H46       1.0  0.42763  0.30706  0.80710  1.0000 0.0996558128
H   H47       1.0  0.61441  0.78219  0.61816  1.0000 0.1213040302
H   H48       1.0  0.38559  0.28219  0.88184  1.0000 0.1213040302
H   H49       1.0  0.86859  0.86535  0.77480  1.0000 0.1075802979
H   H50       1.0  0.13141  0.36535  0.72520  1.0000 0.1075802979
H   H51       1.0  0.82991  0.86047  0.85409  1.0000 0.1075802979
H   H52       1.0  0.17009  0.36047  0.64591  1.0000 0.1075802979
H   H53       1.0  0.00889  0.70666  0.98448  1.0000 0.1213040302
H   H54       1.0  0.99111  0.20666  0.51552  1.0000 0.1213040302
H   H55       1.0  0.03977  0.72909  0.90113  1.0000 0.089457038
H   H56       1.0  0.96023  0.22909  0.59887  1.0000 0.089457038
H   H57       1.0  0.76037  0.68185  0.90292  1.0000 0.1213040302
H   H58       1.0  0.23963  0.18185  0.59708  1.0000 0.1213040302
H   H59       1.0  0.64736  0.63764  0.82243  1.0000 0.089457038
H   H60       1.0  0.35264  0.13764  0.67757  1.0000 0.089457038
H   H61       1.0  0.57564  0.88688  0.84692  1.0000 0.0996558128
H   H62       1.0  0.42436  0.38688  0.65308  1.0000 0.0996558128
H   H63       1.0  0.68915  0.94364  0.92126  1.0000 0.1254290642
H   H64       1.0  0.31085  0.44364  0.57874  1.0000 0.1254290642
H   H65       1.0  0.62098  0.24949  0.39332  1.0000 0.0687907231
H   H66       1.0  0.37902  0.74949  0.10668  1.0000 0.0687907231
H   H67       1.0  0.73818  0.24749  0.46453  1.0000 0.1213040302
H   H68       1.0  0.26182  0.74749  0.03547  1.0000 0.1213040302
H   H69       1.0  0.75590  0.44433  0.33804  1.0000 0.1213040302
H   H70       1.0  0.24410  0.94433  0.16196  1.0000 0.1213040302
H   H71       1.0  0.63567  0.42305  0.26119  1.0000 0.0996558128
H   H72       1.0  0.36433  0.92305  0.23881  1.0000 0.0996558128
H   H73       1.0  0.99522  0.49085  0.39984  1.0000 0.1213040302
H   H74       1.0  0.00478  0.99085  0.10016  1.0000 0.1213040302
H   H75       1.0  0.03663  0.40566  0.33896  1.0000 0.0996558128
H   H76       1.0  0.96337  0.90566  0.16104  1.0000 0.0996558128
H   H77       1.0  0.92138  0.17721  0.31494  1.0000 0.0800496855
H   H78       1.0  0.07862  0.67721  0.18506  1.0000 0.0800496855
H   H79       1.0  0.87268  0.24976  0.37622  1.0000 0.1213040302
H   H80       1.0  0.12732  0.74976  0.12378  1.0000 0.1213040302
H   H81       1.0  0.61234  0.16719  0.22482  1.0000 0.1075802979
H   H82       1.0  0.38766  0.66719  0.27518  1.0000 0.1075802979
H   H83       1.0  0.65643  0.14425  0.15001  1.0000 0.1213040302
H   H84       1.0  0.34357  0.64425  0.34999  1.0000 0.1213040302
H   H85       1.0  0.51654  0.34308  0.02109  1.0000 0.1213040302
H   H86       1.0  0.48346  0.84308  0.47891  1.0000 0.1213040302
H   H87       1.0  0.48399  0.36832  0.10326  1.0000 0.089457038
H   H88       1.0  0.51601  0.86832  0.39674  1.0000 0.089457038
H   H89       1.0  0.74712  0.29159  0.10461  1.0000 0.1213040302
H   H90       1.0  0.25288  0.79159  0.39539  1.0000 0.1213040302
H   H91       1.0  0.86396  0.32932  0.17036  1.0000 0.1075802979
H   H92       1.0  0.13604  0.82932  0.32964  1.0000 0.1075802979
H   H93       1.0  0.91927  0.06329  0.15560  1.0000 0.0996558128
H   H94       1.0  0.08073  0.56329  0.34440  1.0000 0.0996558128
H   H95       1.0  0.80351  0.01231  0.09287  1.0000 0.1254290642
H   H96       1.0  0.19649  0.51231  0.40713  1.0000 0.1254290642
H   H97       1.0  0.13089  0.13361  0.38852  1.0000 0.089457038
H   H98       1.0  0.86911  0.63361  0.11148  1.0000 0.089457038
H   H99       1.0  0.24860  0.14128  0.46524  1.0000 0.1213040302
H   H100      1.0  0.75140  0.64128  0.03476  1.0000 0.1213040302
H   H101      1.0  0.26354  0.36588  0.35618  1.0000 0.1213040302
H   H102      1.0  0.73646  0.86588  0.14382  1.0000 0.1213040302
H   H103      1.0  0.14435  0.35936  0.28298  1.0000 0.0996558128
H   H104      1.0  0.85565  0.85936  0.21702  1.0000 0.0996558128
H   H105      1.0  0.46857  0.48747  0.41975  1.0000 0.1213040302
H   H106      1.0  0.53143  0.98747  0.08025  1.0000 0.1213040302
H   H107      1.0  0.50347  0.46002  0.33998  1.0000 0.0996558128
H   H108      1.0  0.49653  0.96002  0.16002  1.0000 0.0996558128
H   H109      1.0  0.42763  0.19294  0.30710  1.0000 0.0996558128
H   H110      1.0  0.57237  0.69294  0.19290  1.0000 0.0996558128
H   H111      1.0  0.38559  0.21781  0.38184  1.0000 0.1213040302
H   H112      1.0  0.61441  0.71781  0.11816  1.0000 0.1213040302
H   H113      1.0  0.13141  0.13465  0.22520  1.0000 0.0996558128
H   H114      1.0  0.86859  0.63465  0.27480  1.0000 0.0996558128
H   H115      1.0  0.17009  0.13953  0.14591  1.0000 0.1075802979
H   H116      1.0  0.82991  0.63953  0.35409  1.0000 0.1075802979
H   H117      1.0  0.99111  0.29334  0.01552  1.0000 0.1213040302
H   H118      1.0  0.00889  0.79334  0.48448  1.0000 0.1213040302
H   H119      1.0  0.96023  0.27091  0.09887  1.0000 0.089457038
H   H120      1.0  0.03977  0.77091  0.40113  1.0000 0.089457038
H   H121      1.0  0.23963  0.31815  0.09708  1.0000 0.1213040302
H   H122      1.0  0.76037  0.81815  0.40292  1.0000 0.1213040302
H   H123      1.0  0.35264  0.36236  0.17757  1.0000 0.089457038
H   H124      1.0  0.64736  0.86236  0.32243  1.0000 0.089457038
H   H125      1.0  0.42436  0.11312  0.15308  1.0000 0.0996558128
H   H126      1.0  0.57564  0.61312  0.34692  1.0000 0.0996558128
H   H127      1.0  0.31085  0.05636  0.07874  1.0000 0.1254290642
H   H128      1.0  0.68915  0.55636  0.42126  1.0000 0.1254290642
W   W1        1.0  0.55924  0.45424  0.83604  1.0000 0.760738358
W   W2        1.0  0.44076  0.95424  0.66396  1.0000 0.760738358
W   W3        1.0  0.99105  0.01431  0.66826  1.0000 0.9802695365
W   W4        1.0  0.00895  0.51431  0.83174  1.0000 0.9713872523
W   W5        1.0  0.44076  0.54576  0.16396  1.0000 0.7691830249
W   W6        1.0  0.55924  0.04576  0.33604  1.0000 0.7691830249
W   W7        1.0  0.00895  0.98569  0.33174  1.0000 0.9713872523
W   W8        1.0  0.99105  0.48569  0.16826  1.0000 0.9802695365
C   C1        1.0  0.35130  0.71520  0.62000  1.0000 0.0592068951
C   C2        1.0  0.64870  0.21520  0.88000  1.0000 0.0592068951
C   C3        1.0  0.28160  0.71430  0.57590  1.0000 -0.2100701753
C   C4        1.0  0.71840  0.21430  0.92410  1.0000 -0.2100701753
C   C5        1.0  0.23880  0.65490  0.59140  1.0000 0.0996558128
C   C6        1.0  0.76120  0.15490  0.90860  1.0000 0.0996558128
C   C7        1.0  0.27010  0.59940  0.65140  1.0000 -0.2206532628
C   C8        1.0  0.72990  0.09940  0.84860  1.0000 -0.2206532628
C   C9        1.0  0.34310  0.61110  0.69660  1.0000 0.0800496855
C   C10       1.0  0.65690  0.11110  0.80340  1.0000 0.0800496855
C   C11       1.0  0.07050  0.62340  0.60480  1.0000 0.0996558128
C   C12       1.0  0.92950  0.12340  0.89520  1.0000 0.0996558128
C   C13       1.0  0.02040  0.57260  0.61670  1.0000 -0.2206532628
C   C14       1.0  0.97960  0.07260  0.88330  1.0000 -0.2206532628
C   C15       1.0  0.99750  0.62400  0.65400  1.0000 0.0687907231
C   C16       1.0  0.00250  0.12400  0.84600  1.0000 0.0592068951
C   C17       1.0  0.06510  0.75890  0.66820  1.0000 0.0800496855
C   C18       1.0  0.93490  0.25890  0.83180  1.0000 0.0800496855
C   C19       1.0  0.09430  0.71730  0.63080  1.0000 -0.2206532628
C   C20       1.0  0.90570  0.21730  0.86920  1.0000 -0.2206532628
C   C21       1.0  0.40700  0.79700  0.81660  1.0000 0.0800496855
C   C22       1.0  0.59300  0.29700  0.68340  1.0000 0.0800496855
C   C23       1.0  0.38030  0.81170  0.86170  1.0000 -0.2019210605
C   C24       1.0  0.61970  0.31170  0.63830  1.0000 -0.2019210605
C   C25       1.0  0.40840  0.76150  0.92160  1.0000 0.089457038
C   C26       1.0  0.59160  0.26150  0.57840  1.0000 0.089457038
C   C27       1.0  0.46260  0.69250  0.93730  1.0000 -0.2206532628
C   C28       1.0  0.53740  0.19250  0.56270  1.0000 -0.2206532628
C   C29       1.0  0.48300  0.68050  0.88860  1.0000 0.0592068951
C   C30       1.0  0.51700  0.18050  0.61140  1.0000 0.0592068951
C   C31       1.0  0.23750  0.85280  0.90800  1.0000 0.0996558128
C   C32       1.0  0.76250  0.35280  0.59200  1.0000 0.0996558128
C   C33       1.0  0.21900  0.75670  0.88480  1.0000 -0.2100701753
C   C34       1.0  0.78100  0.25670  0.61520  1.0000 -0.2100701753
C   C35       1.0  0.14840  0.73530  0.84530  1.0000 0.0687907231
C   C36       1.0  0.85160  0.23530  0.65470  1.0000 0.0687907231
C   C37       1.0  0.11580  0.89110  0.85320  1.0000 0.0687907231
C   C38       1.0  0.88420  0.39110  0.64680  1.0000 0.0687907231
C   C39       1.0  0.18550  0.92260  0.89230  1.0000 -0.2206532628
C   C40       1.0  0.81450  0.42260  0.60770  1.0000 -0.2206532628
C   C41       1.0  0.84280  0.81820  0.61800  1.0000 0.0331588398
C   C42       1.0  0.15720  0.31820  0.88200  1.0000 0.0331588398
C   C43       1.0  0.77170  0.81390  0.57160  1.0000 -0.2100701753
C   C44       1.0  0.22830  0.31390  0.92840  1.0000 -0.2100701753
C   C45       1.0  0.73020  0.74440  0.57880  1.0000 0.0800496855
C   C46       1.0  0.26980  0.24440  0.92120  1.0000 0.0800496855
C   C47       1.0  0.76290  0.68040  0.63580  1.0000 -0.2206532628
C   C48       1.0  0.23710  0.18040  0.86420  1.0000 -0.2206532628
C   C49       1.0  0.83510  0.68600  0.68060  1.0000 0.0800496855
C   C50       1.0  0.16490  0.18600  0.81940  1.0000 0.0800496855
C   C51       1.0  0.57500  0.64650  0.58920  1.0000 0.0800496855
C   C52       1.0  0.42500  0.14650  0.91080  1.0000 0.0800496855
C   C53       1.0  0.53990  0.57340  0.60260  1.0000 -0.2206532628
C   C54       1.0  0.46010  0.07340  0.89740  1.0000 -0.2206532628
C   C55       1.0  0.51760  0.59150  0.64940  1.0000 0.0592068951
C   C56       1.0  0.48240  0.09150  0.85060  1.0000 0.0592068951
C   C57       1.0  0.56280  0.74720  0.66920  1.0000 0.0514112588
C   C58       1.0  0.43720  0.24720  0.83080  1.0000 0.0514112588
C   C59       1.0  0.58840  0.73310  0.62430  1.0000 -0.2100701753
C   C60       1.0  0.41160  0.23310  0.87570  1.0000 -0.2100701753
C   C61       1.0  0.89680  0.83500  0.81770  1.0000 0.0996558128
C   C62       1.0  0.10320  0.33500  0.68230  1.0000 0.0996558128
C   C63       1.0  0.87180  0.83010  0.86390  1.0000 -0.2381412516
C   C64       1.0  0.12820  0.33010  0.63610  1.0000 -0.2381412516
C   C65       1.0  0.91400  0.77530  0.92860  1.0000 0.0996558128
C   C66       1.0  0.08600  0.27530  0.57140  1.0000 0.0996558128
C   C67       1.0  0.97890  0.73900  0.94280  1.0000 -0.2206532628
C   C68       1.0  0.02110  0.23900  0.55720  1.0000 -0.2206532628
C   C69       1.0  0.99650  0.75360  0.89210  1.0000 0.0331588398
C   C70       1.0  0.00350  0.25360  0.60790  1.0000 0.0331588398
C   C71       1.0  0.73610  0.81790  0.92060  1.0000 0.089457038
C   C72       1.0  0.26390  0.31790  0.57940  1.0000 0.089457038
C   C73       1.0  0.72350  0.72550  0.89150  1.0000 -0.2100701753
C   C74       1.0  0.27650  0.22550  0.60850  1.0000 -0.2100701753
C   C75       1.0  0.65500  0.69820  0.84490  1.0000 0.0687907231
C   C76       1.0  0.34500  0.19820  0.65510  1.0000 0.0687907231
C   C77       1.0  0.61310  0.84470  0.85810  1.0000 0.0687907231
C   C78       1.0  0.38690  0.34470  0.64190  1.0000 0.0687907231
C   C79       1.0  0.68170  0.87970  0.90360  1.0000 -0.2100701753
C   C80       1.0  0.31830  0.37970  0.59640  1.0000 -0.2100701753
C   C81       1.0  0.64870  0.28480  0.38000  1.0000 0.0514112588
C   C82       1.0  0.35130  0.78480  0.12000  1.0000 0.0514112588
C   C83       1.0  0.71840  0.28570  0.42410  1.0000 -0.2100701753
C   C84       1.0  0.28160  0.78570  0.07590  1.0000 -0.2100701753
C   C85       1.0  0.76120  0.34510  0.40860  1.0000 0.0996558128
C   C86       1.0  0.23880  0.84510  0.09140  1.0000 0.0996558128
C   C87       1.0  0.72990  0.40060  0.34860  1.0000 -0.2206532628
C   C88       1.0  0.27010  0.90060  0.15140  1.0000 -0.2206532628
C   C89       1.0  0.65690  0.38890  0.30340  1.0000 0.0800496855
C   C90       1.0  0.34310  0.88890  0.19660  1.0000 0.0800496855
C   C91       1.0  0.92950  0.37660  0.39520  1.0000 0.0996558128
C   C92       1.0  0.07050  0.87660  0.10480  1.0000 0.0996558128
C   C93       1.0  0.97960  0.42740  0.38330  1.0000 -0.2206532628
C   C94       1.0  0.02040  0.92740  0.11670  1.0000 -0.2206532628
C   C95       1.0  0.00250  0.37600  0.34600  1.0000 0.0592068951
C   C96       1.0  0.99750  0.87600  0.15400  1.0000 0.0687907231
C   C97       1.0  0.93490  0.24110  0.33180  1.0000 0.0800496855
C   C98       1.0  0.06510  0.74110  0.16820  1.0000 0.0800496855
C   C99       1.0  0.90570  0.28270  0.36920  1.0000 -0.2206532628
C   C100      1.0  0.09430  0.78270  0.13080  1.0000 -0.2206532628
C   C101      1.0  0.59300  0.20300  0.18340  1.0000 0.0800496855
C   C102      1.0  0.40700  0.70300  0.31660  1.0000 0.0800496855
C   C103      1.0  0.61970  0.18830  0.13830  1.0000 -0.2019210605
C   C104      1.0  0.38030  0.68830  0.36170  1.0000 -0.2019210605
C   C105      1.0  0.59160  0.23850  0.07840  1.0000 0.089457038
C   C106      1.0  0.40840  0.73850  0.42160  1.0000 0.089457038
C   C107      1.0  0.53740  0.30750  0.06270  1.0000 -0.2206532628
C   C108      1.0  0.46260  0.80750  0.43730  1.0000 -0.2206532628
C   C109      1.0  0.51700  0.31950  0.11140  1.0000 0.0592068951
C   C110      1.0  0.48300  0.81950  0.38860  1.0000 0.0592068951
C   C111      1.0  0.76250  0.14720  0.09200  1.0000 0.0996558128
C   C112      1.0  0.23750  0.64720  0.40800  1.0000 0.0996558128
C   C113      1.0  0.78100  0.24330  0.11520  1.0000 -0.2100701753
C   C114      1.0  0.21900  0.74330  0.38480  1.0000 -0.2100701753
C   C115      1.0  0.85160  0.26470  0.15470  1.0000 0.0687907231
C   C116      1.0  0.14840  0.76470  0.34530  1.0000 0.0687907231
C   C117      1.0  0.88420  0.10890  0.14680  1.0000 0.0687907231
C   C118      1.0  0.11580  0.60890  0.35320  1.0000 0.0687907231
C   C119      1.0  0.81450  0.07740  0.10770  1.0000 -0.2206532628
C   C120      1.0  0.18550  0.57740  0.39230  1.0000 -0.2206532628
C   C121      1.0  0.15720  0.18180  0.38200  1.0000 0.0331588398
C   C122      1.0  0.84280  0.68180  0.11800  1.0000 0.0331588398
C   C123      1.0  0.22830  0.18610  0.42840  1.0000 -0.2100701753
C   C124      1.0  0.77170  0.68610  0.07160  1.0000 -0.2100701753
C   C125      1.0  0.26980  0.25560  0.42120  1.0000 0.0800496855
C   C126      1.0  0.73020  0.75560  0.07880  1.0000 0.0800496855
C   C127      1.0  0.23710  0.31960  0.36420  1.0000 -0.2206532628
C   C128      1.0  0.76290  0.81960  0.13580  1.0000 -0.2206532628
C   C129      1.0  0.16490  0.31400  0.31940  1.0000 0.0800496855
C   C130      1.0  0.83510  0.81400  0.18060  1.0000 0.0800496855
C   C131      1.0  0.42500  0.35350  0.41080  1.0000 0.0800496855
C   C132      1.0  0.57500  0.85350  0.08920  1.0000 0.0800496855
C   C133      1.0  0.46010  0.42660  0.39740  1.0000 -0.2206532628
C   C134      1.0  0.53990  0.92660  0.10260  1.0000 -0.2206532628
C   C135      1.0  0.48240  0.40850  0.35060  1.0000 0.0592068951
C   C136      1.0  0.51760  0.90850  0.14940  1.0000 0.0592068951
C   C137      1.0  0.43720  0.25280  0.33080  1.0000 0.0514112588
C   C138      1.0  0.56280  0.75280  0.16920  1.0000 0.0514112588
C   C139      1.0  0.41160  0.26690  0.37570  1.0000 -0.2100701753
C   C140      1.0  0.58840  0.76690  0.12430  1.0000 -0.2100701753
C   C141      1.0  0.10320  0.16500  0.18230  1.0000 0.0996558128
C   C142      1.0  0.89680  0.66500  0.31770  1.0000 0.0996558128
C   C143      1.0  0.12820  0.16990  0.13610  1.0000 -0.2381412516
C   C144      1.0  0.87180  0.66990  0.36390  1.0000 -0.2381412516
C   C145      1.0  0.08600  0.22470  0.07140  1.0000 0.0996558128
C   C146      1.0  0.91400  0.72470  0.42860  1.0000 0.0996558128
C   C147      1.0  0.02110  0.26100  0.05720  1.0000 -0.2206532628
C   C148      1.0  0.97890  0.76100  0.44280  1.0000 -0.2206532628
C   C149      1.0  0.00350  0.24640  0.10790  1.0000 0.0331588398
C   C150      1.0  0.99650  0.74640  0.39210  1.0000 0.0331588398
C   C151      1.0  0.26390  0.18210  0.07940  1.0000 0.089457038
C   C152      1.0  0.73610  0.68210  0.42060  1.0000 0.089457038
C   C153      1.0  0.27650  0.27450  0.10850  1.0000 -0.2100701753
C   C154      1.0  0.72350  0.77450  0.39150  1.0000 -0.2100701753
C   C155      1.0  0.34500  0.30180  0.15510  1.0000 0.0687907231
C   C156      1.0  0.65500  0.80180  0.34490  1.0000 0.0687907231
C   C157      1.0  0.38690  0.15530  0.14190  1.0000 0.0687907231
C   C158      1.0  0.61310  0.65530  0.35810  1.0000 0.0687907231
C   C159      1.0  0.31830  0.12030  0.09640  1.0000 -0.2100701753
C   C160      1.0  0.68170  0.62030  0.40360  1.0000 -0.2100701753
S   S1        1.0  0.14710  0.65580  0.52670  1.0000 -0.0097327211
S   S2        1.0  0.85290  0.15580  0.97330  1.0000 -0.0097327211
S   S3        1.0  0.10070  0.55370  0.55700  1.0000 -0.0097327211
S   S4        1.0  0.89930  0.05370  0.94300  1.0000 -0.0097327211
S   S5        1.0  0.32620  0.89570  0.95990  1.0000 -0.0314426021
S   S6        1.0  0.67380  0.39570  0.54010  1.0000 -0.0314426021
S   S7        1.0  0.38650  0.77250  0.98810  1.0000 0.0046137787
S   S8        1.0  0.61350  0.27250  0.51190  1.0000 0.0055300725
S   S9        1.0  0.64080  0.75120  0.51740  1.0000 0.0205539643
S   S10       1.0  0.35920  0.25120  0.98260  1.0000 0.0205539643
S   S11       1.0  0.59940  0.62220  0.52680  1.0000 -0.0021279723
S   S12       1.0  0.40060  0.12220  0.97320  1.0000 -0.0021279723
S   S13       1.0  0.82260  0.86490  0.97980  1.0000 -0.0314426021
S   S14       1.0  0.17740  0.36490  0.52020  1.0000 -0.0314426021
S   S15       1.0  0.88980  0.75490  0.99230  1.0000 0.0205539643
S   S16       1.0  0.11020  0.25490  0.50770  1.0000 0.0205539643
S   S17       1.0  0.85290  0.34420  0.47330  1.0000 -0.0097327211
S   S18       1.0  0.14710  0.84420  0.02670  1.0000 -0.0097327211
S   S19       1.0  0.89930  0.44630  0.44300  1.0000 -0.0097327211
S   S20       1.0  0.10070  0.94630  0.05700  1.0000 -0.0097327211
S   S21       1.0  0.67380  0.10430  0.04010  1.0000 -0.0314426021
S   S22       1.0  0.32620  0.60430  0.45990  1.0000 -0.0314426021
S   S23       1.0  0.61350  0.22750  0.01190  1.0000 0.0055300725
S   S24       1.0  0.38650  0.72750  0.48810  1.0000 0.0046137787
S   S25       1.0  0.35920  0.24880  0.48260  1.0000 0.0205539643
S   S26       1.0  0.64080  0.74880  0.01740  1.0000 0.0205539643
S   S27       1.0  0.40060  0.37780  0.47320  1.0000 -0.0021279723
S   S28       1.0  0.59940  0.87780  0.02680  1.0000 -0.0021279723
S   S29       1.0  0.17740  0.13510  0.02020  1.0000 -0.0314426021
S   S30       1.0  0.82260  0.63510  0.47980  1.0000 -0.0314426021
S   S31       1.0  0.11020  0.24510  0.00770  1.0000 0.0205539643
S   S32       1.0  0.88980  0.74510  0.49230  1.0000 0.0205539643
N   N1        1.0  0.38380  0.66910  0.68170  1.0000 -0.2486355924
N   N2        1.0  0.61620  0.16910  0.81830  1.0000 -0.2486355924
N   N3        1.0  0.45920  0.73370  0.83050  1.0000 -0.2381412516
N   N4        1.0  0.54080  0.23370  0.66950  1.0000 -0.2381412516
N   N5        1.0  0.09610  0.80030  0.82760  1.0000 -0.2486355924
N   N6        1.0  0.90390  0.30030  0.67240  1.0000 -0.2486355924
N   N7        1.0  0.01970  0.71410  0.68150  1.0000 -0.2381412516
N   N8        1.0  0.98030  0.21410  0.81850  1.0000 -0.2381412516
N   N9        1.0  0.87730  0.75310  0.67480  1.0000 -0.2845857291
N   N10       1.0  0.12270  0.25310  0.82520  1.0000 -0.2845857291
N   N11       1.0  0.95700  0.80000  0.83020  1.0000 -0.2381412516
N   N12       1.0  0.04300  0.30000  0.66980  1.0000 -0.2381412516
N   N13       1.0  0.59910  0.75420  0.83030  1.0000 -0.2486355924
N   N14       1.0  0.40090  0.25420  0.66970  1.0000 -0.2486355924
N   N15       1.0  0.52430  0.67910  0.68110  1.0000 -0.2654853611
N   N16       1.0  0.47570  0.17910  0.81890  1.0000 -0.2654853611
N   N17       1.0  0.61620  0.33090  0.31830  1.0000 -0.2486355924
N   N18       1.0  0.38380  0.83090  0.18170  1.0000 -0.2486355924
N   N19       1.0  0.54080  0.26630  0.16950  1.0000 -0.2381412516
N   N20       1.0  0.45920  0.76630  0.33050  1.0000 -0.2381412516
N   N21       1.0  0.90390  0.19970  0.17240  1.0000 -0.2486355924
N   N22       1.0  0.09610  0.69970  0.32760  1.0000 -0.2486355924
N   N23       1.0  0.98030  0.28590  0.31850  1.0000 -0.2381412516
N   N24       1.0  0.01970  0.78590  0.18150  1.0000 -0.2381412516
N   N25       1.0  0.12270  0.24690  0.32520  1.0000 -0.2845857291
N   N26       1.0  0.87730  0.74690  0.17480  1.0000 -0.2845857291
N   N27       1.0  0.04300  0.20000  0.16980  1.0000 -0.2381412516
N   N28       1.0  0.95700  0.70000  0.33020  1.0000 -0.2381412516
N   N29       1.0  0.40090  0.24580  0.16970  1.0000 -0.2486355924
N   N30       1.0  0.59910  0.74580  0.33030  1.0000 -0.2486355924
N   N31       1.0  0.47570  0.32090  0.31890  1.0000 -0.2654853611
N   N32       1.0  0.52430  0.82090  0.18110  1.0000 -0.2654853611
O   O1        1.0  0.52790  0.35390  0.77780  1.0000 -0.7457756846
O   O2        1.0  0.47210  0.85390  0.72220  1.0000 -0.7457756846
O   O3        1.0  0.51840  0.55900  0.78810  1.0000 -0.7221214621
O   O4        1.0  0.48160  0.05900  0.71190  1.0000 -0.7221214621
O   O5        1.0  0.00260  0.12650  0.71510  1.0000 -0.8076909705
O   O6        1.0  0.99740  0.62650  0.78490  1.0000 -0.8076909705
O   O7        1.0  0.98250  0.91320  0.71510  1.0000 -0.8076909705
O   O8        1.0  0.01750  0.41320  0.78490  1.0000 -0.8076909705
O   O9        1.0  0.47210  0.64610  0.22220  1.0000 -0.7457756846
O   O10       1.0  0.52790  0.14610  0.27780  1.0000 -0.7457756846
O   O11       1.0  0.48160  0.44100  0.21190  1.0000 -0.7221214621
O   O12       1.0  0.51840  0.94100  0.28810  1.0000 -0.7221214621
O   O13       1.0  0.99740  0.87350  0.28490  1.0000 -0.8076909705
O   O14       1.0  0.00260  0.37350  0.21510  1.0000 -0.8076909705
O   O15       1.0  0.01750  0.08680  0.28490  1.0000 -0.8076909705
O   O16       1.0  0.98250  0.58680  0.21510  1.0000 -0.8076909705
