# DDEC6 charges by PACMAN v1.1 (https://github.com/mtap-research/PACMAN-charge/)
data_2023[Zn][sql]2[ASR]24
_chemical_formula_sum              "Zn4 H60 C80 N4 O16"
_cell_length_a       13.4218
_cell_length_b       14.9972
_cell_length_c       15.1822
_cell_angle_alpha    90.275
_cell_angle_beta     99.985
_cell_angle_gamma    115.951

_symmetry_space_group_name_H-M    "P 1"
_symmetry_Int_Tables_number       1

loop_
  _symmetry_equiv_pos_as_xyz
  'x, y, z'

loop_
  _atom_site_type_symbol
  _atom_site_label
  _atom_site_symmetry_multiplicity
  _atom_site_fract_x
  _atom_site_fract_y
  _atom_site_fract_z
  _atom_site_occupancy
  _atom_site_charge
Zn  Zn1       1.0  0.50795  0.13135  0.16357  1.0000 0.8292674079
Zn  Zn2       1.0  0.35301  0.22460  0.14182  1.0000 0.8292674079
Zn  Zn3       1.0  0.49205  0.86865  0.83643  1.0000 0.8292674079
Zn  Zn4       1.0  0.64699  0.77540  0.85818  1.0000 0.8292674079
H   H1        1.0  0.63382  0.08924  0.03629  1.0000 0.1124434504
H   H2        1.0  0.56604  0.15273  0.74702  1.0000 0.1124434504
H   H3        1.0  0.50555  0.08262  0.45115  1.0000 0.1189909681
H   H4        1.0  0.60607  0.52442  0.09524  1.0000 0.1303823595
H   H5        1.0  0.54904  0.14577  0.89666  1.0000 0.1189909681
H   H6        1.0  0.29221  0.22229  0.84093  1.0000 0.1124434504
H   H7        1.0  0.25111  0.80875  0.14011  1.0000 0.1189909681
H   H8        1.0  0.78252  0.04888  0.04114  1.0000 0.1394388146
H   H9        1.0  0.76457  0.67138  0.08801  1.0000 0.1124434504
H   H10       1.0  0.39987  0.29704  0.42740  1.0000 0.1189909681
H   H11       1.0  0.50042  0.08404  0.60291  1.0000 0.1189909681
H   H12       1.0  0.30849  0.22897  0.69176  1.0000 0.1124434504
H   H13       1.0  0.39813  0.30172  0.57915  1.0000 0.1189909681
H   H14       1.0  0.06778  0.96272  0.14083  1.0000 0.1189909681
H   H15       1.0  0.80568  0.40917  0.22709  1.0000 0.1189909681
H   H16       1.0  0.09164  0.66137  0.14864  1.0000 0.1124434504
H   H17       1.0  0.66729  0.09445  0.29982  1.0000 0.1124434504
H   H18       1.0  0.96481  0.55841  0.22340  1.0000 0.1124434504
H   H19       1.0  0.90892  0.81659  0.14957  1.0000 0.1124434504
H   H20       1.0  0.13816  0.20106  0.02812  1.0000 0.1124434504
H   H21       1.0  0.28126  0.32309  0.27559  1.0000 0.1189909681
H   H22       1.0  0.98745  0.23674  0.03356  1.0000 0.1303823595
H   H23       1.0  0.81806  0.05578  0.31071  1.0000 0.1303823595
H   H24       1.0  0.98409  0.08045  0.19474  1.0000 0.1491158559
H   H25       1.0  0.90848  0.97482  0.22744  1.0000 0.1491158559
H   H26       1.0  0.90512  0.98740  0.12251  1.0000 0.1394388146
H   H27       1.0  0.13563  0.36162  0.28556  1.0000 0.1394388146
H   H28       1.0  0.89589  0.28060  0.19734  1.0000 0.1491158559
H   H29       1.0  0.98038  0.39606  0.19811  1.0000 0.1394388146
H   H30       1.0  0.91143  0.33083  0.10476  1.0000 0.1491158559
H   H31       1.0  0.36618  0.91076  0.96371  1.0000 0.1124434504
H   H32       1.0  0.43396  0.84727  0.25298  1.0000 0.1124434504
H   H33       1.0  0.49445  0.91738  0.54885  1.0000 0.1189909681
H   H34       1.0  0.39393  0.47558  0.90476  1.0000 0.1303823595
H   H35       1.0  0.45096  0.85423  0.10334  1.0000 0.1189909681
H   H36       1.0  0.70779  0.77771  0.15907  1.0000 0.1124434504
H   H37       1.0  0.74889  0.19125  0.85989  1.0000 0.1189909681
H   H38       1.0  0.21748  0.95112  0.95886  1.0000 0.1394388146
H   H39       1.0  0.23543  0.32862  0.91199  1.0000 0.1124434504
H   H40       1.0  0.60013  0.70296  0.57260  1.0000 0.1189909681
H   H41       1.0  0.49958  0.91596  0.39709  1.0000 0.1189909681
H   H42       1.0  0.69151  0.77103  0.30824  1.0000 0.1124434504
H   H43       1.0  0.60187  0.69828  0.42085  1.0000 0.1189909681
H   H44       1.0  0.93222  0.03728  0.85917  1.0000 0.1189909681
H   H45       1.0  0.19432  0.59083  0.77291  1.0000 0.1189909681
H   H46       1.0  0.90836  0.33863  0.85136  1.0000 0.1124434504
H   H47       1.0  0.33271  0.90555  0.70018  1.0000 0.1124434504
H   H48       1.0  0.03519  0.44159  0.77660  1.0000 0.1124434504
H   H49       1.0  0.09108  0.18341  0.85043  1.0000 0.1124434504
H   H50       1.0  0.86184  0.79894  0.97188  1.0000 0.1124434504
H   H51       1.0  0.71874  0.67691  0.72441  1.0000 0.1189909681
H   H52       1.0  0.01255  0.76326  0.96644  1.0000 0.1303823595
H   H53       1.0  0.18194  0.94422  0.68929  1.0000 0.1303823595
H   H54       1.0  0.01591  0.91955  0.80526  1.0000 0.1491158559
H   H55       1.0  0.09152  0.02518  0.77256  1.0000 0.1491158559
H   H56       1.0  0.09488  0.01260  0.87749  1.0000 0.1394388146
H   H57       1.0  0.86437  0.63838  0.71444  1.0000 0.1394388146
H   H58       1.0  0.10411  0.71940  0.80266  1.0000 0.1491158559
H   H59       1.0  0.01962  0.60394  0.80189  1.0000 0.1394388146
H   H60       1.0  0.08857  0.66917  0.89524  1.0000 0.1491158559
C   C1        1.0  0.59020  0.35460  0.16310  1.0000 0.5873795404
C   C2        1.0  0.41990  0.18460  0.88440  1.0000 -0.0292979257
C   C3        1.0  0.43900  0.19090  0.70340  1.0000 0.0705263336
C   C4        1.0  0.45140  0.18870  0.42270  1.0000 -0.0292979257
C   C5        1.0  0.27860  0.99790  0.14110  1.0000 0.5649953141
C   C6        1.0  0.41000  0.17980  0.98160  1.0000 0.5738790884
C   C7        1.0  0.44860  0.18400  0.32390  1.0000 0.5873795404
C   C8        1.0  0.67160  0.08190  0.09270  1.0000 0.0790950909
C   C9        1.0  0.51010  0.16680  0.76580  1.0000 -0.1507469842
C   C10       1.0  0.44660  0.19220  0.60710  1.0000 0.0790950909
C   C11       1.0  0.48230  0.12640  0.47700  1.0000 -0.0917010576
C   C12       1.0  0.69000  0.45120  0.16180  1.0000 -0.0379982375
C   C13       1.0  0.67900  0.53090  0.12070  1.0000 -0.0917010576
C   C14       1.0  0.50030  0.16310  0.85500  1.0000 -0.098485256
C   C15       1.0  0.34820  0.20840  0.82200  1.0000 -0.098485256
C   C16       1.0  0.18170  0.81040  0.14250  1.0000 -0.1087727219
C   C17       1.0  0.76050  0.05820  0.09530  1.0000 -0.2037897453
C   C18       1.0  0.77320  0.61840  0.11690  1.0000 -0.1507469842
C   C19       1.0  0.42040  0.25350  0.46300  1.0000 -0.098485256
C   C20       1.0  0.47970  0.12750  0.56730  1.0000 -0.1507469842
C   C21       1.0  0.35760  0.21200  0.73340  1.0000 -0.15988255
C   C22       1.0  0.41870  0.25590  0.55320  1.0000 -0.1507469842
C   C23       1.0  0.88140  0.63020  0.15500  1.0000 0.0705263336
C   C24       1.0  0.17600  0.90040  0.14130  1.0000 -0.0292979257
C   C25       1.0  0.07280  0.90150  0.14300  1.0000 -0.098485256
C   C26       1.0  0.98290  0.72370  0.14980  1.0000 0.0705263336
C   C27       1.0  0.79700  0.46260  0.19930  1.0000 -0.098485256
C   C28       1.0  0.08660  0.72260  0.14720  1.0000 -0.15988255
C   C29       1.0  0.81750  0.04800  0.17660  1.0000 0.2109210744
C   C30       1.0  0.69110  0.08520  0.24660  1.0000 0.0888189516
C   C31       1.0  0.89200  0.55140  0.19660  1.0000 -0.15988255
C   C32       1.0  0.97820  0.81450  0.14770  1.0000 -0.15988255
C   C33       1.0  0.13840  0.23510  0.08110  1.0000 0.0888189516
C   C34       1.0  0.22160  0.30620  0.22500  1.0000 0.0705263336
C   C35       1.0  0.04750  0.25570  0.08410  1.0000 -0.2135686697
C   C36       1.0  0.78110  0.06200  0.25340  1.0000 -0.2190590844
C   C37       1.0  0.04470  0.30350  0.16060  1.0000 0.2109210744
C   C38       1.0  0.91180  0.02030  0.18070  1.0000 -0.4791792676
C   C39       1.0  0.13430  0.32850  0.23160  1.0000 -0.2135686697
C   C40       1.0  0.94980  0.33010  0.16570  1.0000 -0.4616128699
C   C41       1.0  0.40980  0.64540  0.83690  1.0000 0.5873795404
C   C42       1.0  0.58010  0.81540  0.11560  1.0000 -0.0292979257
C   C43       1.0  0.56100  0.80910  0.29660  1.0000 0.0705263336
C   C44       1.0  0.54860  0.81130  0.57730  1.0000 -0.0292979257
C   C45       1.0  0.72140  0.00210  0.85890  1.0000 0.5649953141
C   C46       1.0  0.59000  0.82020  0.01840  1.0000 0.5738790884
C   C47       1.0  0.55140  0.81600  0.67610  1.0000 0.5873795404
C   C48       1.0  0.32840  0.91810  0.90730  1.0000 0.0790950909
C   C49       1.0  0.48990  0.83320  0.23420  1.0000 -0.1507469842
C   C50       1.0  0.55340  0.80780  0.39290  1.0000 0.0790950909
C   C51       1.0  0.51770  0.87360  0.52300  1.0000 -0.0917010576
C   C52       1.0  0.31000  0.54880  0.83820  1.0000 -0.0379982375
C   C53       1.0  0.32100  0.46910  0.87930  1.0000 -0.0917010576
C   C54       1.0  0.49970  0.83690  0.14500  1.0000 -0.098485256
C   C55       1.0  0.65180  0.79160  0.17800  1.0000 -0.098485256
C   C56       1.0  0.81830  0.18960  0.85750  1.0000 -0.1087727219
C   C57       1.0  0.23950  0.94180  0.90470  1.0000 -0.2037897453
C   C58       1.0  0.22680  0.38160  0.88310  1.0000 -0.1507469842
C   C59       1.0  0.57960  0.74650  0.53700  1.0000 -0.098485256
C   C60       1.0  0.52030  0.87250  0.43270  1.0000 -0.1507469842
C   C61       1.0  0.64240  0.78800  0.26660  1.0000 -0.1507469842
C   C62       1.0  0.58130  0.74410  0.44680  1.0000 -0.1507469842
C   C63       1.0  0.11860  0.36980  0.84500  1.0000 0.0705263336
C   C64       1.0  0.82400  0.09960  0.85870  1.0000 -0.0292979257
C   C65       1.0  0.92720  0.09850  0.85700  1.0000 -0.098485256
C   C66       1.0  0.01710  0.27630  0.85020  1.0000 0.0705263336
C   C67       1.0  0.20300  0.53740  0.80070  1.0000 -0.098485256
C   C68       1.0  0.91340  0.27740  0.85280  1.0000 -0.15988255
C   C69       1.0  0.18250  0.95200  0.82340  1.0000 0.2109210744
C   C70       1.0  0.30890  0.91480  0.75340  1.0000 0.0888189516
C   C71       1.0  0.10800  0.44860  0.80340  1.0000 -0.15988255
C   C72       1.0  0.02180  0.18550  0.85230  1.0000 -0.15988255
C   C73       1.0  0.86160  0.76490  0.91890  1.0000 0.0888189516
C   C74       1.0  0.77840  0.69380  0.77500  1.0000 0.0705263336
C   C75       1.0  0.95250  0.74430  0.91590  1.0000 -0.2135686697
C   C76       1.0  0.21890  0.93800  0.74660  1.0000 -0.2190590844
C   C77       1.0  0.95530  0.69650  0.83940  1.0000 0.2109210744
C   C78       1.0  0.08820  0.97970  0.81930  1.0000 -0.4791792676
C   C79       1.0  0.86570  0.67150  0.76840  1.0000 -0.2135686697
C   C80       1.0  0.05020  0.66990  0.83430  1.0000 -0.4616128699
N   N1        1.0  0.63660  0.09490  0.16793  1.0000 -0.2379938409
N   N2        1.0  0.22600  0.26130  0.14960  1.0000 -0.2276225433
N   N3        1.0  0.36340  0.90510  0.83207  1.0000 -0.2379938409
N   N4        1.0  0.77400  0.73870  0.85040  1.0000 -0.2276225433
O   O1        1.0  0.48730  0.13015  0.29300  1.0000 -0.5404288963
O   O2        1.0  0.49310  0.35105  0.13712  1.0000 -0.5344927058
O   O3        1.0  0.26510  0.07426  0.14627  1.0000 -0.5404288963
O   O4        1.0  0.37010  0.99402  0.13700  1.0000 -0.5404288963
O   O5        1.0  0.60860  0.28326  0.18930  1.0000 -0.5404288963
O   O6        1.0  0.47860  0.15821  0.03286  1.0000 -0.5565509245
O   O7        1.0  0.40800  0.23448  0.27916  1.0000 -0.5475327269
O   O8        1.0  0.33560  0.19970  0.00494  1.0000 -0.5475327269
O   O9        1.0  0.51270  0.86985  0.70700  1.0000 -0.5404288963
O   O10       1.0  0.50690  0.64895  0.86288  1.0000 -0.5344927058
O   O11       1.0  0.73490  0.92574  0.85373  1.0000 -0.5404288963
O   O12       1.0  0.62990  0.00598  0.86300  1.0000 -0.5404288963
O   O13       1.0  0.39140  0.71674  0.81070  1.0000 -0.5404288963
O   O14       1.0  0.52140  0.84179  0.96714  1.0000 -0.5565509245
O   O15       1.0  0.59200  0.76552  0.72084  1.0000 -0.5475327269
O   O16       1.0  0.66440  0.80030  0.99506  1.0000 -0.5475327269
