# DDEC6 charges by PACMAN v1.1 (https://github.com/mtap-research/PACMAN-charge/)
data_2023[Cd][hcb]2[ASR]1
_chemical_formula_sum              "Cd4 H52 C76 N8 O16"
_cell_length_a       8.5332
_cell_length_b       25.833
_cell_length_c       10.1403
_cell_angle_alpha    90
_cell_angle_beta     92.377
_cell_angle_gamma    90

_symmetry_space_group_name_H-M    "P 1"
_symmetry_Int_Tables_number       1

loop_
  _symmetry_equiv_pos_as_xyz
  'x, y, z'

loop_
  _atom_site_type_symbol
  _atom_site_label
  _atom_site_symmetry_multiplicity
  _atom_site_fract_x
  _atom_site_fract_y
  _atom_site_fract_z
  _atom_site_occupancy
  _atom_site_charge
Cd  Cd1       1.0  0.59756  0.08261  0.70970  1.0000 0.8781842375
Cd  Cd2       1.0  0.90244  0.58261  0.29030  1.0000 0.8781842375
Cd  Cd3       1.0  0.40244  0.91739  0.29030  1.0000 0.8781842375
Cd  Cd4       1.0  0.09756  0.41739  0.70970  1.0000 0.8781842375
H   H1        1.0  0.56212  0.08328  0.19590  1.0000 0.1202831542
H   H2        1.0  0.93788  0.58328  0.80410  1.0000 0.1202831542
H   H3        1.0  0.29747  0.18963  0.00360  1.0000 0.1202831542
H   H4        1.0  0.20253  0.68963  0.99640  1.0000 0.1202831542
H   H5        1.0  0.30615  0.18357  0.39880  1.0000 0.1202831542
H   H6        1.0  0.19385  0.68357  0.60120  1.0000 0.1202831542
H   H7        1.0  0.10772  0.23622  0.27860  1.0000 0.1202831542
H   H8        1.0  0.39228  0.73622  0.72140  1.0000 0.1202831542
H   H9        1.0  0.10790  0.23944  0.12413  1.0000 0.1202831542
H   H10       1.0  0.39210  0.73944  0.87587  1.0000 0.1202831542
H   H11       1.0  0.42278  0.37453  0.03575  1.0000 0.1365618938
H   H12       1.0  0.07722  0.87453  0.96425  1.0000 0.1365618938
H   H13       1.0  0.27927  0.30005  0.02127  1.0000 0.1202831542
H   H14       1.0  0.22073  0.80005  0.97873  1.0000 0.1202831542
H   H15       1.0  0.26781  0.29196  0.40950  1.0000 0.1202831542
H   H16       1.0  0.23219  0.79196  0.59050  1.0000 0.1202831542
H   H17       1.0  0.41481  0.36652  0.43077  1.0000 0.1327783151
H   H18       1.0  0.08519  0.86652  0.56923  1.0000 0.1327783151
H   H19       1.0  0.57842  0.43523  0.05466  1.0000 0.1327783151
H   H20       1.0  0.92158  0.93523  0.94534  1.0000 0.1327783151
H   H21       1.0  0.55215  0.43048  0.44469  1.0000 0.1327783151
H   H22       1.0  0.94785  0.93048  0.55531  1.0000 0.1327783151
H   H23       1.0  0.71052  0.50110  0.45859  1.0000 0.1113097732
H   H24       1.0  0.78948  0.00110  0.54141  1.0000 0.1113097732
H   H25       1.0  0.74804  0.50443  0.08065  1.0000 0.1202831542
H   H26       1.0  0.75196  0.00443  0.91935  1.0000 0.1202831542
H   H27       1.0  0.43788  0.91672  0.80410  1.0000 0.1202831542
H   H28       1.0  0.06212  0.41672  0.19590  1.0000 0.1202831542
H   H29       1.0  0.70253  0.81037  0.99640  1.0000 0.1202831542
H   H30       1.0  0.79747  0.31037  0.00360  1.0000 0.1202831542
H   H31       1.0  0.69385  0.81643  0.60120  1.0000 0.1202831542
H   H32       1.0  0.80615  0.31643  0.39880  1.0000 0.1202831542
H   H33       1.0  0.89228  0.76378  0.72140  1.0000 0.1202831542
H   H34       1.0  0.60772  0.26378  0.27860  1.0000 0.1202831542
H   H35       1.0  0.89210  0.76056  0.87587  1.0000 0.1202831542
H   H36       1.0  0.60790  0.26056  0.12413  1.0000 0.1202831542
H   H37       1.0  0.57722  0.62547  0.96425  1.0000 0.1365618938
H   H38       1.0  0.92278  0.12547  0.03575  1.0000 0.1365618938
H   H39       1.0  0.72073  0.69995  0.97873  1.0000 0.1202831542
H   H40       1.0  0.77927  0.19995  0.02127  1.0000 0.1202831542
H   H41       1.0  0.73219  0.70804  0.59050  1.0000 0.1202831542
H   H42       1.0  0.76781  0.20804  0.40950  1.0000 0.1202831542
H   H43       1.0  0.58519  0.63348  0.56923  1.0000 0.1327783151
H   H44       1.0  0.91481  0.13348  0.43077  1.0000 0.1327783151
H   H45       1.0  0.42158  0.56477  0.94534  1.0000 0.1327783151
H   H46       1.0  0.07842  0.06477  0.05466  1.0000 0.1327783151
H   H47       1.0  0.44785  0.56952  0.55531  1.0000 0.1327783151
H   H48       1.0  0.05215  0.06952  0.44469  1.0000 0.1327783151
H   H49       1.0  0.28948  0.49890  0.54141  1.0000 0.1113097732
H   H50       1.0  0.21052  0.99890  0.45859  1.0000 0.1113097732
H   H51       1.0  0.25196  0.49557  0.91935  1.0000 0.1202831542
H   H52       1.0  0.24804  0.99557  0.08065  1.0000 0.1202831542
C   C1        1.0  0.49260  0.11099  0.19740  1.0000 -0.1545179403
C   C2        1.0  0.00740  0.61099  0.80260  1.0000 -0.1545179403
C   C3        1.0  0.43870  0.13347  0.08030  1.0000 -0.0223209507
C   C4        1.0  0.06130  0.63347  0.91970  1.0000 -0.0223209507
C   C5        1.0  0.28380  0.19384  0.20170  1.0000 0.0779664358
C   C6        1.0  0.21620  0.69384  0.79830  1.0000 0.0779664358
C   C7        1.0  0.33410  0.17473  0.08250  1.0000 -0.2067319369
C   C8        1.0  0.16590  0.67473  0.91750  1.0000 -0.2067319369
C   C9        1.0  0.33930  0.17097  0.31870  1.0000 -0.2021324141
C   C10       1.0  0.16070  0.67097  0.68130  1.0000 -0.2021324141
C   C11       1.0  0.44310  0.12975  0.31790  1.0000 -0.0223209507
C   C12       1.0  0.05690  0.62975  0.68210  1.0000 -0.0223209507
C   C13       1.0  0.17460  0.23946  0.20400  1.0000 -0.2164890348
C   C14       1.0  0.32540  0.73946  0.79600  1.0000 -0.2164890348
C   C15       1.0  0.50610  0.10693  0.44560  1.0000 0.5285126278
C   C16       1.0  0.99390  0.60693  0.55440  1.0000 0.5285126278
C   C17       1.0  0.39340  0.35803  0.11240  1.0000 -0.1904959186
C   C18       1.0  0.10660  0.85803  0.88760  1.0000 -0.1904959186
C   C19       1.0  0.53790  0.42614  0.24830  1.0000 0.1113097732
C   C20       1.0  0.96210  0.92614  0.75170  1.0000 0.1113097732
C   C21       1.0  0.30710  0.31372  0.10380  1.0000 -0.0009292301
C   C22       1.0  0.19290  0.81372  0.89620  1.0000 -0.0009292301
C   C23       1.0  0.43860  0.37904  0.23590  1.0000 0.1202831542
C   C24       1.0  0.06140  0.87904  0.76410  1.0000 0.1202831542
C   C25       1.0  0.30050  0.30882  0.33440  1.0000 -0.0009292301
C   C26       1.0  0.19950  0.80882  0.66560  1.0000 -0.0009292301
C   C27       1.0  0.38870  0.35348  0.34720  1.0000 -0.1904959186
C   C28       1.0  0.11130  0.85348  0.65280  1.0000 -0.1904959186
C   C29       1.0  0.49570  0.11436  0.95040  1.0000 0.5285126278
C   C30       1.0  0.00430  0.61436  0.04960  1.0000 0.5285126278
C   C31       1.0  0.60240  0.44840  0.13850  1.0000 -0.2021324141
C   C32       1.0  0.89760  0.94840  0.86150  1.0000 -0.2021324141
C   C33       1.0  0.58550  0.44580  0.36770  1.0000 -0.2067319369
C   C34       1.0  0.91450  0.94580  0.63230  1.0000 -0.2067319369
C   C35       1.0  0.68270  0.48820  0.37530  1.0000 0.0934227565
C   C36       1.0  0.81730  0.98820  0.62470  1.0000 0.0934227565
C   C37       1.0  0.70320  0.49030  0.15460  1.0000 0.0634143627
C   C38       1.0  0.79680  0.99030  0.84540  1.0000 0.0634143627
C   C39       1.0  0.50740  0.88901  0.80260  1.0000 -0.1545179403
C   C40       1.0  0.99260  0.38901  0.19740  1.0000 -0.1545179403
C   C41       1.0  0.56130  0.86653  0.91970  1.0000 -0.0223209507
C   C42       1.0  0.93870  0.36653  0.08030  1.0000 -0.0223209507
C   C43       1.0  0.71620  0.80616  0.79830  1.0000 0.0779664358
C   C44       1.0  0.78380  0.30616  0.20170  1.0000 0.0779664358
C   C45       1.0  0.66590  0.82527  0.91750  1.0000 -0.2067319369
C   C46       1.0  0.83410  0.32527  0.08250  1.0000 -0.2067319369
C   C47       1.0  0.66070  0.82903  0.68130  1.0000 -0.2021324141
C   C48       1.0  0.83930  0.32903  0.31870  1.0000 -0.2021324141
C   C49       1.0  0.55690  0.87025  0.68210  1.0000 -0.0223209507
C   C50       1.0  0.94310  0.37025  0.31790  1.0000 -0.0223209507
C   C51       1.0  0.82540  0.76054  0.79600  1.0000 -0.2164890348
C   C52       1.0  0.67460  0.26054  0.20400  1.0000 -0.2164890348
C   C53       1.0  0.49390  0.89307  0.55440  1.0000 0.5285126278
C   C54       1.0  0.00610  0.39307  0.44560  1.0000 0.5285126278
C   C55       1.0  0.60660  0.64197  0.88760  1.0000 -0.1904959186
C   C56       1.0  0.89340  0.14197  0.11240  1.0000 -0.1904959186
C   C57       1.0  0.46210  0.57386  0.75170  1.0000 0.1113097732
C   C58       1.0  0.03790  0.07386  0.24830  1.0000 0.1113097732
C   C59       1.0  0.69290  0.68628  0.89620  1.0000 -0.0009292301
C   C60       1.0  0.80710  0.18628  0.10380  1.0000 -0.0009292301
C   C61       1.0  0.56140  0.62096  0.76410  1.0000 0.1202831542
C   C62       1.0  0.93860  0.12096  0.23590  1.0000 0.1202831542
C   C63       1.0  0.69950  0.69118  0.66560  1.0000 -0.0009292301
C   C64       1.0  0.80050  0.19118  0.33440  1.0000 -0.0009292301
C   C65       1.0  0.61130  0.64652  0.65280  1.0000 -0.1904959186
C   C66       1.0  0.88870  0.14652  0.34720  1.0000 -0.1904959186
C   C67       1.0  0.50430  0.88564  0.04960  1.0000 0.5285126278
C   C68       1.0  0.99570  0.38564  0.95040  1.0000 0.5285126278
C   C69       1.0  0.39760  0.55160  0.86150  1.0000 -0.2021324141
C   C70       1.0  0.10240  0.05160  0.13850  1.0000 -0.2021324141
C   C71       1.0  0.41450  0.55420  0.63230  1.0000 -0.2067319369
C   C72       1.0  0.08550  0.05420  0.36770  1.0000 -0.2067319369
C   C73       1.0  0.31730  0.51180  0.62470  1.0000 0.0934227565
C   C74       1.0  0.18270  0.01180  0.37530  1.0000 0.0934227565
C   C75       1.0  0.29680  0.50970  0.84540  1.0000 0.0634143627
C   C76       1.0  0.20320  0.00970  0.15460  1.0000 0.0634143627
N   N1        1.0  0.26130  0.28938  0.21380  1.0000 0.0651069516
N   N2        1.0  0.23870  0.78938  0.78620  1.0000 0.0634143627
N   N3        1.0  0.73790  0.51133  0.27410  1.0000 -0.2340955353
N   N4        1.0  0.76210  0.01133  0.72590  1.0000 -0.2340955353
N   N5        1.0  0.73870  0.71062  0.78620  1.0000 0.0634143627
N   N6        1.0  0.76130  0.21062  0.21380  1.0000 0.0634143627
N   N7        1.0  0.26210  0.48867  0.72590  1.0000 -0.2340955353
N   N8        1.0  0.23790  0.98867  0.27410  1.0000 -0.2340955353
O   O1        1.0  0.59020  0.06770  0.44750  1.0000 -0.5779090142
O   O2        1.0  0.90980  0.56770  0.55250  1.0000 -0.5779090142
O   O3        1.0  0.59840  0.08058  0.95020  1.0000 -0.563782773
O   O4        1.0  0.90160  0.58058  0.04980  1.0000 -0.563782773
O   O5        1.0  0.47140  0.13030  0.55030  1.0000 -0.5531352377
O   O6        1.0  0.02860  0.63030  0.44970  1.0000 -0.5531352377
O   O7        1.0  0.43830  0.13329  0.84710  1.0000 -0.5287648952
O   O8        1.0  0.06170  0.63329  0.15290  1.0000 -0.5287648952
O   O9        1.0  0.40980  0.93230  0.55250  1.0000 -0.5779090142
O   O10       1.0  0.09020  0.43230  0.44750  1.0000 -0.5779090142
O   O11       1.0  0.40160  0.91942  0.04980  1.0000 -0.563782773
O   O12       1.0  0.09840  0.41942  0.95020  1.0000 -0.563782773
O   O13       1.0  0.52860  0.86970  0.44970  1.0000 -0.5531352377
O   O14       1.0  0.97140  0.36970  0.55030  1.0000 -0.5531352377
O   O15       1.0  0.56170  0.86671  0.15290  1.0000 -0.5287648952
O   O16       1.0  0.93830  0.36671  0.84710  1.0000 -0.5287648952
