# DDEC6 charges by PACMAN v1.1 (https://github.com/mtap-research/PACMAN-charge/)
data_2023[CoTh][sql]2[ASR]1
_chemical_formula_sum              "Th2 Co2 H48 C96 N8 O16"
_cell_length_a       15.9567
_cell_length_b       15.9567
_cell_length_c       10.7357
_cell_angle_alpha    76.9462
_cell_angle_beta     103.054
_cell_angle_gamma    81.1646

_symmetry_space_group_name_H-M    "P 1"
_symmetry_Int_Tables_number       1

loop_
  _symmetry_equiv_pos_as_xyz
  'x, y, z'

loop_
  _atom_site_type_symbol
  _atom_site_label
  _atom_site_symmetry_multiplicity
  _atom_site_fract_x
  _atom_site_fract_y
  _atom_site_fract_z
  _atom_site_occupancy
  _atom_site_charge
Th  Th1       1.0  0.44043  0.44043  0.75000  1.0000 2.0975656725
Th  Th2       1.0  0.55957  0.55957  0.25000  1.0000 2.0975656725
Co  Co1       1.0  0.94220  0.94220  0.75000  1.0000 0.6398350813
Co  Co2       1.0  0.05780  0.05780  0.25000  1.0000 0.6398350813
H   H1        1.0  0.33806  0.16158  0.71037  1.0000 0.1206295706
H   H2        1.0  0.16158  0.33806  0.78963  1.0000 0.1206295706
H   H3        1.0  0.24170  0.06498  0.71288  1.0000 0.1206295706
H   H4        1.0  0.06498  0.24170  0.78712  1.0000 0.1206295706
H   H5        1.0  0.04577  0.19437  0.49149  1.0000 0.1301620209
H   H6        1.0  0.19437  0.04577  0.00851  1.0000 0.1301620209
H   H7        1.0  0.90164  0.19536  0.34301  1.0000 0.1301620209
H   H8        1.0  0.19536  0.90164  0.15699  1.0000 0.1301620209
H   H9        1.0  0.64288  0.03176  0.41465  1.0000 0.1301620209
H   H10       1.0  0.03176  0.64288  0.08535  1.0000 0.1301620209
H   H11       1.0  0.63942  0.88998  0.56189  1.0000 0.1301620209
H   H12       1.0  0.88998  0.63942  0.93811  1.0000 0.1301620209
H   H13       1.0  0.71291  0.74559  0.55281  1.0000 0.1123107031
H   H14       1.0  0.74559  0.71291  0.94719  1.0000 0.1123107031
H   H15       1.0  0.61006  0.65624  0.55041  1.0000 0.1301620209
H   H16       1.0  0.65624  0.61006  0.94959  1.0000 0.1301620209
H   H17       1.0  0.66536  0.20176  0.42984  1.0000 0.1206295706
H   H18       1.0  0.20176  0.66536  0.07016  1.0000 0.1206295706
H   H19       1.0  0.80449  0.10197  0.20409  1.0000 0.1123107031
H   H20       1.0  0.10197  0.80449  0.29591  1.0000 0.1123107031
H   H21       1.0  0.56362  0.29448  0.23734  1.0000 0.1301620209
H   H22       1.0  0.29448  0.56362  0.26266  1.0000 0.1301620209
H   H23       1.0  0.70343  0.19653  0.01200  1.0000 0.1206295706
H   H24       1.0  0.19653  0.70343  0.48800  1.0000 0.1206295706
H   H25       1.0  0.66194  0.83842  0.28963  1.0000 0.1206295706
H   H26       1.0  0.83842  0.66194  0.21037  1.0000 0.1206295706
H   H27       1.0  0.75830  0.93502  0.28712  1.0000 0.1206295706
H   H28       1.0  0.93502  0.75830  0.21288  1.0000 0.1206295706
H   H29       1.0  0.95423  0.80563  0.50851  1.0000 0.1301620209
H   H30       1.0  0.80563  0.95423  0.99149  1.0000 0.1301620209
H   H31       1.0  0.09836  0.80464  0.65699  1.0000 0.1301620209
H   H32       1.0  0.80464  0.09836  0.84301  1.0000 0.1301620209
H   H33       1.0  0.35712  0.96824  0.58535  1.0000 0.1301620209
H   H34       1.0  0.96824  0.35712  0.91465  1.0000 0.1301620209
H   H35       1.0  0.36058  0.11002  0.43811  1.0000 0.1301620209
H   H36       1.0  0.11002  0.36058  0.06189  1.0000 0.1301620209
H   H37       1.0  0.28709  0.25441  0.44719  1.0000 0.1123107031
H   H38       1.0  0.25441  0.28709  0.05281  1.0000 0.1123107031
H   H39       1.0  0.38994  0.34376  0.44959  1.0000 0.1350544013
H   H40       1.0  0.34376  0.38994  0.05041  1.0000 0.1350544013
H   H41       1.0  0.33464  0.79824  0.57016  1.0000 0.1206295706
H   H42       1.0  0.79824  0.33464  0.92984  1.0000 0.1206295706
H   H43       1.0  0.19551  0.89803  0.79591  1.0000 0.1123107031
H   H44       1.0  0.89803  0.19551  0.70409  1.0000 0.1123107031
H   H45       1.0  0.43638  0.70552  0.76266  1.0000 0.1301620209
H   H46       1.0  0.70552  0.43638  0.73734  1.0000 0.1301620209
H   H47       1.0  0.29657  0.80347  0.98800  1.0000 0.1206295706
H   H48       1.0  0.80347  0.29657  0.51200  1.0000 0.1206295706
C   C1        1.0  0.32100  0.32100  0.75000  1.0000 0.5591942884
C   C2        1.0  0.25917  0.25917  0.75000  1.0000 -0.0173349435
C   C3        1.0  0.28270  0.17810  0.72690  1.0000 -0.0974528527
C   C4        1.0  0.17810  0.28270  0.77310  1.0000 -0.0974528527
C   C5        1.0  0.22512  0.12092  0.72780  1.0000 -0.143874063
C   C6        1.0  0.12092  0.22512  0.77220  1.0000 -0.143874063
C   C7        1.0  0.14472  0.14472  0.75000  1.0000 0.0861041886
C   C8        1.0  0.08214  0.08214  0.75000  1.0000 -0.0796144399
C   C9        1.0  0.01816  0.09158  0.63330  1.0000 0.1784186104
C   C10       1.0  0.09158  0.01816  0.86670  1.0000 0.1784186104
C   C11       1.0  0.00621  0.15775  0.51130  1.0000 -0.1800821046
C   C12       1.0  0.15775  0.00621  0.98870  1.0000 -0.1800821046
C   C13       1.0  0.92796  0.15788  0.43020  1.0000 -0.1858175851
C   C14       1.0  0.15788  0.92796  0.06980  1.0000 -0.1858175851
C   C15       1.0  0.89195  0.09091  0.50020  1.0000 0.1784186104
C   C16       1.0  0.09091  0.89195  0.99980  1.0000 0.1784186104
C   C17       1.0  0.80720  0.07874  0.45920  1.0000 -0.0796144399
C   C18       1.0  0.07874  0.80720  0.04080  1.0000 -0.0796144399
C   C19       1.0  0.77652  0.01074  0.52780  1.0000 0.1784186104
C   C20       1.0  0.01074  0.77652  0.97220  1.0000 0.1784186104
C   C21       1.0  0.69021  0.99461  0.48590  1.0000 -0.1800821046
C   C22       1.0  0.99461  0.69021  0.01410  1.0000 -0.1800821046
C   C23       1.0  0.68832  0.91752  0.56590  1.0000 -0.1800821046
C   C24       1.0  0.91752  0.68832  0.93410  1.0000 -0.1800821046
C   C25       1.0  0.77390  0.88416  0.65860  1.0000 0.1784186104
C   C26       1.0  0.88416  0.77390  0.84140  1.0000 0.1784186104
C   C27       1.0  0.80145  0.80145  0.75000  1.0000 -0.0734181635
C   C28       1.0  0.73974  0.73974  0.75000  1.0000 0.0813649513
C   C29       1.0  0.69935  0.72055  0.63300  1.0000 -0.1494388364
C   C30       1.0  0.72055  0.69935  0.86700  1.0000 -0.1494388364
C   C31       1.0  0.63983  0.66543  0.63180  1.0000 -0.0796144399
C   C32       1.0  0.66543  0.63983  0.86820  1.0000 -0.0796144399
C   C33       1.0  0.62393  0.62393  0.75000  1.0000 -0.0099244078
C   C34       1.0  0.56236  0.56236  0.75000  1.0000 0.5537805773
C   C35       1.0  0.74478  0.14152  0.33550  1.0000 0.0861041886
C   C36       1.0  0.14152  0.74478  0.16450  1.0000 0.0861041886
C   C37       1.0  0.67278  0.19988  0.34510  1.0000 -0.143874063
C   C38       1.0  0.19988  0.67278  0.15490  1.0000 -0.143874063
C   C39       1.0  0.75548  0.14086  0.21130  1.0000 -0.1567262791
C   C40       1.0  0.14086  0.75548  0.28870  1.0000 -0.1567262791
C   C41       1.0  0.61234  0.25492  0.23070  1.0000 -0.0796144399
C   C42       1.0  0.25492  0.61234  0.26930  1.0000 -0.0796144399
C   C43       1.0  0.69507  0.19669  0.09680  1.0000 -0.0974528527
C   C44       1.0  0.19669  0.69507  0.40320  1.0000 -0.0974528527
C   C45       1.0  0.62291  0.25231  0.10690  1.0000 -0.0099244078
C   C46       1.0  0.25231  0.62291  0.39310  1.0000 -0.0099244078
C   C47       1.0  0.55678  0.31062  0.98380  1.0000 0.5684523798
C   C48       1.0  0.31062  0.55678  0.51620  1.0000 0.5684523798
C   C49       1.0  0.67900  0.67900  0.25000  1.0000 0.5591942884
C   C50       1.0  0.74083  0.74083  0.25000  1.0000 -0.0173349435
C   C51       1.0  0.71730  0.82190  0.27310  1.0000 -0.0974528527
C   C52       1.0  0.82190  0.71730  0.22690  1.0000 -0.0974528527
C   C53       1.0  0.77488  0.87908  0.27220  1.0000 -0.143874063
C   C54       1.0  0.87908  0.77488  0.22780  1.0000 -0.143874063
C   C55       1.0  0.85528  0.85528  0.25000  1.0000 0.0861041886
C   C56       1.0  0.91786  0.91786  0.25000  1.0000 -0.0796144399
C   C57       1.0  0.98184  0.90842  0.36670  1.0000 0.1784186104
C   C58       1.0  0.90842  0.98184  0.13330  1.0000 0.1784186104
C   C59       1.0  0.99379  0.84225  0.48870  1.0000 -0.1800821046
C   C60       1.0  0.84225  0.99379  0.01130  1.0000 -0.1800821046
C   C61       1.0  0.07204  0.84212  0.56980  1.0000 -0.1858175851
C   C62       1.0  0.84212  0.07204  0.93020  1.0000 -0.1858175851
C   C63       1.0  0.10805  0.90909  0.49980  1.0000 0.1784186104
C   C64       1.0  0.90909  0.10805  0.00020  1.0000 0.1784186104
C   C65       1.0  0.19280  0.92126  0.54080  1.0000 -0.0796144399
C   C66       1.0  0.92126  0.19280  0.95920  1.0000 -0.0796144399
C   C67       1.0  0.22348  0.98926  0.47220  1.0000 0.1784186104
C   C68       1.0  0.98926  0.22348  0.02780  1.0000 0.1784186104
C   C69       1.0  0.30979  0.00539  0.51410  1.0000 -0.1800821046
C   C70       1.0  0.00539  0.30979  0.98590  1.0000 -0.1800821046
C   C71       1.0  0.31168  0.08248  0.43410  1.0000 -0.1800821046
C   C72       1.0  0.08248  0.31168  0.06590  1.0000 -0.1800821046
C   C73       1.0  0.22610  0.11584  0.34140  1.0000 0.1784186104
C   C74       1.0  0.11584  0.22610  0.15860  1.0000 0.1784186104
C   C75       1.0  0.19855  0.19855  0.25000  1.0000 -0.0734181635
C   C76       1.0  0.26026  0.26026  0.25000  1.0000 0.0813649513
C   C77       1.0  0.30065  0.27945  0.36700  1.0000 -0.1494388364
C   C78       1.0  0.27945  0.30065  0.13300  1.0000 -0.1494388364
C   C79       1.0  0.36017  0.33457  0.36820  1.0000 -0.0796144399
C   C80       1.0  0.33457  0.36017  0.13180  1.0000 -0.0796144399
C   C81       1.0  0.37607  0.37607  0.25000  1.0000 -0.0099244078
C   C82       1.0  0.43764  0.43764  0.25000  1.0000 0.5537805773
C   C83       1.0  0.25522  0.85848  0.66450  1.0000 0.0861041886
C   C84       1.0  0.85848  0.25522  0.83550  1.0000 0.0861041886
C   C85       1.0  0.32722  0.80012  0.65490  1.0000 -0.143874063
C   C86       1.0  0.80012  0.32722  0.84510  1.0000 -0.143874063
C   C87       1.0  0.24452  0.85914  0.78870  1.0000 -0.1567262791
C   C88       1.0  0.85914  0.24452  0.71130  1.0000 -0.1567262791
C   C89       1.0  0.38766  0.74508  0.76930  1.0000 -0.0796144399
C   C90       1.0  0.74508  0.38766  0.73070  1.0000 -0.0796144399
C   C91       1.0  0.30493  0.80331  0.90320  1.0000 -0.0974528527
C   C92       1.0  0.80331  0.30493  0.59680  1.0000 -0.0974528527
C   C93       1.0  0.37709  0.74769  0.89310  1.0000 -0.0099244078
C   C94       1.0  0.74769  0.37709  0.60690  1.0000 -0.0099244078
C   C95       1.0  0.44322  0.68938  0.01620  1.0000 0.5684523798
C   C96       1.0  0.68938  0.44322  0.48380  1.0000 0.5684523798
N   N1        1.0  0.94984  0.04822  0.62360  1.0000 -0.3701550546
N   N2        1.0  0.04822  0.94984  0.87640  1.0000 -0.3701550546
N   N3        1.0  0.82699  0.94367  0.63720  1.0000 -0.3701550546
N   N4        1.0  0.94367  0.82699  0.86280  1.0000 -0.3701550546
N   N5        1.0  0.05016  0.95178  0.37640  1.0000 -0.3701550546
N   N6        1.0  0.95178  0.05016  0.12360  1.0000 -0.3701550546
N   N7        1.0  0.17301  0.05633  0.36280  1.0000 -0.3753295325
N   N8        1.0  0.05633  0.17301  0.13720  1.0000 -0.3753295325
O   O1        1.0  0.39350  0.30082  0.72360  1.0000 -0.5618842326
O   O2        1.0  0.30082  0.39350  0.77640  1.0000 -0.5618842326
O   O3        1.0  0.50207  0.56821  0.64670  1.0000 -0.5733800399
O   O4        1.0  0.56821  0.50207  0.85330  1.0000 -0.5733800399
O   O5        1.0  0.48794  0.35846  0.99060  1.0000 -0.5753358387
O   O6        1.0  0.35846  0.48794  0.50940  1.0000 -0.5733800399
O   O7        1.0  0.57053  0.31355  0.87150  1.0000 -0.5618842326
O   O8        1.0  0.31355  0.57053  0.62850  1.0000 -0.5618842326
O   O9        1.0  0.60650  0.69918  0.27640  1.0000 -0.5618842326
O   O10       1.0  0.69918  0.60650  0.22360  1.0000 -0.5618842326
O   O11       1.0  0.49793  0.43179  0.35330  1.0000 -0.5733800399
O   O12       1.0  0.43179  0.49793  0.14670  1.0000 -0.5733800399
O   O13       1.0  0.51206  0.64154  0.00940  1.0000 -0.5733800399
O   O14       1.0  0.64154  0.51206  0.49060  1.0000 -0.5733800399
O   O15       1.0  0.42947  0.68645  0.12850  1.0000 -0.5618842326
O   O16       1.0  0.68645  0.42947  0.37150  1.0000 -0.5618842326
