# DDEC6 charges by PACMAN v1.1 (https://github.com/mtap-research/PACMAN-charge/)
data_2023[Eu][nan]2[ASR]3
_chemical_formula_sum              "Eu4 H82 C156 N10 O24 F36"
_cell_length_a       9.4234
_cell_length_b       16.6721
_cell_length_c       27.7905
_cell_angle_alpha    101.544
_cell_angle_beta     94.257
_cell_angle_gamma    93.531

_symmetry_space_group_name_H-M    "P 1"
_symmetry_Int_Tables_number       1

loop_
  _symmetry_equiv_pos_as_xyz
  'x, y, z'

loop_
  _atom_site_type_symbol
  _atom_site_label
  _atom_site_symmetry_multiplicity
  _atom_site_fract_x
  _atom_site_fract_y
  _atom_site_fract_z
  _atom_site_occupancy
  _atom_site_charge
Eu  Eu1       1.0  0.70089  0.97055  0.48932  1.0000 2.1465176776
Eu  Eu2       1.0  0.29911  0.02945  0.51068  1.0000 2.1465176776
Eu  Eu3       1.0  0.57695  0.88971  0.97345  1.0000 1.9508411124
Eu  Eu4       1.0  0.42305  0.11029  0.02655  1.0000 1.9508411124
H   H1        1.0  0.55476  0.87967  0.31683  1.0000 0.1211580495
H   H2        1.0  0.44524  0.12033  0.68317  1.0000 0.1211580495
H   H3        1.0  0.19590  0.90275  0.38432  1.0000 0.1211580495
H   H4        1.0  0.80410  0.09725  0.61568  1.0000 0.1211580495
H   H5        1.0  0.71896  0.15255  0.38919  1.0000 0.1115635637
H   H6        1.0  0.28104  0.84745  0.61081  1.0000 0.1115635637
H   H7        1.0  0.36805  0.24617  0.44228  1.0000 0.1211580495
H   H8        1.0  0.63195  0.75383  0.55772  1.0000 0.1211580495
H   H9        1.0  0.42467  0.84245  0.24174  1.0000 0.1115635637
H   H10       1.0  0.57533  0.15755  0.75826  1.0000 0.1115635637
H   H11       1.0  0.06421  0.86843  0.30938  1.0000 0.1211580495
H   H12       1.0  0.93579  0.13157  0.69062  1.0000 0.1211580495
H   H13       1.0  0.72293  0.24472  0.33641  1.0000 0.1211580495
H   H14       1.0  0.27707  0.75528  0.66359  1.0000 0.1211580495
H   H15       1.0  0.37575  0.33947  0.39154  1.0000 0.1211580495
H   H16       1.0  0.62425  0.66053  0.60846  1.0000 0.1211580495
H   H17       1.0  0.90889  0.85549  0.17897  1.0000 0.1211580495
H   H18       1.0  0.09111  0.14451  0.82103  1.0000 0.1211580495
H   H19       1.0  0.07021  0.70089  0.25707  1.0000 0.1211580495
H   H20       1.0  0.92979  0.29911  0.74293  1.0000 0.1211580495
H   H21       1.0  0.12903  0.74465  0.13147  1.0000 0.1211580495
H   H22       1.0  0.87097  0.25535  0.86853  1.0000 0.1211580495
H   H23       1.0  0.27643  0.96547  0.21016  1.0000 0.1211580495
H   H24       1.0  0.72357  0.03453  0.78984  1.0000 0.1211580495
H   H25       1.0  0.68958  0.39600  0.25425  1.0000 0.1211580495
H   H26       1.0  0.31042  0.60400  0.74575  1.0000 0.1211580495
H   H27       1.0  0.37798  0.24131  0.28015  1.0000 0.1211580495
H   H28       1.0  0.62202  0.75869  0.71985  1.0000 0.1211580495
H   H29       1.0  0.44175  0.46929  0.28623  1.0000 0.1115635637
H   H30       1.0  0.55825  0.53071  0.71377  1.0000 0.1115635637
H   H31       1.0  0.66020  0.44322  0.41125  1.0000 0.1211580495
H   H32       1.0  0.33980  0.55678  0.58875  1.0000 0.1211580495
H   H33       1.0  0.19434  0.78313  0.06093  1.0000 0.1115635637
H   H34       1.0  0.80566  0.21687  0.93907  1.0000 0.1115635637
H   H35       1.0  0.33130  0.00645  0.13869  1.0000 0.1290160009
H   H36       1.0  0.66870  0.99355  0.86131  1.0000 0.1290160009
H   H37       1.0  0.65865  0.33408  0.17146  1.0000 0.1211580495
H   H38       1.0  0.34135  0.66592  0.82854  1.0000 0.1211580495
H   H39       1.0  0.34890  0.18135  0.19823  1.0000 0.1211580495
H   H40       1.0  0.65110  0.81865  0.80177  1.0000 0.1211580495
H   H41       1.0  0.65417  0.67365  0.20781  1.0000 0.1115635637
H   H42       1.0  0.34583  0.32635  0.79219  1.0000 0.1115635637
H   H43       1.0  0.52169  0.65986  0.39718  1.0000 0.1211580495
H   H44       1.0  0.47831  0.34014  0.60282  1.0000 0.1211580495
H   H45       1.0  0.58604  0.26488  0.98022  1.0000 0.1018072035
H   H46       1.0  0.41396  0.73512  0.01978  1.0000 0.1018072035
H   H47       1.0  0.09146  0.09106  0.06677  1.0000 0.1115635637
H   H48       1.0  0.90854  0.90894  0.93323  1.0000 0.1115635637
H   H49       1.0  0.56208  0.38679  0.95287  1.0000 0.1290160009
H   H50       1.0  0.43792  0.61321  0.04713  1.0000 0.1290160009
H   H51       1.0  0.87136  0.14217  0.07476  1.0000 0.1290160009
H   H52       1.0  0.12864  0.85783  0.92524  1.0000 0.1290160009
H   H53       1.0  0.39999  0.90946  0.85326  1.0000 0.1211580495
H   H54       1.0  0.60001  0.09054  0.14674  1.0000 0.1211580495
H   H55       1.0  0.06048  0.03417  0.88594  1.0000 0.1211580495
H   H56       1.0  0.93952  0.96583  0.11406  1.0000 0.1211580495
H   H57       1.0  0.08612  0.43768  0.97837  1.0000 0.1211580495
H   H58       1.0  0.91388  0.56232  0.02163  1.0000 0.1211580495
H   H59       1.0  0.34740  0.44547  0.95655  1.0000 0.1211580495
H   H60       1.0  0.65260  0.55453  0.04345  1.0000 0.1211580495
H   H61       1.0  0.82812  0.26311  0.05199  1.0000 0.1350112245
H   H62       1.0  0.17188  0.73689  0.94801  1.0000 0.1350112245
H   H63       1.0  0.91868  0.37959  0.01553  1.0000 0.1211580495
H   H64       1.0  0.08132  0.62041  0.98447  1.0000 0.1211580495
H   H65       1.0  0.27652  0.83843  0.78057  1.0000 0.1211580495
H   H66       1.0  0.72348  0.16157  0.21943  1.0000 0.1211580495
H   H67       1.0  0.93931  0.96489  0.81274  1.0000 0.1211580495
H   H68       1.0  0.06069  0.03511  0.18726  1.0000 0.1211580495
H   H69       1.0  0.20616  0.94955  0.71689  1.0000 0.1290160009
H   H70       1.0  0.79384  0.05045  0.28311  1.0000 0.1290160009
H   H71       1.0  0.80543  0.85051  0.67919  1.0000 0.1290160009
H   H72       1.0  0.19457  0.14949  0.32081  1.0000 0.1290160009
H   H73       1.0  0.96124  0.76759  0.81021  1.0000 0.1211580495
H   H74       1.0  0.03876  0.23241  0.18979  1.0000 0.1211580495
H   H75       1.0  0.99451  0.73487  0.66509  1.0000 0.1115635637
H   H76       1.0  0.00549  0.26513  0.33491  1.0000 0.1115635637
H   H77       1.0  0.19890  0.00239  0.64573  1.0000 0.1290160009
H   H78       1.0  0.80110  0.99761  0.35427  1.0000 0.1290160009
H   H79       1.0  0.79648  0.90685  0.60950  1.0000 0.1211580495
H   H80       1.0  0.20352  0.09315  0.39050  1.0000 0.1211580495
H   H81       1.0  0.88835  0.54307  0.72542  1.0000 0.1018072035
H   H82       1.0  0.11165  0.45693  0.27458  1.0000 0.1018072035
C   C1        1.0  0.47770  0.91830  0.40700  1.0000 0.6181815699
C   C2        1.0  0.52230  0.08170  0.59300  1.0000 0.6181815699
C   C3        1.0  0.53770  0.12990  0.45490  1.0000 0.6535294339
C   C4        1.0  0.46230  0.87010  0.54510  1.0000 0.6535294339
C   C5        1.0  0.38980  0.89560  0.35890  1.0000 -0.0368275272
C   C6        1.0  0.61020  0.10440  0.64110  1.0000 -0.0368275272
C   C7        1.0  0.54380  0.19050  0.42170  1.0000 -0.0368275272
C   C8        1.0  0.45620  0.80950  0.57830  1.0000 -0.0368275272
C   C9        1.0  0.45560  0.87710  0.31540  1.0000 -0.0803355482
C   C10       1.0  0.54440  0.12290  0.68460  1.0000 -0.0803355482
C   C11       1.0  0.24240  0.89120  0.35560  1.0000 -0.0693846509
C   C12       1.0  0.75760  0.10880  0.64440  1.0000 -0.0693846509
C   C13       1.0  0.64960  0.19000  0.38970  1.0000 -0.0803355482
C   C14       1.0  0.35040  0.81000  0.61030  1.0000 -0.0803355482
C   C15       1.0  0.44090  0.24630  0.42150  1.0000 -0.0803355482
C   C16       1.0  0.55910  0.75370  0.57850  1.0000 -0.0803355482
C   C17       1.0  0.37820  0.85500  0.27040  1.0000 -0.1893009745
C   C18       1.0  0.62180  0.14500  0.72960  1.0000 -0.1893009745
C   C19       1.0  0.16330  0.87020  0.31070  1.0000 -0.1893009745
C   C20       1.0  0.83670  0.12980  0.68930  1.0000 -0.1893009745
C   C21       1.0  0.65260  0.24570  0.35820  1.0000 -0.1808746097
C   C22       1.0  0.34740  0.75430  0.64180  1.0000 -0.1808746097
C   C23       1.0  0.44490  0.30190  0.39100  1.0000 -0.1808746097
C   C24       1.0  0.55510  0.69810  0.60900  1.0000 -0.1808746097
C   C25       1.0  0.22960  0.85150  0.26770  1.0000 0.1779710263
C   C26       1.0  0.77040  0.14850  0.73230  1.0000 0.1779710263
C   C27       1.0  0.55160  0.30170  0.35960  1.0000 0.1703869276
C   C28       1.0  0.44840  0.69830  0.64040  1.0000 0.1703869276
C   C29       1.0  0.01220  0.78530  0.21840  1.0000 0.2001984701
C   C30       1.0  0.98780  0.21470  0.78160  1.0000 0.2001984701
C   C31       1.0  0.19410  0.85210  0.17820  1.0000 0.1703869276
C   C32       1.0  0.80590  0.14790  0.82180  1.0000 0.1703869276
C   C33       1.0  0.53790  0.32450  0.27570  1.0000 0.1703869276
C   C34       1.0  0.46210  0.67550  0.72430  1.0000 0.1703869276
C   C35       1.0  0.54790  0.44170  0.34590  1.0000 0.206390886
C   C36       1.0  0.45210  0.55830  0.65410  1.0000 0.206390886
C   C37       1.0  0.89700  0.81020  0.19350  1.0000 -0.1808746097
C   C38       1.0  0.10300  0.18980  0.80650  1.0000 -0.1808746097
C   C39       1.0  0.99330  0.71810  0.23990  1.0000 -0.1669493519
C   C40       1.0  0.00670  0.28190  0.76010  1.0000 -0.1669493519
C   C41       1.0  0.17070  0.79730  0.13310  1.0000 -0.1808746097
C   C42       1.0  0.82930  0.20270  0.86690  1.0000 -0.1808746097
C   C43       1.0  0.25710  0.92910  0.18000  1.0000 -0.1893009745
C   C44       1.0  0.74290  0.07090  0.82000  1.0000 -0.1893009745
C   C45       1.0  0.62060  0.35260  0.24310  1.0000 -0.1808746097
C   C46       1.0  0.37940  0.64740  0.75690  1.0000 -0.1808746097
C   C47       1.0  0.43520  0.26050  0.25830  1.0000 -0.1808746097
C   C48       1.0  0.56480  0.73950  0.74170  1.0000 -0.1808746097
C   C49       1.0  0.48050  0.49140  0.31820  1.0000 -0.1808746097
C   C50       1.0  0.51950  0.50860  0.68180  1.0000 -0.1808746097
C   C51       1.0  0.61120  0.47540  0.39290  1.0000 -0.1808746097
C   C52       1.0  0.38880  0.52460  0.60710  1.0000 -0.1808746097
C   C53       1.0  0.76340  0.76880  0.18990  1.0000 -0.0803355482
C   C54       1.0  0.23660  0.23120  0.81010  1.0000 -0.0803355482
C   C55       1.0  0.86000  0.67610  0.23580  1.0000 -0.1206357652
C   C56       1.0  0.14000  0.32390  0.76420  1.0000 -0.1206357652
C   C57       1.0  0.20900  0.82050  0.09090  1.0000 -0.1009508461
C   C58       1.0  0.79100  0.17950  0.90910  1.0000 -0.1009508461
C   C59       1.0  0.29210  0.95330  0.13720  1.0000 -0.1009508461
C   C60       1.0  0.70790  0.04670  0.86280  1.0000 -0.1009508461
C   C61       1.0  0.60100  0.31580  0.19350  1.0000 -0.0803355482
C   C62       1.0  0.39900  0.68420  0.80650  1.0000 -0.0803355482
C   C63       1.0  0.41730  0.22510  0.20930  1.0000 -0.0903259093
C   C64       1.0  0.58270  0.77490  0.79070  1.0000 -0.0903259093
C   C65       1.0  0.47060  0.57360  0.33800  1.0000 -0.1206357652
C   C66       1.0  0.52940  0.42640  0.66200  1.0000 -0.1206357652
C   C67       1.0  0.59990  0.55900  0.41220  1.0000 -0.0803355482
C   C68       1.0  0.40010  0.44100  0.58780  1.0000 -0.0803355482
C   C69       1.0  0.64220  0.80100  0.16280  1.0000 0.6535294339
C   C70       1.0  0.35780  0.19900  0.83720  1.0000 0.6535294339
C   C71       1.0  0.74370  0.70170  0.21050  1.0000 -0.1098556198
C   C72       1.0  0.25630  0.29830  0.78950  1.0000 -0.1098556198
C   C73       1.0  0.84150  0.60440  0.25940  1.0000 0.5171926751
C   C74       1.0  0.15850  0.39560  0.74060  1.0000 0.5171926751
C   C75       1.0  0.26910  0.89880  0.09220  1.0000 -0.0225691564
C   C76       1.0  0.73090  0.10120  0.90780  1.0000 -0.0225691564
C   C77       1.0  0.49700  0.25240  0.17620  1.0000 -0.0225691564
C   C78       1.0  0.50300  0.74760  0.82380  1.0000 -0.0225691564
C   C79       1.0  0.52940  0.60460  0.38400  1.0000 -0.0903259093
C   C80       1.0  0.47060  0.39540  0.61600  1.0000 -0.0903259093
C   C81       1.0  0.39660  0.62550  0.30800  1.0000 0.5492959852
C   C82       1.0  0.60340  0.37450  0.69200  1.0000 0.5492959852
C   C83       1.0  0.67060  0.59040  0.46670  1.0000 0.5561584368
C   C84       1.0  0.32940  0.40960  0.53330  1.0000 0.5561584368
C   C85       1.0  0.31130  0.92540  0.04600  1.0000 0.6251857117
C   C86       1.0  0.68870  0.07460  0.95400  1.0000 0.6251857117
C   C87       1.0  0.47630  0.20640  0.12280  1.0000 0.5492959852
C   C88       1.0  0.52370  0.79360  0.87720  1.0000 0.5492959852
C   C89       1.0  0.31630  0.01490  0.92710  1.0000 0.60481195
C   C90       1.0  0.68370  0.98510  0.07290  1.0000 0.60481195
C   C91       1.0  0.26660  0.28580  0.00290  1.0000 0.1350112245
C   C92       1.0  0.73340  0.71420  0.99710  1.0000 0.1350112245
C   C93       1.0  0.49890  0.28820  0.98170  1.0000 0.1211580495
C   C94       1.0  0.50110  0.71180  0.01830  1.0000 0.1211580495
C   C95       1.0  0.15410  0.24570  0.02300  1.0000 0.1290160009
C   C96       1.0  0.84590  0.75430  0.97700  1.0000 0.1290160009
C   C97       1.0  0.07560  0.13960  0.05630  1.0000 0.1115635637
C   C98       1.0  0.92440  0.86040  0.94370  1.0000 0.1115635637
C   C99       1.0  0.24090  0.97560  0.87820  1.0000 -0.0368275272
C   C100      1.0  0.75910  0.02440  0.12180  1.0000 -0.0368275272
C   C101      1.0  0.24420  0.36010  0.98780  1.0000 0.0583154842
C   C102      1.0  0.75580  0.63990  0.01220  1.0000 0.0583154842
C   C103      1.0  0.48550  0.36220  0.96530  1.0000 -0.1582960076
C   C104      1.0  0.51450  0.63780  0.03470  1.0000 -0.1582960076
C   C105      1.0  0.02290  0.28060  0.02760  1.0000 0.0461102709
C   C106      1.0  0.97710  0.71940  0.97240  1.0000 0.0461102709
C   C107      1.0  0.94200  0.17050  0.06170  1.0000 -0.1206357652
C   C108      1.0  0.05800  0.82950  0.93830  1.0000 -0.1206357652
C   C109      1.0  0.30580  0.91960  0.84580  1.0000 -0.0803355482
C   C110      1.0  0.69420  0.08040  0.15420  1.0000 -0.0803355482
C   C111      1.0  0.10400  0.99400  0.86510  1.0000 -0.0903259093
C   C112      1.0  0.89600  0.00600  0.13490  1.0000 -0.0903259093
C   C113      1.0  0.10490  0.39140  0.99100  1.0000 -0.1515119766
C   C114      1.0  0.89510  0.60860  0.00900  1.0000 -0.1515119766
C   C115      1.0  0.35870  0.39720  0.96790  1.0000 -0.1098556198
C   C116      1.0  0.64130  0.60280  0.03210  1.0000 -0.1098556198
C   C117      1.0  0.91580  0.24110  0.04800  1.0000 -0.0803355482
C   C118      1.0  0.08420  0.75890  0.95200  1.0000 -0.0803355482
C   C119      1.0  0.00450  0.35540  0.01150  1.0000 -0.1515119766
C   C120      1.0  0.99550  0.64460  0.98850  1.0000 -0.1515119766
C   C121      1.0  0.23250  0.87770  0.80180  1.0000 -0.1808746097
C   C122      1.0  0.76750  0.12230  0.19820  1.0000 -0.1808746097
C   C123      1.0  0.03180  0.95280  0.82110  1.0000 -0.1808746097
C   C124      1.0  0.96820  0.04720  0.17890  1.0000 -0.1808746097
C   C125      1.0  0.09530  0.89430  0.78980  1.0000 0.1703869276
C   C126      1.0  0.90470  0.10570  0.21020  1.0000 0.1703869276
C   C127      1.0  0.00980  0.89090  0.70380  1.0000 0.1779710263
C   C128      1.0  0.99020  0.10910  0.29620  1.0000 0.1779710263
C   C129      1.0  0.98320  0.76690  0.73880  1.0000 0.2001984701
C   C130      1.0  0.01680  0.23310  0.26120  1.0000 0.2001984701
C   C131      1.0  0.12510  0.93890  0.69470  1.0000 -0.1893009745
C   C132      1.0  0.87490  0.06110  0.30530  1.0000 -0.1893009745
C   C133      1.0  0.88540  0.88030  0.67220  1.0000 -0.1808746097
C   C134      1.0  0.11460  0.11970  0.32780  1.0000 -0.1808746097
C   C135      1.0  0.95500  0.73360  0.77910  1.0000 -0.1893009745
C   C136      1.0  0.04500  0.26640  0.22090  1.0000 -0.1808746097
C   C137      1.0  0.97620  0.71400  0.69280  1.0000 -0.1893009745
C   C138      1.0  0.02380  0.28600  0.30720  1.0000 -0.1893009745
C   C139      1.0  0.12000  0.97130  0.65230  1.0000 -0.0903259093
C   C140      1.0  0.88000  0.02870  0.34770  1.0000 -0.0903259093
C   C141      1.0  0.88010  0.91390  0.63040  1.0000 -0.0803355482
C   C142      1.0  0.11990  0.08610  0.36960  1.0000 -0.0803355482
C   C143      1.0  0.91820  0.65190  0.77410  1.0000 -0.1009508461
C   C144      1.0  0.08180  0.34810  0.22590  1.0000 -0.1009508461
C   C145      1.0  0.94230  0.63110  0.68820  1.0000 -0.1382115349
C   C146      1.0  0.05770  0.36890  0.31180  1.0000 -0.1382115349
C   C147      1.0  0.99830  0.95750  0.61970  1.0000 -0.0516364962
C   C148      1.0  0.00170  0.04250  0.38030  1.0000 -0.0516364962
C   C149      1.0  0.91220  0.59900  0.72860  1.0000 -0.1206357652
C   C150      1.0  0.08780  0.40100  0.27140  1.0000 -0.1206357652
C   C151      1.0  0.88620  0.61850  0.81890  1.0000 0.6079712048
C   C152      1.0  0.11380  0.38150  0.18110  1.0000 0.6079712048
C   C153      1.0  0.94100  0.57570  0.63940  1.0000 0.5492959852
C   C154      1.0  0.05900  0.42430  0.36060  1.0000 0.5492959852
C   C155      1.0  0.99720  0.98930  0.57280  1.0000 0.6649510697
C   C156      1.0  0.00280  0.01070  0.42720  1.0000 0.6649510697
N   N1        1.0  0.14800  0.82780  0.22157  1.0000 -0.1808746097
N   N2        1.0  0.85200  0.17220  0.77843  1.0000 -0.1808746097
N   N3        1.0  0.55730  0.35800  0.32697  1.0000 -0.1985778108
N   N4        1.0  0.44270  0.64200  0.67303  1.0000 -0.1893009745
N   N5        1.0  0.39330  0.25080  0.99890  1.0000 -0.337905483
N   N6        1.0  0.60670  0.74920  0.00110  1.0000 -0.337905483
N   N7        1.0  0.18060  0.17510  0.03730  1.0000 -0.337905483
N   N8        1.0  0.81940  0.82490  0.96270  1.0000 -0.337905483
N   N9        1.0  0.01710  0.85120  0.74477  1.0000 -0.1808746097
N   N10       1.0  0.98290  0.14880  0.25523  1.0000 -0.1808746097
O   O1        1.0  0.88650  0.99500  0.44237  1.0000 -0.6518975362
O   O2        1.0  0.11350  0.00500  0.55763  1.0000 -0.6518975362
O   O3        1.0  0.42260  0.94880  0.44638  1.0000 -0.7406469747
O   O4        1.0  0.57740  0.05120  0.55362  1.0000 -0.7406469747
O   O5        1.0  0.60780  0.90800  0.40731  1.0000 -0.624317126
O   O6        1.0  0.39220  0.09200  0.59269  1.0000 -0.624317126
O   O7        1.0  0.57690  0.87710  0.52534  1.0000 -0.6894834802
O   O8        1.0  0.42310  0.12290  0.47466  1.0000 -0.6894834802
O   O9        1.0  0.87850  0.99900  0.55206  1.0000 -0.6978087291
O   O10       1.0  0.12150  0.00100  0.44794  1.0000 -0.6978087291
O   O11       1.0  0.64570  0.09030  0.46009  1.0000 -0.6639205978
O   O12       1.0  0.35430  0.90970  0.53991  1.0000 -0.6639205978
O   O13       1.0  0.58070  0.01910  0.05537  1.0000 -0.7066032157
O   O14       1.0  0.41930  0.98090  0.94463  1.0000 -0.7066032157
O   O15       1.0  0.37310  0.87450  0.01658  1.0000 -0.6639205978
O   O16       1.0  0.62690  0.12550  0.98342  1.0000 -0.6639205978
O   O17       1.0  0.28420  0.99550  0.04091  1.0000 -0.6325910554
O   O18       1.0  0.71580  0.00450  0.95909  1.0000 -0.6325910554
O   O19       1.0  0.54990  0.22680  0.09161  1.0000 -0.5873391792
O   O20       1.0  0.45010  0.77320  0.90839  1.0000 -0.5873391792
O   O21       1.0  0.38460  0.14640  0.11224  1.0000 -0.6102402821
O   O22       1.0  0.61540  0.85360  0.88776  1.0000 -0.6102402821
O   O23       1.0  0.27320  0.07960  0.95019  1.0000 -0.6102402821
O   O24       1.0  0.72680  0.92040  0.04981  1.0000 -0.6102402821
F   F1        1.0  0.52170  0.75600  0.16000  1.0000 -0.2061813936
F   F2        1.0  0.47830  0.24400  0.84000  1.0000 -0.2061813936
F   F3        1.0  0.61710  0.87590  0.18480  1.0000 -0.1985778108
F   F4        1.0  0.38290  0.12410  0.81520  1.0000 -0.1985778108
F   F5        1.0  0.67190  0.80650  0.11800  1.0000 -0.1893009745
F   F6        1.0  0.32810  0.19350  0.88200  1.0000 -0.1893009745
F   F7        1.0  0.75780  0.60720  0.28980  1.0000 -0.1299848944
F   F8        1.0  0.24220  0.39280  0.71020  1.0000 -0.1299848944
F   F9        1.0  0.94540  0.58890  0.28320  1.0000 -0.1515119766
F   F10       1.0  0.05460  0.41110  0.71680  1.0000 -0.1582960076
F   F11       1.0  0.79500  0.54350  0.22950  1.0000 -0.1515119766
F   F12       1.0  0.20500  0.45650  0.77050  1.0000 -0.1515119766
F   F13       1.0  0.47910  0.67940  0.29660  1.0000 -0.1582960076
F   F14       1.0  0.52090  0.32060  0.70340  1.0000 -0.1582960076
F   F15       1.0  0.31100  0.66590  0.33120  1.0000 -0.1515119766
F   F16       1.0  0.68900  0.33410  0.66880  1.0000 -0.1515119766
F   F17       1.0  0.34600  0.59280  0.26710  1.0000 -0.1515119766
F   F18       1.0  0.65400  0.40720  0.73290  1.0000 -0.1515119766
F   F19       1.0  0.80400  0.56300  0.47110  1.0000 -0.1985778108
F   F20       1.0  0.19600  0.43700  0.52890  1.0000 -0.1985778108
F   F21       1.0  0.60400  0.56930  0.49520  1.0000 -0.1669493519
F   F22       1.0  0.39600  0.43070  0.50480  1.0000 -0.1669493519
F   F23       1.0  0.69010  0.66720  0.47410  1.0000 -0.1808746097
F   F24       1.0  0.30990  0.33280  0.52590  1.0000 -0.1808746097
F   F25       1.0  0.83070  0.66970  0.85270  1.0000 -0.1808746097
F   F26       1.0  0.16930  0.33030  0.14730  1.0000 -0.1808746097
F   F27       1.0  0.00280  0.60350  0.84240  1.0000 -0.1893009745
F   F28       1.0  0.99720  0.39650  0.15760  1.0000 -0.1893009745
F   F29       1.0  0.81020  0.55220  0.80940  1.0000 -0.1808746097
F   F30       1.0  0.18980  0.44780  0.19060  1.0000 -0.1808746097
F   F31       1.0  0.94210  0.60980  0.60360  1.0000 -0.1582960076
F   F32       1.0  0.05790  0.39020  0.39640  1.0000 -0.1582960076
F   F33       1.0  0.04100  0.53240  0.63480  1.0000 -0.1515119766
F   F34       1.0  0.95900  0.46760  0.36520  1.0000 -0.1515119766
F   F35       1.0  0.83560  0.52580  0.62820  1.0000 -0.1515119766
F   F36       1.0  0.16440  0.47420  0.37180  1.0000 -0.1515119766
