# DDEC6 charges by PACMAN v1.1 (https://github.com/mtap-research/PACMAN-charge/)
data_2023[Fe][nbo]3[ASR]1
_chemical_formula_sum              "Fe6 H18 C48 O24"
_cell_length_a       13.7278
_cell_length_b       13.7278
_cell_length_c       13.7278
_cell_angle_alpha    88.2216
_cell_angle_beta     88.2216
_cell_angle_gamma    88.2216

_symmetry_space_group_name_H-M    "P 1"
_symmetry_Int_Tables_number       1

loop_
  _symmetry_equiv_pos_as_xyz
  'x, y, z'

loop_
  _atom_site_type_symbol
  _atom_site_label
  _atom_site_symmetry_multiplicity
  _atom_site_fract_x
  _atom_site_fract_y
  _atom_site_fract_z
  _atom_site_occupancy
  _atom_site_charge
Fe  Fe1       1.0  0.52290  0.52290  0.09724  1.0000 0.934016446
Fe  Fe2       1.0  0.52290  0.09724  0.52290  1.0000 0.935520301
Fe  Fe3       1.0  0.09724  0.52290  0.52290  1.0000 0.934016446
Fe  Fe4       1.0  0.47710  0.90276  0.47710  1.0000 0.934016446
Fe  Fe5       1.0  0.47710  0.47710  0.90276  1.0000 0.934016446
Fe  Fe6       1.0  0.90276  0.47710  0.47710  1.0000 0.935520301
H   H1        1.0  0.51800  0.22780  0.22780  1.0000 0.1316537432
H   H2        1.0  0.22780  0.22780  0.51800  1.0000 0.1316537432
H   H3        1.0  0.22780  0.51800  0.22780  1.0000 0.1316537432
H   H4        1.0  0.48200  0.77220  0.77220  1.0000 0.1316537432
H   H5        1.0  0.77220  0.48200  0.77220  1.0000 0.1316537432
H   H6        1.0  0.77220  0.77220  0.48200  1.0000 0.1316537432
H   H7        1.0  0.49820  0.15540  0.94740  1.0000 0.1149638616
H   H8        1.0  0.15540  0.94740  0.49820  1.0000 0.1149638616
H   H9        1.0  0.94740  0.49820  0.15540  1.0000 0.1149638616
H   H10       1.0  0.50180  0.05260  0.84460  1.0000 0.1149638616
H   H11       1.0  0.84460  0.50180  0.05260  1.0000 0.1149638616
H   H12       1.0  0.05260  0.84460  0.50180  1.0000 0.1149638616
H   H13       1.0  0.50180  0.84460  0.05260  1.0000 0.1149638616
H   H14       1.0  0.84460  0.05260  0.50180  1.0000 0.1149638616
H   H15       1.0  0.05260  0.50180  0.84460  1.0000 0.1149638616
H   H16       1.0  0.49820  0.94740  0.15540  1.0000 0.1149638616
H   H17       1.0  0.15540  0.49820  0.94740  1.0000 0.1149638616
H   H18       1.0  0.94740  0.15540  0.49820  1.0000 0.1149638616
C   C1        1.0  0.50800  0.31630  0.05240  1.0000 0.5698881544
C   C2        1.0  0.31630  0.05240  0.50800  1.0000 0.5698881544
C   C3        1.0  0.05240  0.50800  0.31630  1.0000 0.5698881544
C   C4        1.0  0.49200  0.94760  0.68370  1.0000 0.5698881544
C   C5        1.0  0.68370  0.49200  0.94760  1.0000 0.5698881544
C   C6        1.0  0.94760  0.68370  0.49200  1.0000 0.5698881544
C   C7        1.0  0.49200  0.68370  0.94760  1.0000 0.5698881544
C   C8        1.0  0.68370  0.94760  0.49200  1.0000 0.5698881544
C   C9        1.0  0.94760  0.49200  0.68370  1.0000 0.5698881544
C   C10       1.0  0.50800  0.05240  0.31630  1.0000 0.5698881544
C   C11       1.0  0.31630  0.50800  0.05240  1.0000 0.5698881544
C   C12       1.0  0.05240  0.31630  0.50800  1.0000 0.5698881544
C   C13       1.0  0.50250  0.03800  0.03800  1.0000 0.0583434698
C   C14       1.0  0.03800  0.03800  0.50250  1.0000 0.0583434698
C   C15       1.0  0.03800  0.50250  0.03800  1.0000 0.0583434698
C   C16       1.0  0.49750  0.96200  0.96200  1.0000 0.0583434698
C   C17       1.0  0.96200  0.49750  0.96200  1.0000 0.0583434698
C   C18       1.0  0.96200  0.96200  0.49750  1.0000 0.0583434698
C   C19       1.0  0.50760  0.20880  0.08290  1.0000 -0.0096502113
C   C20       1.0  0.20880  0.08290  0.50760  1.0000 -0.0096502113
C   C21       1.0  0.08290  0.50760  0.20880  1.0000 -0.0096502113
C   C22       1.0  0.49240  0.91710  0.79120  1.0000 -0.0096502113
C   C23       1.0  0.79120  0.49240  0.91710  1.0000 -0.0096502113
C   C24       1.0  0.91710  0.79120  0.49240  1.0000 -0.0096502113
C   C25       1.0  0.49240  0.79120  0.91710  1.0000 -0.0096502113
C   C26       1.0  0.79120  0.91710  0.49240  1.0000 -0.0096502113
C   C27       1.0  0.91710  0.49240  0.79120  1.0000 -0.0096502113
C   C28       1.0  0.50760  0.08290  0.20880  1.0000 -0.0096502113
C   C29       1.0  0.20880  0.50760  0.08290  1.0000 -0.0096502113
C   C30       1.0  0.08290  0.20880  0.50760  1.0000 -0.0096502113
C   C31       1.0  0.51200  0.18100  0.18100  1.0000 -0.1100636475
C   C32       1.0  0.18100  0.18100  0.51200  1.0000 -0.1100636475
C   C33       1.0  0.18100  0.51200  0.18100  1.0000 -0.1100636475
C   C34       1.0  0.48800  0.81900  0.81900  1.0000 -0.1100636475
C   C35       1.0  0.81900  0.48800  0.81900  1.0000 -0.1100636475
C   C36       1.0  0.81900  0.81900  0.48800  1.0000 -0.1100636475
C   C37       1.0  0.50218  0.13638  0.01278  1.0000 -0.1523495431
C   C38       1.0  0.13638  0.01278  0.50218  1.0000 -0.1523495431
C   C39       1.0  0.01278  0.50218  0.13638  1.0000 -0.1523495431
C   C40       1.0  0.49782  0.98722  0.86362  1.0000 -0.1523495431
C   C41       1.0  0.86362  0.49782  0.98722  1.0000 -0.1523495431
C   C42       1.0  0.98722  0.86362  0.49782  1.0000 -0.1523495431
C   C43       1.0  0.49782  0.86362  0.98722  1.0000 -0.1523495431
C   C44       1.0  0.86362  0.98722  0.49782  1.0000 -0.1523495431
C   C45       1.0  0.98722  0.49782  0.86362  1.0000 -0.1523495431
C   C46       1.0  0.50218  0.01278  0.13638  1.0000 -0.1523495431
C   C47       1.0  0.13638  0.50218  0.01278  1.0000 -0.1523495431
C   C48       1.0  0.01278  0.13638  0.50218  1.0000 -0.1523495431
O   O1        1.0  0.52232  0.37342  0.11722  1.0000 -0.5162140197
O   O2        1.0  0.37342  0.11722  0.52232  1.0000 -0.5162140197
O   O3        1.0  0.11722  0.52232  0.37342  1.0000 -0.5162140197
O   O4        1.0  0.47768  0.88278  0.62658  1.0000 -0.5140446694
O   O5        1.0  0.62658  0.47768  0.88278  1.0000 -0.5162140197
O   O6        1.0  0.88278  0.62658  0.47768  1.0000 -0.5162140197
O   O7        1.0  0.47768  0.62658  0.88278  1.0000 -0.5162140197
O   O8        1.0  0.62658  0.88278  0.47768  1.0000 -0.5162140197
O   O9        1.0  0.88278  0.47768  0.62658  1.0000 -0.5162140197
O   O10       1.0  0.52232  0.11722  0.37342  1.0000 -0.5162140197
O   O11       1.0  0.37342  0.52232  0.11722  1.0000 -0.5162140197
O   O12       1.0  0.11722  0.37342  0.52232  1.0000 -0.5162140197
O   O13       1.0  0.49291  0.33781  0.96831  1.0000 -0.5140446694
O   O14       1.0  0.33781  0.96831  0.49291  1.0000 -0.5140446694
O   O15       1.0  0.96831  0.49291  0.33781  1.0000 -0.5140446694
O   O16       1.0  0.50709  0.03169  0.66219  1.0000 -0.5140446694
O   O17       1.0  0.66219  0.50709  0.03169  1.0000 -0.5140446694
O   O18       1.0  0.03169  0.66219  0.50709  1.0000 -0.5140446694
O   O19       1.0  0.50709  0.66219  0.03169  1.0000 -0.5140446694
O   O20       1.0  0.66219  0.03169  0.50709  1.0000 -0.5140446694
O   O21       1.0  0.03169  0.50709  0.66219  1.0000 -0.5140446694
O   O22       1.0  0.49291  0.96831  0.33781  1.0000 -0.5140446694
O   O23       1.0  0.33781  0.49291  0.96831  1.0000 -0.5140446694
O   O24       1.0  0.96831  0.33781  0.49291  1.0000 -0.5140446694
