# DDEC6 charges by PACMAN v1.1 (https://github.com/mtap-research/PACMAN-charge/)
data_2023[Cu][nan]3[ASR]7
_chemical_formula_sum              "Cu12 H96 C204 N12 O48"
_cell_length_a       24.4072
_cell_length_b       24.4072
_cell_length_c       24.4072
_cell_angle_alpha    101.345
_cell_angle_beta     101.345
_cell_angle_gamma    101.345

_symmetry_space_group_name_H-M    "P 1"
_symmetry_Int_Tables_number       1

loop_
  _symmetry_equiv_pos_as_xyz
  'x, y, z'

loop_
  _atom_site_type_symbol
  _atom_site_label
  _atom_site_symmetry_multiplicity
  _atom_site_fract_x
  _atom_site_fract_y
  _atom_site_fract_z
  _atom_site_occupancy
  _atom_site_charge
Cu  Cu1       1.0  0.20541  0.94348  0.35390  1.0000 0.8672991132
Cu  Cu2       1.0  0.94348  0.35390  0.20541  1.0000 0.8672991132
Cu  Cu3       1.0  0.35390  0.20541  0.94348  1.0000 0.8672991132
Cu  Cu4       1.0  0.79459  0.05652  0.64610  1.0000 0.8672991132
Cu  Cu5       1.0  0.05652  0.64610  0.79459  1.0000 0.8672991132
Cu  Cu6       1.0  0.64610  0.79459  0.05652  1.0000 0.8672991132
Cu  Cu7       1.0  0.14786  0.95812  0.25581  1.0000 0.8570461706
Cu  Cu8       1.0  0.95812  0.25581  0.14786  1.0000 0.8570461706
Cu  Cu9       1.0  0.25581  0.14786  0.95812  1.0000 0.8570461706
Cu  Cu10      1.0  0.85214  0.04188  0.74419  1.0000 0.8570461706
Cu  Cu11      1.0  0.04188  0.74419  0.85214  1.0000 0.8570461706
Cu  Cu12      1.0  0.74419  0.85214  0.04188  1.0000 0.8570461706
H   H1        1.0  0.61992  0.20423  0.40826  1.0000 0.1062665418
H   H2        1.0  0.20423  0.40826  0.61992  1.0000 0.1062665418
H   H3        1.0  0.40826  0.61992  0.20423  1.0000 0.1062665418
H   H4        1.0  0.38008  0.79577  0.59174  1.0000 0.1062665418
H   H5        1.0  0.79577  0.59174  0.38008  1.0000 0.1062665418
H   H6        1.0  0.59174  0.38008  0.79577  1.0000 0.1062665418
H   H7        1.0  0.52352  0.18273  0.35995  1.0000 0.1294265392
H   H8        1.0  0.18273  0.35995  0.52352  1.0000 0.1294265392
H   H9        1.0  0.35995  0.52352  0.18273  1.0000 0.1294265392
H   H10       1.0  0.47648  0.81727  0.64005  1.0000 0.1294265392
H   H11       1.0  0.81727  0.64005  0.47648  1.0000 0.1294265392
H   H12       1.0  0.64005  0.47648  0.81727  1.0000 0.1294265392
H   H13       1.0  0.56039  0.10273  0.21500  1.0000 0.1294265392
H   H14       1.0  0.10273  0.21500  0.56039  1.0000 0.1427568766
H   H15       1.0  0.21500  0.56039  0.10273  1.0000 0.1294265392
H   H16       1.0  0.43961  0.89727  0.78500  1.0000 0.1294265392
H   H17       1.0  0.89727  0.78500  0.43961  1.0000 0.1294265392
H   H18       1.0  0.78500  0.43961  0.89727  1.0000 0.1294265392
H   H19       1.0  0.68776  0.17637  0.36002  1.0000 0.1294265392
H   H20       1.0  0.17637  0.36002  0.68776  1.0000 0.1294265392
H   H21       1.0  0.36002  0.68776  0.17637  1.0000 0.1294265392
H   H22       1.0  0.31224  0.82363  0.63998  1.0000 0.1294265392
H   H23       1.0  0.82363  0.63998  0.31224  1.0000 0.1294265392
H   H24       1.0  0.63998  0.31224  0.82363  1.0000 0.1294265392
H   H25       1.0  0.46189  0.08384  0.34809  1.0000 0.1294265392
H   H26       1.0  0.08384  0.34809  0.46189  1.0000 0.1294265392
H   H27       1.0  0.34809  0.46189  0.08384  1.0000 0.1294265392
H   H28       1.0  0.53811  0.91616  0.65191  1.0000 0.1294265392
H   H29       1.0  0.91616  0.65191  0.53811  1.0000 0.1294265392
H   H30       1.0  0.65191  0.53811  0.91616  1.0000 0.1294265392
H   H31       1.0  0.37453  0.03700  0.35939  1.0000 0.1294265392
H   H32       1.0  0.03700  0.35939  0.37453  1.0000 0.1294265392
H   H33       1.0  0.35939  0.37453  0.03700  1.0000 0.1294265392
H   H34       1.0  0.62547  0.96300  0.64061  1.0000 0.1294265392
H   H35       1.0  0.96300  0.64061  0.62547  1.0000 0.1294265392
H   H36       1.0  0.64061  0.62547  0.96300  1.0000 0.1294265392
H   H37       1.0  0.28961  0.05610  0.20499  1.0000 0.1427568766
H   H38       1.0  0.05610  0.20499  0.28961  1.0000 0.1427568766
H   H39       1.0  0.20499  0.28961  0.05610  1.0000 0.1427568766
H   H40       1.0  0.71039  0.94390  0.79501  1.0000 0.1427568766
H   H41       1.0  0.94390  0.79501  0.71039  1.0000 0.1427568766
H   H42       1.0  0.79501  0.71039  0.94390  1.0000 0.1427568766
H   H43       1.0  0.32234  0.10701  0.11830  1.0000 0.1427568766
H   H44       1.0  0.10701  0.11830  0.32234  1.0000 0.1427568766
H   H45       1.0  0.11830  0.32234  0.10701  1.0000 0.1427568766
H   H46       1.0  0.67766  0.89299  0.88170  1.0000 0.1427568766
H   H47       1.0  0.89299  0.88170  0.67766  1.0000 0.1427568766
H   H48       1.0  0.88170  0.67766  0.89299  1.0000 0.1427568766
H   H49       1.0  0.47132  0.19025  0.09139  1.0000 0.1294265392
H   H50       1.0  0.19025  0.09139  0.47132  1.0000 0.1294265392
H   H51       1.0  0.09139  0.47132  0.19025  1.0000 0.1294265392
H   H52       1.0  0.52868  0.80975  0.90861  1.0000 0.1294265392
H   H53       1.0  0.80975  0.90861  0.52868  1.0000 0.1294265392
H   H54       1.0  0.90861  0.52868  0.80975  1.0000 0.1294265392
H   H55       1.0  0.52417  0.18042  0.17774  1.0000 0.1294265392
H   H56       1.0  0.18042  0.17774  0.52417  1.0000 0.1294265392
H   H57       1.0  0.17774  0.52417  0.18042  1.0000 0.1294265392
H   H58       1.0  0.47583  0.81958  0.82226  1.0000 0.1294265392
H   H59       1.0  0.81958  0.82226  0.47583  1.0000 0.1294265392
H   H60       1.0  0.82226  0.47583  0.81958  1.0000 0.1294265392
H   H61       1.0  0.59739  0.01315  0.23353  1.0000 0.1294265392
H   H62       1.0  0.01315  0.23353  0.59739  1.0000 0.1294265392
H   H63       1.0  0.23353  0.59739  0.01315  1.0000 0.1294265392
H   H64       1.0  0.40261  0.98685  0.76647  1.0000 0.1294265392
H   H65       1.0  0.98685  0.76647  0.40261  1.0000 0.1294265392
H   H66       1.0  0.76647  0.40261  0.98685  1.0000 0.1294265392
H   H67       1.0  0.60678  0.93118  0.17309  1.0000 0.1294265392
H   H68       1.0  0.93118  0.17309  0.60678  1.0000 0.1294265392
H   H69       1.0  0.17309  0.60678  0.93118  1.0000 0.1294265392
H   H70       1.0  0.39322  0.06882  0.82691  1.0000 0.1294265392
H   H71       1.0  0.06882  0.82691  0.39322  1.0000 0.1294265392
H   H72       1.0  0.82691  0.39322  0.06882  1.0000 0.1294265392
H   H73       1.0  0.74736  0.02152  0.13695  1.0000 0.1427568766
H   H74       1.0  0.02152  0.13695  0.74736  1.0000 0.1427568766
H   H75       1.0  0.13695  0.74736  0.02152  1.0000 0.1427568766
H   H76       1.0  0.25264  0.97848  0.86305  1.0000 0.1427568766
H   H77       1.0  0.97848  0.86305  0.25264  1.0000 0.1427568766
H   H78       1.0  0.86305  0.25264  0.97848  1.0000 0.1427568766
H   H79       1.0  0.81018  0.13840  0.16714  1.0000 0.1427568766
H   H80       1.0  0.13840  0.16714  0.81018  1.0000 0.1427568766
H   H81       1.0  0.16714  0.81018  0.13840  1.0000 0.1427568766
H   H82       1.0  0.18982  0.86160  0.83286  1.0000 0.1427568766
H   H83       1.0  0.86160  0.83286  0.18982  1.0000 0.1427568766
H   H84       1.0  0.83286  0.18982  0.86160  1.0000 0.1427568766
H   H85       1.0  0.79736  0.28709  0.26542  1.0000 0.1294265392
H   H86       1.0  0.28709  0.26542  0.79736  1.0000 0.1294265392
H   H87       1.0  0.26542  0.79736  0.28709  1.0000 0.1294265392
H   H88       1.0  0.20264  0.71291  0.73458  1.0000 0.1294265392
H   H89       1.0  0.71291  0.73458  0.20264  1.0000 0.1294265392
H   H90       1.0  0.73458  0.20264  0.71291  1.0000 0.1294265392
H   H91       1.0  0.71994  0.23872  0.29365  1.0000 0.1294265392
H   H92       1.0  0.23872  0.29365  0.71994  1.0000 0.1294265392
H   H93       1.0  0.29365  0.71994  0.23872  1.0000 0.1294265392
H   H94       1.0  0.28006  0.76128  0.70635  1.0000 0.1294265392
H   H95       1.0  0.76128  0.70635  0.28006  1.0000 0.1294265392
H   H96       1.0  0.70635  0.28006  0.76128  1.0000 0.1294265392
C   C1        1.0  0.60789  0.18379  0.36886  1.0000 -0.0628412847
C   C2        1.0  0.18379  0.36886  0.60789  1.0000 -0.0628412847
C   C3        1.0  0.36886  0.60789  0.18379  1.0000 -0.0628412847
C   C4        1.0  0.39211  0.81621  0.63114  1.0000 -0.0628412847
C   C5        1.0  0.81621  0.63114  0.39211  1.0000 -0.0628412847
C   C6        1.0  0.63114  0.39211  0.81621  1.0000 -0.0628412847
C   C7        1.0  0.55090  0.17083  0.34053  1.0000 -0.2013652717
C   C8        1.0  0.17083  0.34053  0.55090  1.0000 -0.2013652717
C   C9        1.0  0.34053  0.55090  0.17083  1.0000 -0.2013652717
C   C10       1.0  0.44910  0.82917  0.65947  1.0000 -0.2013652717
C   C11       1.0  0.82917  0.65947  0.44910  1.0000 -0.2013652717
C   C12       1.0  0.65947  0.44910  0.82917  1.0000 -0.2013652717
C   C13       1.0  0.53351  0.14023  0.28331  1.0000 0.1641058236
C   C14       1.0  0.14023  0.28331  0.53351  1.0000 0.1652473048
C   C15       1.0  0.28331  0.53351  0.14023  1.0000 0.1641058236
C   C16       1.0  0.46649  0.85977  0.71669  1.0000 0.1652473048
C   C17       1.0  0.85977  0.71669  0.46649  1.0000 0.1652473048
C   C18       1.0  0.71669  0.46649  0.85977  1.0000 0.1652473048
C   C19       1.0  0.57266  0.12350  0.25429  1.0000 -0.251022775
C   C20       1.0  0.12350  0.25429  0.57266  1.0000 -0.251022775
C   C21       1.0  0.25429  0.57266  0.12350  1.0000 -0.251022775
C   C22       1.0  0.42734  0.87650  0.74571  1.0000 -0.251022775
C   C23       1.0  0.87650  0.74571  0.42734  1.0000 -0.251022775
C   C24       1.0  0.74571  0.42734  0.87650  1.0000 -0.251022775
C   C25       1.0  0.62957  0.13717  0.28280  1.0000 0.1641058236
C   C26       1.0  0.13717  0.28280  0.62957  1.0000 0.1641058236
C   C27       1.0  0.28280  0.62957  0.13717  1.0000 0.1641058236
C   C28       1.0  0.37043  0.86283  0.71720  1.0000 0.1652473048
C   C29       1.0  0.86283  0.71720  0.37043  1.0000 0.1641058236
C   C30       1.0  0.71720  0.37043  0.86283  1.0000 0.1652473048
C   C31       1.0  0.64819  0.16729  0.34047  1.0000 -0.2076191551
C   C32       1.0  0.16729  0.34047  0.64819  1.0000 -0.2076191551
C   C33       1.0  0.34047  0.64819  0.16729  1.0000 -0.2076191551
C   C34       1.0  0.35181  0.83271  0.65953  1.0000 -0.2076191551
C   C35       1.0  0.83271  0.65953  0.35181  1.0000 -0.2013652717
C   C36       1.0  0.65953  0.35181  0.83271  1.0000 -0.2076191551
C   C37       1.0  0.42807  0.09854  0.27012  1.0000 0.1294265392
C   C38       1.0  0.09854  0.27012  0.42807  1.0000 0.1294265392
C   C39       1.0  0.27012  0.42807  0.09854  1.0000 0.1294265392
C   C40       1.0  0.57193  0.90146  0.72988  1.0000 0.1294265392
C   C41       1.0  0.90146  0.72988  0.57193  1.0000 0.1294265392
C   C42       1.0  0.72988  0.57193  0.90146  1.0000 0.1294265392
C   C43       1.0  0.42736  0.07838  0.31952  1.0000 -0.2013652717
C   C44       1.0  0.07838  0.31952  0.42736  1.0000 -0.2013652717
C   C45       1.0  0.31952  0.42736  0.07838  1.0000 -0.2013652717
C   C46       1.0  0.57264  0.92162  0.68048  1.0000 -0.2013652717
C   C47       1.0  0.92162  0.68048  0.57264  1.0000 -0.2013652717
C   C48       1.0  0.68048  0.57264  0.92162  1.0000 -0.2013652717
C   C49       1.0  0.37568  0.05059  0.32564  1.0000 -0.0894013926
C   C50       1.0  0.05059  0.32564  0.37568  1.0000 -0.0894013926
C   C51       1.0  0.32564  0.37568  0.05059  1.0000 -0.0894013926
C   C52       1.0  0.62432  0.94941  0.67436  1.0000 -0.0894013926
C   C53       1.0  0.94941  0.67436  0.62432  1.0000 -0.0894013926
C   C54       1.0  0.67436  0.62432  0.94941  1.0000 -0.0846855283
C   C55       1.0  0.32342  0.04114  0.28343  1.0000 -0.0306689285
C   C56       1.0  0.04114  0.28343  0.32342  1.0000 -0.0306689285
C   C57       1.0  0.28343  0.32342  0.04114  1.0000 -0.0306689285
C   C58       1.0  0.67658  0.95886  0.71657  1.0000 -0.0306689285
C   C59       1.0  0.95886  0.71657  0.67658  1.0000 -0.0306689285
C   C60       1.0  0.71657  0.67658  0.95886  1.0000 -0.0306689285
C   C61       1.0  0.32414  0.06166  0.23360  1.0000 -0.1364795819
C   C62       1.0  0.06166  0.23360  0.32414  1.0000 -0.1364795819
C   C63       1.0  0.23360  0.32414  0.06166  1.0000 -0.1349510565
C   C64       1.0  0.67586  0.93834  0.76640  1.0000 -0.1364795819
C   C65       1.0  0.93834  0.76640  0.67586  1.0000 -0.1364795819
C   C66       1.0  0.76640  0.67586  0.93834  1.0000 -0.1364795819
C   C67       1.0  0.37654  0.09014  0.22745  1.0000 -0.0141544958
C   C68       1.0  0.09014  0.22745  0.37654  1.0000 -0.0141544958
C   C69       1.0  0.22745  0.37654  0.09014  1.0000 -0.0141544958
C   C70       1.0  0.62346  0.90986  0.77255  1.0000 -0.0141544958
C   C71       1.0  0.90986  0.77255  0.62346  1.0000 -0.0141544958
C   C72       1.0  0.77255  0.62346  0.90986  1.0000 -0.0141544958
C   C73       1.0  0.39335  0.11600  0.18187  1.0000 -0.0199406787
C   C74       1.0  0.11600  0.18187  0.39335  1.0000 -0.0199406787
C   C75       1.0  0.18187  0.39335  0.11600  1.0000 -0.0141544958
C   C76       1.0  0.60665  0.88400  0.81813  1.0000 -0.0141544958
C   C77       1.0  0.88400  0.81813  0.60665  1.0000 -0.0141544958
C   C78       1.0  0.81813  0.60665  0.88400  1.0000 -0.0141544958
C   C79       1.0  0.36292  0.12207  0.13048  1.0000 -0.1145564779
C   C80       1.0  0.12207  0.13048  0.36292  1.0000 -0.1167361537
C   C81       1.0  0.13048  0.36292  0.12207  1.0000 -0.1167361537
C   C82       1.0  0.63708  0.87793  0.86952  1.0000 -0.1167361537
C   C83       1.0  0.87793  0.86952  0.63708  1.0000 -0.1145564779
C   C84       1.0  0.86952  0.63708  0.87793  1.0000 -0.1167361537
C   C85       1.0  0.39195  0.15029  0.09672  1.0000 -0.0426980272
C   C86       1.0  0.15029  0.09672  0.39195  1.0000 -0.0426980272
C   C87       1.0  0.09672  0.39195  0.15029  1.0000 -0.0426980272
C   C88       1.0  0.60805  0.84971  0.90328  1.0000 -0.0426980272
C   C89       1.0  0.84971  0.90328  0.60805  1.0000 -0.0426980272
C   C90       1.0  0.90328  0.60805  0.84971  1.0000 -0.0426980272
C   C91       1.0  0.45177  0.17130  0.11507  1.0000 -0.0700511676
C   C92       1.0  0.17130  0.11507  0.45177  1.0000 -0.0700511676
C   C93       1.0  0.11507  0.45177  0.17130  1.0000 -0.0700511676
C   C94       1.0  0.54823  0.82870  0.88493  1.0000 -0.0700511676
C   C95       1.0  0.82870  0.88493  0.54823  1.0000 -0.0700511676
C   C96       1.0  0.88493  0.54823  0.82870  1.0000 -0.0700511676
C   C97       1.0  0.48354  0.16573  0.16588  1.0000 -0.2185221764
C   C98       1.0  0.16573  0.16588  0.48354  1.0000 -0.2185221764
C   C99       1.0  0.16588  0.48354  0.16573  1.0000 -0.2185221764
C   C100      1.0  0.51646  0.83427  0.83412  1.0000 -0.2185221764
C   C101      1.0  0.83427  0.83412  0.51646  1.0000 -0.2185221764
C   C102      1.0  0.83412  0.51646  0.83427  1.0000 -0.2185221764
C   C103      1.0  0.45333  0.13759  0.19903  1.0000 0.1294265392
C   C104      1.0  0.13759  0.19903  0.45333  1.0000 0.1244582668
C   C105      1.0  0.19903  0.45333  0.13759  1.0000 0.1244582668
C   C106      1.0  0.54667  0.86241  0.80097  1.0000 0.1294265392
C   C107      1.0  0.86241  0.80097  0.54667  1.0000 0.1294265392
C   C108      1.0  0.80097  0.54667  0.86241  1.0000 0.1294265392
C   C109      1.0  0.26796  0.00949  0.29107  1.0000 0.5727003847
C   C110      1.0  0.00949  0.29107  0.26796  1.0000 0.5727003847
C   C111      1.0  0.29107  0.26796  0.00949  1.0000 0.5727003847
C   C112      1.0  0.73204  0.99051  0.70893  1.0000 0.5727003847
C   C113      1.0  0.99051  0.70893  0.73204  1.0000 0.5727003847
C   C114      1.0  0.70893  0.73204  0.99051  1.0000 0.5727003847
C   C115      1.0  0.36051  0.15804  0.04193  1.0000 0.5772904789
C   C116      1.0  0.15804  0.04193  0.36051  1.0000 0.5772904789
C   C117      1.0  0.04193  0.36051  0.15804  1.0000 0.5772904789
C   C118      1.0  0.63949  0.84196  0.95807  1.0000 0.5772904789
C   C119      1.0  0.84196  0.95807  0.63949  1.0000 0.5772904789
C   C120      1.0  0.95807  0.63949  0.84196  1.0000 0.5772904789
C   C121      1.0  0.66675  0.06633  0.21932  1.0000 0.1294265392
C   C122      1.0  0.06633  0.21932  0.66675  1.0000 0.1294265392
C   C123      1.0  0.21932  0.66675  0.06633  1.0000 0.1294265392
C   C124      1.0  0.33325  0.93367  0.78068  1.0000 0.1294265392
C   C125      1.0  0.93367  0.78068  0.33325  1.0000 0.1294265392
C   C126      1.0  0.78068  0.33325  0.93367  1.0000 0.1294265392
C   C127      1.0  0.62723  0.01494  0.21366  1.0000 -0.2185221764
C   C128      1.0  0.01494  0.21366  0.62723  1.0000 -0.2185221764
C   C129      1.0  0.21366  0.62723  0.01494  1.0000 -0.2185221764
C   C130      1.0  0.37277  0.98506  0.78634  1.0000 -0.2185221764
C   C131      1.0  0.98506  0.78634  0.37277  1.0000 -0.2185221764
C   C132      1.0  0.78634  0.37277  0.98506  1.0000 -0.2185221764
C   C133      1.0  0.63345  0.96686  0.17791  1.0000 -0.0700511676
C   C134      1.0  0.96686  0.17791  0.63345  1.0000 -0.0700511676
C   C135      1.0  0.17791  0.63345  0.96686  1.0000 -0.0700511676
C   C136      1.0  0.36655  0.03314  0.82209  1.0000 -0.0700511676
C   C137      1.0  0.03314  0.82209  0.36655  1.0000 -0.0700511676
C   C138      1.0  0.82209  0.36655  0.03314  1.0000 -0.0700511676
C   C139      1.0  0.67731  0.96754  0.14795  1.0000 -0.047133418
C   C140      1.0  0.96754  0.14795  0.67731  1.0000 -0.047133418
C   C141      1.0  0.14795  0.67731  0.96754  1.0000 -0.047133418
C   C142      1.0  0.32269  0.03246  0.85205  1.0000 -0.047133418
C   C143      1.0  0.03246  0.85205  0.32269  1.0000 -0.047133418
C   C144      1.0  0.85205  0.32269  0.03246  1.0000 -0.047133418
C   C145      1.0  0.71679  0.01993  0.15586  1.0000 -0.1167361537
C   C146      1.0  0.01993  0.15586  0.71679  1.0000 -0.1167361537
C   C147      1.0  0.15586  0.71679  0.01993  1.0000 -0.1167361537
C   C148      1.0  0.28321  0.98007  0.84414  1.0000 -0.1167361537
C   C149      1.0  0.98007  0.84414  0.28321  1.0000 -0.1167361537
C   C150      1.0  0.84414  0.28321  0.98007  1.0000 -0.1167361537
C   C151      1.0  0.71171  0.06931  0.19091  1.0000 -0.0199406787
C   C152      1.0  0.06931  0.19091  0.71171  1.0000 -0.0199406787
C   C153      1.0  0.19091  0.71171  0.06931  1.0000 -0.0199406787
C   C154      1.0  0.28829  0.93069  0.80909  1.0000 -0.0199406787
C   C155      1.0  0.93069  0.80909  0.28829  1.0000 -0.0199406787
C   C156      1.0  0.80909  0.28829  0.93069  1.0000 -0.0199406787
C   C157      1.0  0.74427  0.12905  0.20754  1.0000 -0.0199406787
C   C158      1.0  0.12905  0.20754  0.74427  1.0000 -0.0199406787
C   C159      1.0  0.20754  0.74427  0.12905  1.0000 -0.0199406787
C   C160      1.0  0.25573  0.87095  0.79246  1.0000 -0.0199406787
C   C161      1.0  0.87095  0.79246  0.25573  1.0000 -0.0199406787
C   C162      1.0  0.79246  0.25573  0.87095  1.0000 -0.0199406787
C   C163      1.0  0.79181  0.15865  0.19244  1.0000 -0.1167361537
C   C164      1.0  0.15865  0.19244  0.79181  1.0000 -0.1167361537
C   C165      1.0  0.19244  0.79181  0.15865  1.0000 -0.1167361537
C   C166      1.0  0.20819  0.84135  0.80756  1.0000 -0.1167361537
C   C167      1.0  0.84135  0.80756  0.20819  1.0000 -0.1167361537
C   C168      1.0  0.80756  0.20819  0.84135  1.0000 -0.1145564779
C   C169      1.0  0.81206  0.21746  0.21442  1.0000 -0.047133418
C   C170      1.0  0.21746  0.21442  0.81206  1.0000 -0.047133418
C   C171      1.0  0.21442  0.81206  0.21746  1.0000 -0.047133418
C   C172      1.0  0.18794  0.78254  0.78558  1.0000 -0.047133418
C   C173      1.0  0.78254  0.78558  0.18794  1.0000 -0.047133418
C   C174      1.0  0.78558  0.18794  0.78254  1.0000 -0.047133418
C   C175      1.0  0.78390  0.24647  0.25125  1.0000 -0.0700511676
C   C176      1.0  0.24647  0.25125  0.78390  1.0000 -0.0700511676
C   C177      1.0  0.25125  0.78390  0.24647  1.0000 -0.0700511676
C   C178      1.0  0.21610  0.75353  0.74875  1.0000 -0.0700511676
C   C179      1.0  0.75353  0.74875  0.21610  1.0000 -0.0700511676
C   C180      1.0  0.74875  0.21610  0.75353  1.0000 -0.0700511676
C   C181      1.0  0.73758  0.21838  0.26764  1.0000 -0.2076191551
C   C182      1.0  0.21838  0.26764  0.73758  1.0000 -0.2076191551
C   C183      1.0  0.26764  0.73758  0.21838  1.0000 -0.2076191551
C   C184      1.0  0.26242  0.78162  0.73236  1.0000 -0.2076191551
C   C185      1.0  0.78162  0.73236  0.26242  1.0000 -0.2076191551
C   C186      1.0  0.73236  0.26242  0.78162  1.0000 -0.2076191551
C   C187      1.0  0.68245  0.91439  0.11073  1.0000 0.5772904789
C   C188      1.0  0.91439  0.11073  0.68245  1.0000 0.5772904789
C   C189      1.0  0.11073  0.68245  0.91439  1.0000 0.5772904789
C   C190      1.0  0.31755  0.08561  0.88927  1.0000 0.5772904789
C   C191      1.0  0.08561  0.88927  0.31755  1.0000 0.5772904789
C   C192      1.0  0.88927  0.31755  0.08561  1.0000 0.5772904789
C   C193      1.0  0.86194  0.24961  0.19896  1.0000 0.5772904789
C   C194      1.0  0.24961  0.19896  0.86194  1.0000 0.5772904789
C   C195      1.0  0.19896  0.86194  0.24961  1.0000 0.5772904789
C   C196      1.0  0.13806  0.75039  0.80104  1.0000 0.5772904789
C   C197      1.0  0.75039  0.80104  0.13806  1.0000 0.5772904789
C   C198      1.0  0.80104  0.13806  0.75039  1.0000 0.5772904789
C   C199      1.0  0.71741  0.15934  0.24494  1.0000 0.1294265392
C   C200      1.0  0.15934  0.24494  0.71741  1.0000 0.1294265392
C   C201      1.0  0.24494  0.71741  0.15934  1.0000 0.1294265392
C   C202      1.0  0.28259  0.84066  0.75506  1.0000 0.1294265392
C   C203      1.0  0.84066  0.75506  0.28259  1.0000 0.1294265392
C   C204      1.0  0.75506  0.28259  0.84066  1.0000 0.1294265392
N   N1        1.0  0.47390  0.12719  0.25255  1.0000 -0.0894013926
N   N2        1.0  0.12719  0.25255  0.47390  1.0000 -0.0894013926
N   N3        1.0  0.25255  0.47390  0.12719  1.0000 -0.0894013926
N   N4        1.0  0.52610  0.87281  0.74745  1.0000 -0.0894013926
N   N5        1.0  0.87281  0.74745  0.52610  1.0000 -0.0894013926
N   N6        1.0  0.74745  0.52610  0.87281  1.0000 -0.0894013926
N   N7        1.0  0.67117  0.12088  0.25218  1.0000 -0.0894013926
N   N8        1.0  0.12088  0.25218  0.67117  1.0000 -0.0894013926
N   N9        1.0  0.25218  0.67117  0.12088  1.0000 -0.0894013926
N   N10       1.0  0.32883  0.87912  0.74782  1.0000 -0.0894013926
N   N11       1.0  0.87912  0.74782  0.32883  1.0000 -0.0894013926
N   N12       1.0  0.74782  0.32883  0.87912  1.0000 -0.0894013926
O   O1        1.0  0.27034  0.99454  0.33844  1.0000 -0.5393183196
O   O2        1.0  0.99454  0.33844  0.27034  1.0000 -0.5393183196
O   O3        1.0  0.33844  0.27034  0.99454  1.0000 -0.5393183196
O   O4        1.0  0.72966  0.00546  0.66156  1.0000 -0.5393183196
O   O5        1.0  0.00546  0.66156  0.72966  1.0000 -0.5393183196
O   O6        1.0  0.66156  0.72966  0.00546  1.0000 -0.5393183196
O   O7        1.0  0.22409  0.00071  0.25171  1.0000 -0.5110482539
O   O8        1.0  0.00071  0.25171  0.22409  1.0000 -0.5110482539
O   O9        1.0  0.25171  0.22409  0.00071  1.0000 -0.5110482539
O   O10       1.0  0.77591  0.99929  0.74829  1.0000 -0.5110482539
O   O11       1.0  0.99929  0.74829  0.77591  1.0000 -0.5110482539
O   O12       1.0  0.74829  0.77591  0.99929  1.0000 -0.5110482539
O   O13       1.0  0.30605  0.14029  0.02855  1.0000 -0.5291351517
O   O14       1.0  0.14029  0.02855  0.30605  1.0000 -0.5291351517
O   O15       1.0  0.02855  0.30605  0.14029  1.0000 -0.5291351517
O   O16       1.0  0.69395  0.85971  0.97145  1.0000 -0.5291351517
O   O17       1.0  0.85971  0.97145  0.69395  1.0000 -0.5291351517
O   O18       1.0  0.97145  0.69395  0.85971  1.0000 -0.5291351517
O   O19       1.0  0.38960  0.18260  0.01204  1.0000 -0.5291351517
O   O20       1.0  0.18260  0.01204  0.38960  1.0000 -0.5291351517
O   O21       1.0  0.01204  0.38960  0.18260  1.0000 -0.5291351517
O   O22       1.0  0.61040  0.81740  0.98796  1.0000 -0.5291351517
O   O23       1.0  0.81740  0.98796  0.61040  1.0000 -0.5291351517
O   O24       1.0  0.98796  0.61040  0.81740  1.0000 -0.5291351517
O   O25       1.0  0.64577  0.86856  0.10549  1.0000 -0.5210589235
O   O26       1.0  0.86856  0.10549  0.64577  1.0000 -0.5210589235
O   O27       1.0  0.10549  0.64577  0.86856  1.0000 -0.5210589235
O   O28       1.0  0.35423  0.13144  0.89451  1.0000 -0.5210589235
O   O29       1.0  0.13144  0.89451  0.35423  1.0000 -0.5210589235
O   O30       1.0  0.89451  0.35423  0.13144  1.0000 -0.5210589235
O   O31       1.0  0.72446  0.91868  0.08714  1.0000 -0.5291351517
O   O32       1.0  0.91868  0.08714  0.72446  1.0000 -0.5291351517
O   O33       1.0  0.08714  0.72446  0.91868  1.0000 -0.5291351517
O   O34       1.0  0.27554  0.08132  0.91286  1.0000 -0.5291351517
O   O35       1.0  0.08132  0.91286  0.27554  1.0000 -0.5291351517
O   O36       1.0  0.91286  0.27554  0.08132  1.0000 -0.5291351517
O   O37       1.0  0.87808  0.30350  0.22064  1.0000 -0.5291351517
O   O38       1.0  0.30350  0.22064  0.87808  1.0000 -0.5291351517
O   O39       1.0  0.22064  0.87808  0.30350  1.0000 -0.5291351517
O   O40       1.0  0.12192  0.69650  0.77936  1.0000 -0.5291351517
O   O41       1.0  0.69650  0.77936  0.12192  1.0000 -0.5291351517
O   O42       1.0  0.77936  0.12192  0.69650  1.0000 -0.5291351517
O   O43       1.0  0.88559  0.22145  0.16567  1.0000 -0.5210589235
O   O44       1.0  0.22145  0.16567  0.88559  1.0000 -0.5210589235
O   O45       1.0  0.16567  0.88559  0.22145  1.0000 -0.5210589235
O   O46       1.0  0.11441  0.77855  0.83433  1.0000 -0.5210589235
O   O47       1.0  0.77855  0.83433  0.11441  1.0000 -0.5210589235
O   O48       1.0  0.83433  0.11441  0.77855  1.0000 -0.5210589235
