# DDEC6 charges by PACMAN v1.1 (https://github.com/mtap-research/PACMAN-charge/)
data_2023[Zn][dia]3[ASR]2
_chemical_formula_sum              "Zn4 H88 C80 N8 O16"
_cell_length_a       12.1495
_cell_length_b       12.7279
_cell_length_c       15.6266
_cell_angle_alpha    90
_cell_angle_beta     90
_cell_angle_gamma    90

_symmetry_space_group_name_H-M    "P 1"
_symmetry_Int_Tables_number       1

loop_
  _symmetry_equiv_pos_as_xyz
  'x, y, z'

loop_
  _atom_site_type_symbol
  _atom_site_label
  _atom_site_symmetry_multiplicity
  _atom_site_fract_x
  _atom_site_fract_y
  _atom_site_fract_z
  _atom_site_occupancy
  _atom_site_charge
Zn  Zn1       1.0  0.39201  0.84693  0.50493  1.0000 0.7270800667
Zn  Zn2       1.0  0.10799  0.34693  0.00493  1.0000 0.7270800667
Zn  Zn3       1.0  0.60799  0.34693  0.49507  1.0000 0.7270800667
Zn  Zn4       1.0  0.89201  0.84693  0.99507  1.0000 0.7270800667
H   H1        1.0  0.14840  0.98580  0.31780  1.0000 0.0985829239
H   H2        1.0  0.35160  0.48580  0.81780  1.0000 0.0985829239
H   H3        1.0  0.29250  0.92510  0.23070  1.0000 0.0936277425
H   H4        1.0  0.20750  0.42510  0.73070  1.0000 0.0936277425
H   H5        1.0  0.36940  0.02090  0.25950  1.0000 0.0985829239
H   H6        1.0  0.13060  0.52090  0.75950  1.0000 0.0985829239
H   H7        1.0  0.17370  0.04000  0.15830  1.0000 0.0985829239
H   H8        1.0  0.32630  0.54000  0.65830  1.0000 0.0985829239
H   H9        1.0  0.29650  0.05880  0.12420  1.0000 0.0985829239
H   H10       1.0  0.20350  0.55880  0.62420  1.0000 0.0985829239
H   H11       1.0  0.31620  0.20360  0.21360  1.0000 0.0985829239
H   H12       1.0  0.18380  0.70360  0.71360  1.0000 0.0985829239
H   H13       1.0  0.09340  0.17340  0.26770  1.0000 0.0985829239
H   H14       1.0  0.40660  0.67340  0.76770  1.0000 0.0985829239
H   H15       1.0  0.17000  0.26970  0.29610  1.0000 0.0936277425
H   H16       1.0  0.33000  0.76970  0.79610  1.0000 0.0936277425
H   H17       1.0  0.28950  0.15510  0.37010  1.0000 0.0985829239
H   H18       1.0  0.21050  0.65510  0.87010  1.0000 0.0985829239
H   H19       1.0  0.16680  0.13590  0.40430  1.0000 0.0985829239
H   H20       1.0  0.33320  0.63590  0.90430  1.0000 0.0985829239
H   H21       1.0  0.56990  0.00420  0.48110  1.0000 0.1102156854
H   H22       1.0  0.93010  0.50420  0.98110  1.0000 0.1102156854
H   H23       1.0  0.50250  0.83140  0.68270  1.0000 0.1102156854
H   H24       1.0  0.99750  0.33140  0.18270  1.0000 0.1102156854
H   H25       1.0  0.64960  0.90240  0.75580  1.0000 0.1494180644
H   H26       1.0  0.85040  0.40240  0.25580  1.0000 0.1494180644
H   H27       1.0  0.72320  0.07510  0.54680  1.0000 0.1494180644
H   H28       1.0  0.77680  0.57510  0.04680  1.0000 0.1494180644
H   H29       1.0  0.85450  0.06740  0.66890  1.0000 0.121736004
H   H30       1.0  0.64550  0.56740  0.16890  1.0000 0.121736004
H   H31       1.0  0.82480  0.99820  0.75150  1.0000 0.121736004
H   H32       1.0  0.67520  0.49820  0.25150  1.0000 0.121736004
H   H33       1.0  0.68800  0.12530  0.78760  1.0000 0.121736004
H   H34       1.0  0.81200  0.62530  0.28760  1.0000 0.121736004
H   H35       1.0  0.73120  0.19630  0.70990  1.0000 0.121736004
H   H36       1.0  0.76880  0.69630  0.20990  1.0000 0.121736004
H   H37       1.0  0.90460  0.29460  0.72540  1.0000 0.1494180644
H   H38       1.0  0.59540  0.79460  0.22540  1.0000 0.1494180644
H   H39       1.0  0.03400  0.36430  0.81550  1.0000 0.1102156854
H   H40       1.0  0.46600  0.86430  0.31550  1.0000 0.1102156854
H   H41       1.0  0.81100  0.09920  0.91560  1.0000 0.1494180644
H   H42       1.0  0.68900  0.59920  0.41560  1.0000 0.1494180644
H   H43       1.0  0.94650  0.17270  0.00060  1.0000 0.1102156854
H   H44       1.0  0.55350  0.67270  0.50060  1.0000 0.1102156854
H   H45       1.0  0.85160  0.48580  0.68220  1.0000 0.0985829239
H   H46       1.0  0.64840  0.98580  0.18220  1.0000 0.0985829239
H   H47       1.0  0.70750  0.42510  0.76930  1.0000 0.0936277425
H   H48       1.0  0.79250  0.92510  0.26930  1.0000 0.0936277425
H   H49       1.0  0.63060  0.52090  0.74050  1.0000 0.0985829239
H   H50       1.0  0.86940  0.02090  0.24050  1.0000 0.0985829239
H   H51       1.0  0.82630  0.54000  0.84170  1.0000 0.0985829239
H   H52       1.0  0.67370  0.04000  0.34170  1.0000 0.0985829239
H   H53       1.0  0.70350  0.55880  0.87580  1.0000 0.0985829239
H   H54       1.0  0.79650  0.05880  0.37580  1.0000 0.0985829239
H   H55       1.0  0.68380  0.70360  0.78640  1.0000 0.0985829239
H   H56       1.0  0.81620  0.20360  0.28640  1.0000 0.0985829239
H   H57       1.0  0.90660  0.67340  0.73230  1.0000 0.0985829239
H   H58       1.0  0.59340  0.17340  0.23230  1.0000 0.0985829239
H   H59       1.0  0.83000  0.76970  0.70390  1.0000 0.0936277425
H   H60       1.0  0.67000  0.26970  0.20390  1.0000 0.0936277425
H   H61       1.0  0.71050  0.65510  0.62990  1.0000 0.0985829239
H   H62       1.0  0.78950  0.15510  0.12990  1.0000 0.0985829239
H   H63       1.0  0.83320  0.63590  0.59570  1.0000 0.0985829239
H   H64       1.0  0.66680  0.13590  0.09570  1.0000 0.0985829239
H   H65       1.0  0.43010  0.50420  0.51890  1.0000 0.1102156854
H   H66       1.0  0.06990  0.00420  0.01890  1.0000 0.1102156854
H   H67       1.0  0.49750  0.33140  0.31730  1.0000 0.1102156854
H   H68       1.0  0.00250  0.83140  0.81730  1.0000 0.1102156854
H   H69       1.0  0.35040  0.40240  0.24420  1.0000 0.1494180644
H   H70       1.0  0.14960  0.90240  0.74420  1.0000 0.1494180644
H   H71       1.0  0.27680  0.57510  0.45320  1.0000 0.1494180644
H   H72       1.0  0.22320  0.07510  0.95320  1.0000 0.1494180644
H   H73       1.0  0.14550  0.56740  0.33110  1.0000 0.121736004
H   H74       1.0  0.35450  0.06740  0.83110  1.0000 0.121736004
H   H75       1.0  0.17520  0.49820  0.24850  1.0000 0.121736004
H   H76       1.0  0.32480  0.99820  0.74850  1.0000 0.121736004
H   H77       1.0  0.31200  0.62530  0.21240  1.0000 0.121736004
H   H78       1.0  0.18800  0.12530  0.71240  1.0000 0.121736004
H   H79       1.0  0.26880  0.69630  0.29010  1.0000 0.121736004
H   H80       1.0  0.23120  0.19630  0.79010  1.0000 0.121736004
H   H81       1.0  0.09540  0.79460  0.27460  1.0000 0.1494180644
H   H82       1.0  0.40460  0.29460  0.77460  1.0000 0.1494180644
H   H83       1.0  0.96600  0.86430  0.18450  1.0000 0.1102156854
H   H84       1.0  0.53400  0.36430  0.68450  1.0000 0.1102156854
H   H85       1.0  0.18900  0.59920  0.08440  1.0000 0.1494180644
H   H86       1.0  0.31100  0.09920  0.58440  1.0000 0.1494180644
H   H87       1.0  0.05350  0.67270  0.99940  1.0000 0.1102156854
H   H88       1.0  0.44650  0.17270  0.49940  1.0000 0.1102156854
C   C1        1.0  0.27670  0.94530  0.39850  1.0000 0.555908938
C   C2        1.0  0.22330  0.44530  0.89850  1.0000 0.555908938
C   C3        1.0  0.22420  0.01290  0.32910  1.0000 -0.1178523851
C   C4        1.0  0.27580  0.51290  0.82910  1.0000 -0.1178523851
C   C5        1.0  0.29240  0.00000  0.24780  1.0000 -0.1921882359
C   C6        1.0  0.20760  0.50000  0.74780  1.0000 -0.1921882359
C   C7        1.0  0.24760  0.06600  0.17460  1.0000 -0.1806445969
C   C8        1.0  0.25240  0.56600  0.67460  1.0000 -0.1806445969
C   C9        1.0  0.24000  0.17970  0.19940  1.0000 -0.1178523851
C   C10       1.0  0.26000  0.67970  0.69940  1.0000 -0.1178523851
C   C11       1.0  0.17020  0.19460  0.27980  1.0000 -0.1921882359
C   C12       1.0  0.32980  0.69460  0.77980  1.0000 -0.1921882359
C   C13       1.0  0.21580  0.12870  0.35390  1.0000 -0.1806445969
C   C14       1.0  0.28420  0.62870  0.85390  1.0000 -0.1806445969
C   C15       1.0  0.19790  0.25010  0.12740  1.0000 0.5532667684
C   C16       1.0  0.30210  0.75010  0.62740  1.0000 0.5532667684
C   C17       1.0  0.58730  0.98230  0.53760  1.0000 0.0831562821
C   C18       1.0  0.91270  0.48230  0.03760  1.0000 0.0831562821
C   C19       1.0  0.54740  0.88240  0.65510  1.0000 0.0603581262
C   C20       1.0  0.95260  0.38240  0.15510  1.0000 0.0603581262
C   C21       1.0  0.63510  0.92410  0.69870  1.0000 -0.1992413081
C   C22       1.0  0.86490  0.42410  0.19870  1.0000 -0.1992413081
C   C23       1.0  0.70210  0.99700  0.66040  1.0000 0.1708309139
C   C24       1.0  0.79790  0.49700  0.16040  1.0000 0.1708309139
C   C25       1.0  0.67810  0.02620  0.57650  1.0000 -0.1921882359
C   C26       1.0  0.82190  0.52620  0.07650  1.0000 -0.1921882359
C   C27       1.0  0.79470  0.04810  0.70890  1.0000 -0.2393535925
C   C28       1.0  0.70530  0.54810  0.20890  1.0000 -0.2393535925
C   C29       1.0  0.75370  0.14360  0.75310  1.0000 -0.2393535925
C   C30       1.0  0.74630  0.64360  0.25310  1.0000 -0.2393535925
C   C31       1.0  0.84010  0.19080  0.81080  1.0000 0.1756780604
C   C32       1.0  0.65990  0.69080  0.31080  1.0000 0.1756780604
C   C33       1.0  0.91040  0.26920  0.78240  1.0000 -0.1992413081
C   C34       1.0  0.58960  0.76920  0.28240  1.0000 -0.1992413081
C   C35       1.0  0.98750  0.30980  0.83600  1.0000 0.0603581262
C   C36       1.0  0.51250  0.80980  0.33600  1.0000 0.0603581262
C   C37       1.0  0.85570  0.15430  0.89380  1.0000 -0.1992413081
C   C38       1.0  0.64430  0.65430  0.39380  1.0000 -0.1992413081
C   C39       1.0  0.93650  0.19860  0.94420  1.0000 0.0831562821
C   C40       1.0  0.56350  0.69860  0.44420  1.0000 0.0831562821
C   C41       1.0  0.72330  0.44530  0.60150  1.0000 0.555908938
C   C42       1.0  0.77670  0.94530  0.10150  1.0000 0.555908938
C   C43       1.0  0.77580  0.51290  0.67090  1.0000 -0.1178523851
C   C44       1.0  0.72420  0.01290  0.17090  1.0000 -0.1178523851
C   C45       1.0  0.70760  0.50000  0.75220  1.0000 -0.1921882359
C   C46       1.0  0.79240  0.00000  0.25220  1.0000 -0.1921882359
C   C47       1.0  0.75240  0.56600  0.82540  1.0000 -0.1806445969
C   C48       1.0  0.74760  0.06600  0.32540  1.0000 -0.1806445969
C   C49       1.0  0.76000  0.67970  0.80060  1.0000 -0.1178523851
C   C50       1.0  0.74000  0.17970  0.30060  1.0000 -0.1178523851
C   C51       1.0  0.82980  0.69460  0.72020  1.0000 -0.1921882359
C   C52       1.0  0.67020  0.19460  0.22020  1.0000 -0.1921882359
C   C53       1.0  0.78420  0.62870  0.64610  1.0000 -0.1806445969
C   C54       1.0  0.71580  0.12870  0.14610  1.0000 -0.1806445969
C   C55       1.0  0.80210  0.75010  0.87260  1.0000 0.5532667684
C   C56       1.0  0.69790  0.25010  0.37260  1.0000 0.5532667684
C   C57       1.0  0.41270  0.48230  0.46240  1.0000 0.0831562821
C   C58       1.0  0.08730  0.98230  0.96240  1.0000 0.0831562821
C   C59       1.0  0.45260  0.38240  0.34490  1.0000 0.0603581262
C   C60       1.0  0.04740  0.88240  0.84490  1.0000 0.0603581262
C   C61       1.0  0.36490  0.42410  0.30130  1.0000 -0.1992413081
C   C62       1.0  0.13510  0.92410  0.80130  1.0000 -0.1992413081
C   C63       1.0  0.29790  0.49700  0.33960  1.0000 0.1708309139
C   C64       1.0  0.20210  0.99700  0.83960  1.0000 0.1708309139
C   C65       1.0  0.32190  0.52620  0.42350  1.0000 -0.1921882359
C   C66       1.0  0.17810  0.02620  0.92350  1.0000 -0.1921882359
C   C67       1.0  0.20530  0.54810  0.29110  1.0000 -0.2393535925
C   C68       1.0  0.29470  0.04810  0.79110  1.0000 -0.2393535925
C   C69       1.0  0.24630  0.64360  0.24690  1.0000 -0.2393535925
C   C70       1.0  0.25370  0.14360  0.74690  1.0000 -0.2393535925
C   C71       1.0  0.15990  0.69080  0.18920  1.0000 0.1756780604
C   C72       1.0  0.34010  0.19080  0.68920  1.0000 0.1756780604
C   C73       1.0  0.08960  0.76920  0.21760  1.0000 -0.1992413081
C   C74       1.0  0.41040  0.26920  0.71760  1.0000 -0.1992413081
C   C75       1.0  0.01250  0.80980  0.16400  1.0000 0.0603581262
C   C76       1.0  0.48750  0.30980  0.66400  1.0000 0.0603581262
C   C77       1.0  0.14430  0.65430  0.10620  1.0000 -0.1992413081
C   C78       1.0  0.35570  0.15430  0.60620  1.0000 -0.1992413081
C   C79       1.0  0.06350  0.69860  0.05580  1.0000 0.0831562821
C   C80       1.0  0.43650  0.19860  0.55580  1.0000 0.0831562821
N   N1        1.0  0.52280  0.91140  0.57440  1.0000 -0.2393535925
N   N2        1.0  0.97720  0.41140  0.07440  1.0000 -0.2393535925
N   N3        1.0  0.00090  0.27590  0.91700  1.0000 -0.2393535925
N   N4        1.0  0.49910  0.77590  0.41700  1.0000 -0.2393535925
N   N5        1.0  0.47720  0.41140  0.42560  1.0000 -0.2393535925
N   N6        1.0  0.02280  0.91140  0.92560  1.0000 -0.2393535925
N   N7        1.0  0.99910  0.77590  0.08300  1.0000 -0.2393535925
N   N8        1.0  0.50090  0.27590  0.58300  1.0000 -0.2393535925
O   O1        1.0  0.35200  0.98420  0.44450  1.0000 -0.5581968231
O   O2        1.0  0.14800  0.48420  0.94450  1.0000 -0.5581968231
O   O3        1.0  0.24950  0.85150  0.40590  1.0000 -0.5581968231
O   O4        1.0  0.25050  0.35150  0.90590  1.0000 -0.5581968231
O   O5        1.0  0.22160  0.34610  0.12440  1.0000 -0.5679040206
O   O6        1.0  0.27840  0.84610  0.62440  1.0000 -0.5679040206
O   O7        1.0  0.13530  0.20980  0.07200  1.0000 -0.5581968231
O   O8        1.0  0.36470  0.70980  0.57200  1.0000 -0.5581968231
O   O9        1.0  0.64800  0.48420  0.55550  1.0000 -0.5581968231
O   O10       1.0  0.85200  0.98420  0.05550  1.0000 -0.5581968231
O   O11       1.0  0.75050  0.35150  0.59410  1.0000 -0.5581968231
O   O12       1.0  0.74950  0.85150  0.09410  1.0000 -0.5581968231
O   O13       1.0  0.77840  0.84610  0.87560  1.0000 -0.5679040206
O   O14       1.0  0.72160  0.34610  0.37560  1.0000 -0.5679040206
O   O15       1.0  0.86470  0.70980  0.92800  1.0000 -0.5581968231
O   O16       1.0  0.63530  0.20980  0.42800  1.0000 -0.5581968231
