# DDEC6 charges by PACMAN v1.1 (https://github.com/mtap-research/PACMAN-charge/)
data_2023[Zn][sql]2[ASR]26
_chemical_formula_sum              "Zn2 H60 C60 N4 O8"
_cell_length_a       7.8506
_cell_length_b       9.4377
_cell_length_c       30.4825
_cell_angle_alpha    88.34
_cell_angle_beta     95.458
_cell_angle_gamma    110.917

_symmetry_space_group_name_H-M    "P 1"
_symmetry_Int_Tables_number       1

loop_
  _symmetry_equiv_pos_as_xyz
  'x, y, z'

loop_
  _atom_site_type_symbol
  _atom_site_label
  _atom_site_symmetry_multiplicity
  _atom_site_fract_x
  _atom_site_fract_y
  _atom_site_fract_z
  _atom_site_occupancy
  _atom_site_charge
Zn  Zn1       1.0  0.77190  0.95970  0.02321  1.0000 0.7073859691
Zn  Zn2       1.0  0.40560  0.71710  0.58498  1.0000 0.7073859691
H   H1        1.0  0.90260  0.07479  0.93401  1.0000 0.1196037958
H   H2        1.0  0.11228  0.03816  0.88568  1.0000 0.1289658918
H   H3        1.0  0.28690  0.81877  0.98744  1.0000 0.1579737261
H   H4        1.0  0.08710  0.85875  0.02559  1.0000 0.1196037958
H   H5        1.0  0.44168  0.86609  0.92066  1.0000 0.1289658918
H   H6        1.0  0.27784  0.95674  0.84609  1.0000 0.1109695004
H   H7        1.0  0.38905  0.95899  0.77529  1.0000 0.1196037958
H   H8        1.0  0.59801  0.92373  0.73084  1.0000 0.1196037958
H   H9        1.0  0.84065  0.77774  0.83692  1.0000 0.1196037958
H   H10       1.0  0.63169  0.81299  0.88136  1.0000 0.1196037958
H   H11       1.0  0.96223  0.77973  0.76735  1.0000 0.1109695004
H   H12       1.0  0.76410  0.85771  0.69470  1.0000 0.1196037958
H   H13       1.0  0.86399  0.84187  0.62701  1.0000 0.1387914108
H   H14       1.0  0.04695  0.78911  0.57706  1.0000 0.1109695004
H   H15       1.0  0.33137  0.68858  0.67973  1.0000 0.1196037958
H   H16       1.0  0.14412  0.71324  0.72690  1.0000 0.1289658918
H   H17       1.0  0.94428  0.86743  0.10777  1.0000 0.1196037958
H   H18       1.0  0.11157  0.96621  0.17455  1.0000 0.1289658918
H   H19       1.0  0.13159  0.37841  0.13138  1.0000 0.1387914108
H   H20       1.0  0.96215  0.27191  0.06729  1.0000 0.1109695004
H   H21       1.0  0.33380  0.36951  0.19551  1.0000 0.1196037958
H   H22       1.0  0.27374  0.08747  0.23407  1.0000 0.1109695004
H   H23       1.0  0.45524  0.07923  0.30041  1.0000 0.1109695004
H   H24       1.0  0.65197  0.19693  0.36101  1.0000 0.1109695004
H   H25       1.0  0.70603  0.60558  0.31138  1.0000 0.1196037958
H   H26       1.0  0.50413  0.49562  0.25076  1.0000 0.1109695004
H   H27       1.0  0.87376  0.59722  0.38120  1.0000 0.1109695004
H   H28       1.0  0.83565  0.31381  0.41385  1.0000 0.1289658918
H   H29       1.0  0.99533  0.30408  0.48294  1.0000 0.1387914108
H   H30       1.0  0.18921  0.42188  0.54345  1.0000 0.1109695004
H   H31       1.0  0.25550  0.82564  0.49769  1.0000 0.1109695004
H   H32       1.0  0.05750  0.72279  0.43657  1.0000 0.1289658918
H   H33       1.0  0.38381  0.20869  0.00412  1.0000 0.0898934694
H   H34       1.0  0.37225  0.21312  0.07778  1.0000 0.0828258787
H   H35       1.0  0.59135  0.26761  0.08810  1.0000 0.0898934694
H   H36       1.0  0.61825  0.51426  0.08657  1.0000 0.096940054
H   H37       1.0  0.39872  0.45827  0.08463  1.0000 0.0828258787
H   H38       1.0  0.81846  0.49093  0.04543  1.0000 0.1196037958
H   H39       1.0  0.86344  0.42149  0.00260  1.0000 0.1387914108
H   H40       1.0  0.84864  0.58638  0.00074  1.0000 0.1289658918
H   H41       1.0  0.41256  0.34985  0.94352  1.0000 0.1109695004
H   H42       1.0  0.58856  0.49598  0.93520  1.0000 0.1387914108
H   H43       1.0  0.60335  0.33109  0.93706  1.0000 0.1387914108
H   H44       1.0  0.23043  0.35453  0.00969  1.0000 0.1196037958
H   H45       1.0  0.24095  0.51784  0.02556  1.0000 0.1289658918
H   H46       1.0  0.27690  0.49359  0.97601  1.0000 0.1387914108
H   H47       1.0  0.81900  0.21529  0.66648  1.0000 0.096940054
H   H48       1.0  0.60173  0.15187  0.66984  1.0000 0.0898934694
H   H49       1.0  0.60876  0.39365  0.67143  1.0000 0.096940054
H   H50       1.0  0.82459  0.45705  0.66480  1.0000 0.0898934694
H   H51       1.0  0.78016  0.45844  0.59222  1.0000 0.096940054
H   H52       1.0  0.30144  0.09651  0.57831  1.0000 0.1289658918
H   H53       1.0  0.35578  0.18222  0.62493  1.0000 0.1289658918
H   H54       1.0  0.29995  0.26474  0.58234  1.0000 0.1289658918
H   H55       1.0  0.69389  0.31992  0.52498  1.0000 0.1109695004
H   H56       1.0  0.50509  0.17907  0.51766  1.0000 0.1289658918
H   H57       1.0  0.50329  0.34730  0.52145  1.0000 0.1289658918
H   H58       1.0  0.91686  0.32615  0.59345  1.0000 0.1109695004
H   H59       1.0  0.92922  0.16257  0.60353  1.0000 0.1387914108
H   H60       1.0  0.84514  0.19679  0.55626  1.0000 0.1196037958
C   C1        1.0  0.98030  0.02050  0.94380  1.0000 0.0898934694
C   C2        1.0  0.10750  0.99960  0.91490  1.0000 -0.1916506022
C   C3        1.0  0.21650  0.92570  0.93010  1.0000 0.1579737261
C   C4        1.0  0.20940  0.86990  0.97490  1.0000 -0.1505573323
C   C5        1.0  0.09190  0.89470  0.99610  1.0000 0.0528674133
C   C6        1.0  0.35320  0.89950  0.90470  1.0000 -0.1300687696
C   C7        1.0  0.36440  0.91860  0.86090  1.0000 -0.1505573323
C   C8        1.0  0.49070  0.88930  0.83250  1.0000 0.1109695004
C   C9        1.0  0.48070  0.92220  0.78780  1.0000 -0.1505573323
C   C10       1.0  0.60480  0.90130  0.76140  1.0000 -0.1505573323
C   C11       1.0  0.73900  0.84740  0.77970  1.0000 0.1109695004
C   C12       1.0  0.74900  0.81450  0.82440  1.0000 -0.1505573323
C   C13       1.0  0.62490  0.83550  0.85080  1.0000 -0.1378658071
C   C14       1.0  0.86990  0.81220  0.75300  1.0000 -0.1505573323
C   C15       1.0  0.85790  0.82620  0.70870  1.0000 -0.1300687696
C   C16       1.0  0.98440  0.79440  0.68150  1.0000 0.1387914108
C   C17       1.0  0.96020  0.80870  0.63850  1.0000 -0.1697851636
C   C18       1.0  0.07100  0.77710  0.60780  1.0000 0.0898934694
C   C19       1.0  0.23090  0.71590  0.66810  1.0000 0.0636154718
C   C20       1.0  0.12630  0.73640  0.69670  1.0000 -0.1916506022
C   C21       1.0  0.98550  0.97390  0.11250  1.0000 0.0636154718
C   C22       1.0  0.08870  0.03110  0.15220  1.0000 -0.1982104063
C   C23       1.0  0.15790  0.19200  0.15750  1.0000 0.1544485658
C   C24       1.0  0.09980  0.27270  0.12670  1.0000 -0.1916506022
C   C25       1.0  0.99550  0.20830  0.08840  1.0000 0.0898934694
C   C26       1.0  0.28040  0.26200  0.19600  1.0000 -0.1697851636
C   C27       1.0  0.32870  0.19470  0.23260  1.0000 -0.1505573323
C   C28       1.0  0.45410  0.26920  0.26910  1.0000 0.096940054
C   C29       1.0  0.50360  0.18690  0.30210  1.0000 -0.1300687696
C   C30       1.0  0.62370  0.25760  0.33810  1.0000 -0.1561197818
C   C31       1.0  0.70100  0.41030  0.34150  1.0000 0.0898934694
C   C32       1.0  0.65430  0.49820  0.30890  1.0000 -0.1505573323
C   C33       1.0  0.53430  0.43340  0.27290  1.0000 -0.1378658071
C   C34       1.0  0.82870  0.48950  0.38080  1.0000 -0.10863709
C   C35       1.0  0.88070  0.42160  0.41370  1.0000 -0.1505573323
C   C36       1.0  0.00930  0.50450  0.45200  1.0000 0.1692916423
C   C37       1.0  0.04660  0.41160  0.48510  1.0000 -0.1916506022
C   C38       1.0  0.16130  0.48370  0.52090  1.0000 0.0723110333
C   C39       1.0  0.20030  0.71850  0.49490  1.0000 0.0828258787
C   C40       1.0  0.08490  0.65740  0.45810  1.0000 -0.2088906497
C   C41       1.0  0.60710  0.14100  0.01610  1.0000 0.5566418588
C   C42       1.0  0.51020  0.25520  0.01910  1.0000 -0.1697851636
C   C43       1.0  0.49100  0.28270  0.06860  1.0000 -0.1697851636
C   C44       1.0  0.50260  0.45080  0.07000  1.0000 -0.2088906497
C   C45       1.0  0.49500  0.50530  0.02080  1.0000 0.0424026686
C   C46       1.0  0.59810  0.41430  0.99910  1.0000 0.2196349174
C   C47       1.0  0.79980  0.48440  0.01320  1.0000 -0.4791593035
C   C48       1.0  0.54600  0.39620  0.94920  1.0000 -0.4641921997
C   C49       1.0  0.29300  0.46420  0.00680  1.0000 -0.4504459679
C   C50       1.0  0.59200  0.67710  0.01620  1.0000 0.5398149113
C   C51       1.0  0.57840  0.99340  0.59520  1.0000 0.5398149113
C   C52       1.0  0.66930  0.16410  0.60420  1.0000 0.0424026686
C   C53       1.0  0.70090  0.21870  0.65280  1.0000 -0.1982104063
C   C54       1.0  0.70310  0.38520  0.65340  1.0000 -0.1788020164
C   C55       1.0  0.66030  0.41320  0.60520  1.0000 -0.1788020164
C   C56       1.0  0.56030  0.25960  0.58300  1.0000 0.2112617761
C   C57       1.0  0.36190  0.19510  0.59300  1.0000 -0.4791593035
C   C58       1.0  0.56600  0.27820  0.53200  1.0000 -0.4726758182
C   C59       1.0  0.85600  0.21700  0.58800  1.0000 -0.4504459679
C   C60       1.0  0.56340  0.52630  0.59800  1.0000 0.5398149113
N   N1        1.0  0.97550  0.96250  0.98370  1.0000 -0.2188233912
N   N2        1.0  0.21000  0.73000  0.62310  1.0000 -0.2518732131
N   N3        1.0  0.93980  0.06000  0.08010  1.0000 -0.229403171
N   N4        1.0  0.23630  0.63260  0.52650  1.0000 -0.2188233912
O   O1        1.0  0.71830  0.15230  0.98940  1.0000 -0.530093211
O   O2        1.0  0.56190  0.03240  0.04460  1.0000 -0.5593308986
O   O3        1.0  0.56970  0.74770  0.98320  1.0000 -0.530093211
O   O4        1.0  0.69620  0.74490  0.05030  1.0000 -0.550687927
O   O5        1.0  0.49140  0.93800  0.56150  1.0000 -0.4791593035
O   O6        1.0  0.59670  0.90760  0.62790  1.0000 -0.5593308986
O   O7        1.0  0.44070  0.53020  0.61930  1.0000 -0.4919336021
O   O8        1.0  0.60580  0.61740  0.56720  1.0000 -0.5077369392
