# DDEC6 charges by PACMAN v1.1 (https://github.com/mtap-research/PACMAN-charge/)
data_2023[Cd][lvt]3[ASR]1
_chemical_formula_sum              "Cd4 H80 C104 N24"
_cell_length_a       14.3241
_cell_length_b       14.3241
_cell_length_c       16.9672
_cell_angle_alpha    90
_cell_angle_beta     90
_cell_angle_gamma    118.087

_symmetry_space_group_name_H-M    "P 1"
_symmetry_Int_Tables_number       1

loop_
  _symmetry_equiv_pos_as_xyz
  'x, y, z'

loop_
  _atom_site_type_symbol
  _atom_site_label
  _atom_site_symmetry_multiplicity
  _atom_site_fract_x
  _atom_site_fract_y
  _atom_site_fract_z
  _atom_site_occupancy
  _atom_site_charge
Cd  Cd1       1.0  0.49874  0.99874  0.75000  1.0000 0.5896154726
Cd  Cd2       1.0  0.00126  0.50126  0.25000  1.0000 0.5823536797
Cd  Cd3       1.0  0.50126  0.00126  0.25000  1.0000 0.5823536797
Cd  Cd4       1.0  0.99874  0.49874  0.75000  1.0000 0.5823536797
H   H1        1.0  0.56630  0.04790  0.92480  1.0000 0.0884437434
H   H2        1.0  0.93370  0.45210  0.42480  1.0000 0.0884437434
H   H3        1.0  0.54790  0.06630  0.57520  1.0000 0.0884437434
H   H4        1.0  0.95210  0.43370  0.07520  1.0000 0.0884437434
H   H5        1.0  0.43370  0.95210  0.07520  1.0000 0.0884437434
H   H6        1.0  0.06630  0.54790  0.57520  1.0000 0.0884437434
H   H7        1.0  0.45210  0.93370  0.42480  1.0000 0.0884437434
H   H8        1.0  0.04790  0.56630  0.92480  1.0000 0.0884437434
H   H9        1.0  0.69260  0.07960  0.01840  1.0000 0.1306474454
H   H10       1.0  0.80740  0.42040  0.51840  1.0000 0.1306474454
H   H11       1.0  0.57960  0.19260  0.48160  1.0000 0.1306474454
H   H12       1.0  0.92040  0.30740  0.98160  1.0000 0.1306474454
H   H13       1.0  0.30740  0.92040  0.98160  1.0000 0.1306474454
H   H14       1.0  0.19260  0.57960  0.48160  1.0000 0.1306474454
H   H15       1.0  0.42040  0.80740  0.51840  1.0000 0.1306474454
H   H16       1.0  0.07960  0.69260  0.01840  1.0000 0.1306474454
H   H17       1.0  0.89200  0.10540  0.84420  1.0000 0.1400498682
H   H18       1.0  0.60800  0.39460  0.34420  1.0000 0.1400498682
H   H19       1.0  0.60540  0.39200  0.65580  1.0000 0.1400498682
H   H20       1.0  0.89460  0.10800  0.15580  1.0000 0.1400498682
H   H21       1.0  0.10800  0.89460  0.15580  1.0000 0.1400498682
H   H22       1.0  0.39200  0.60540  0.65580  1.0000 0.1400498682
H   H23       1.0  0.39460  0.60800  0.34420  1.0000 0.1400498682
H   H24       1.0  0.10540  0.89200  0.84420  1.0000 0.1400498682
H   H25       1.0  0.76180  0.08040  0.75670  1.0000 0.0959813827
H   H26       1.0  0.73820  0.41960  0.25670  1.0000 0.0959813827
H   H27       1.0  0.58040  0.26180  0.74330  1.0000 0.0959813827
H   H28       1.0  0.91960  0.23820  0.24330  1.0000 0.0959813827
H   H29       1.0  0.23820  0.91960  0.24330  1.0000 0.0959813827
H   H30       1.0  0.26180  0.58040  0.74330  1.0000 0.0959813827
H   H31       1.0  0.41960  0.73820  0.25670  1.0000 0.0959813827
H   H32       1.0  0.08040  0.76180  0.75670  1.0000 0.0959813827
H   H33       1.0  0.82680  0.92100  0.95590  1.0000 0.1197266137
H   H34       1.0  0.67320  0.57900  0.45590  1.0000 0.1197266137
H   H35       1.0  0.42100  0.32680  0.54410  1.0000 0.1197266137
H   H36       1.0  0.07900  0.17320  0.04410  1.0000 0.1197266137
H   H37       1.0  0.17320  0.07900  0.04410  1.0000 0.1197266137
H   H38       1.0  0.32680  0.42100  0.54410  1.0000 0.1197266137
H   H39       1.0  0.57900  0.67320  0.45590  1.0000 0.1197266137
H   H40       1.0  0.92100  0.82680  0.95590  1.0000 0.1197266137
H   H41       1.0  0.30080  0.80740  0.84100  1.0000 0.0884437434
H   H42       1.0  0.19920  0.69260  0.34100  1.0000 0.0884437434
H   H43       1.0  0.30740  0.80080  0.65900  1.0000 0.0884437434
H   H44       1.0  0.19260  0.69920  0.15900  1.0000 0.0884437434
H   H45       1.0  0.69920  0.19260  0.15900  1.0000 0.0884437434
H   H46       1.0  0.80080  0.30740  0.65900  1.0000 0.0884437434
H   H47       1.0  0.69260  0.19920  0.34100  1.0000 0.0884437434
H   H48       1.0  0.80740  0.30080  0.84100  1.0000 0.0884437434
H   H49       1.0  0.26180  0.68340  0.93610  1.0000 0.1197266137
H   H50       1.0  0.23820  0.81660  0.43610  1.0000 0.1197266137
H   H51       1.0  0.18340  0.76180  0.56390  1.0000 0.1197266137
H   H52       1.0  0.31660  0.73820  0.06390  1.0000 0.1197266137
H   H53       1.0  0.73820  0.31660  0.06390  1.0000 0.1197266137
H   H54       1.0  0.76180  0.18340  0.56390  1.0000 0.1197266137
H   H55       1.0  0.81660  0.23820  0.43610  1.0000 0.1197266137
H   H56       1.0  0.68340  0.26180  0.93610  1.0000 0.1197266137
H   H57       1.0  0.55470  0.71810  0.91340  1.0000 0.1306474454
H   H58       1.0  0.94530  0.78190  0.41340  1.0000 0.1306474454
H   H59       1.0  0.21810  0.05470  0.58660  1.0000 0.1306474454
H   H60       1.0  0.28190  0.44530  0.08660  1.0000 0.1306474454
H   H61       1.0  0.44530  0.28190  0.08660  1.0000 0.1306474454
H   H62       1.0  0.05470  0.21810  0.58660  1.0000 0.1306474454
H   H63       1.0  0.78190  0.94530  0.41340  1.0000 0.1306474454
H   H64       1.0  0.71810  0.55470  0.91340  1.0000 0.1306474454
H   H65       1.0  0.58290  0.83830  0.81570  1.0000 0.0884437434
H   H66       1.0  0.91710  0.66170  0.31570  1.0000 0.0884437434
H   H67       1.0  0.33830  0.08290  0.68430  1.0000 0.0884437434
H   H68       1.0  0.16170  0.41710  0.18430  1.0000 0.0884437434
H   H69       1.0  0.41710  0.16170  0.18430  1.0000 0.0884437434
H   H70       1.0  0.08290  0.33830  0.68430  1.0000 0.0884437434
H   H71       1.0  0.66170  0.91710  0.31570  1.0000 0.0884437434
H   H72       1.0  0.83830  0.58290  0.81570  1.0000 0.0884437434
H   H73       1.0  0.55540  0.65000  0.07740  1.0000 0.1306474454
H   H74       1.0  0.94460  0.85000  0.57740  1.0000 0.1306474454
H   H75       1.0  0.15000  0.05540  0.42260  1.0000 0.1306474454
H   H76       1.0  0.35000  0.44460  0.92260  1.0000 0.1306474454
H   H77       1.0  0.44460  0.35000  0.92260  1.0000 0.1306474454
H   H78       1.0  0.05540  0.15000  0.42260  1.0000 0.1306474454
H   H79       1.0  0.85000  0.94460  0.57740  1.0000 0.1306474454
H   H80       1.0  0.65000  0.55540  0.07740  1.0000 0.1306474454
C   C1        1.0  0.63336  0.06104  0.90840  1.0000 0.0305848617
C   C2        1.0  0.86664  0.43896  0.40840  1.0000 0.0305848617
C   C3        1.0  0.56104  0.13336  0.59160  1.0000 0.0305848617
C   C4        1.0  0.93896  0.36664  0.09160  1.0000 0.0305848617
C   C5        1.0  0.36664  0.93896  0.09160  1.0000 0.0305848617
C   C6        1.0  0.13336  0.56104  0.59160  1.0000 0.0305848617
C   C7        1.0  0.43896  0.86664  0.40840  1.0000 0.0305848617
C   C8        1.0  0.06104  0.63336  0.90840  1.0000 0.0305848617
C   C9        1.0  0.70849  0.07911  0.96530  1.0000 -0.2586299256
C   C10       1.0  0.79151  0.42089  0.46530  1.0000 -0.2586299256
C   C11       1.0  0.57911  0.20849  0.53470  1.0000 -0.2586299256
C   C12       1.0  0.92089  0.29151  0.03470  1.0000 -0.2586299256
C   C13       1.0  0.29151  0.92089  0.03470  1.0000 -0.2586299256
C   C14       1.0  0.20849  0.57911  0.53470  1.0000 -0.2586299256
C   C15       1.0  0.42089  0.79151  0.46530  1.0000 -0.2586299256
C   C16       1.0  0.07911  0.70849  0.96530  1.0000 -0.2586299256
C   C17       1.0  0.80816  0.09664  0.94200  1.0000 0.1933456333
C   C18       1.0  0.69184  0.40336  0.44200  1.0000 0.1933456333
C   C19       1.0  0.59664  0.30816  0.55800  1.0000 0.1933456333
C   C20       1.0  0.90336  0.19184  0.05800  1.0000 0.1933456333
C   C21       1.0  0.19184  0.90336  0.05800  1.0000 0.1933456333
C   C22       1.0  0.30816  0.59664  0.55800  1.0000 0.1933456333
C   C23       1.0  0.40336  0.69184  0.44200  1.0000 0.1933456333
C   C24       1.0  0.09664  0.80816  0.94200  1.0000 0.1933456333
C   C25       1.0  0.82666  0.09534  0.86230  1.0000 -0.2523821228
C   C26       1.0  0.67334  0.40466  0.36230  1.0000 -0.2523821228
C   C27       1.0  0.59534  0.32666  0.63770  1.0000 -0.2523821228
C   C28       1.0  0.90466  0.17334  0.13770  1.0000 -0.2523821228
C   C29       1.0  0.17334  0.90466  0.13770  1.0000 -0.2523821228
C   C30       1.0  0.32666  0.59534  0.63770  1.0000 -0.2523821228
C   C31       1.0  0.40466  0.67334  0.36230  1.0000 -0.2523821228
C   C32       1.0  0.09534  0.82666  0.86230  1.0000 -0.2523821228
C   C33       1.0  0.74738  0.07902  0.81030  1.0000 0.0218862928
C   C34       1.0  0.75262  0.42098  0.31030  1.0000 0.0218862928
C   C35       1.0  0.57902  0.24738  0.68970  1.0000 0.0218862928
C   C36       1.0  0.92098  0.25262  0.18970  1.0000 0.0218862928
C   C37       1.0  0.25262  0.92098  0.18970  1.0000 0.0218862928
C   C38       1.0  0.24738  0.57902  0.68970  1.0000 0.0218862928
C   C39       1.0  0.42098  0.75262  0.31030  1.0000 0.0218862928
C   C40       1.0  0.07902  0.74738  0.81030  1.0000 0.0218862928
C   C41       1.0  0.94350  0.05650  0.00000  1.0000 0.1526742959
C   C42       1.0  0.55650  0.44350  0.50000  1.0000 0.1526742959
C   C43       1.0  0.05650  0.94350  0.00000  1.0000 0.1526742959
C   C44       1.0  0.44350  0.55650  0.50000  1.0000 0.1526742959
C   C45       1.0  0.89649  0.95291  0.97370  1.0000 -0.1896555033
C   C46       1.0  0.60351  0.54709  0.47370  1.0000 -0.1896555033
C   C47       1.0  0.45291  0.39649  0.52630  1.0000 -0.1896555033
C   C48       1.0  0.04709  0.10351  0.02630  1.0000 -0.1896555033
C   C49       1.0  0.10351  0.04709  0.02630  1.0000 -0.1896555033
C   C50       1.0  0.39649  0.45291  0.52630  1.0000 -0.1896555033
C   C51       1.0  0.54709  0.60351  0.47370  1.0000 -0.1896555033
C   C52       1.0  0.95291  0.89649  0.97370  1.0000 -0.1896555033
C   C53       1.0  0.35310  0.79030  0.85640  1.0000 0.0305848617
C   C54       1.0  0.14690  0.70970  0.35640  1.0000 0.0305848617
C   C55       1.0  0.29030  0.85310  0.64360  1.0000 0.0305848617
C   C56       1.0  0.20970  0.64690  0.14360  1.0000 0.0305848617
C   C57       1.0  0.64690  0.20970  0.14360  1.0000 0.0305848617
C   C58       1.0  0.85310  0.29030  0.64360  1.0000 0.0305848617
C   C59       1.0  0.70970  0.14690  0.35640  1.0000 0.0305848617
C   C60       1.0  0.79030  0.35310  0.85640  1.0000 0.0305848617
C   C61       1.0  0.32917  0.71583  0.91400  1.0000 -0.2586299256
C   C62       1.0  0.17083  0.78417  0.41400  1.0000 -0.2586299256
C   C63       1.0  0.21583  0.82917  0.58600  1.0000 -0.2586299256
C   C64       1.0  0.28417  0.67083  0.08600  1.0000 -0.2586299256
C   C65       1.0  0.67083  0.28417  0.08600  1.0000 -0.2586299256
C   C66       1.0  0.82917  0.21583  0.58600  1.0000 -0.2586299256
C   C67       1.0  0.78417  0.17083  0.41400  1.0000 -0.2586299256
C   C68       1.0  0.71583  0.32917  0.91400  1.0000 -0.2586299256
C   C69       1.0  0.40503  0.68837  0.93980  1.0000 0.2108830521
C   C70       1.0  0.09497  0.81163  0.43980  1.0000 0.2108830521
C   C71       1.0  0.18837  0.90503  0.56020  1.0000 0.2108830521
C   C72       1.0  0.31163  0.59497  0.06020  1.0000 0.2108830521
C   C73       1.0  0.59497  0.31163  0.06020  1.0000 0.2108830521
C   C74       1.0  0.90503  0.18837  0.56020  1.0000 0.2108830521
C   C75       1.0  0.81163  0.09497  0.43980  1.0000 0.2108830521
C   C76       1.0  0.68837  0.40503  0.93980  1.0000 0.2108830521
C   C77       1.0  0.50187  0.73573  0.90040  1.0000 -0.2586299256
C   C78       1.0  0.99813  0.76427  0.40040  1.0000 -0.2523821228
C   C79       1.0  0.23573  0.00187  0.59960  1.0000 -0.2523821228
C   C80       1.0  0.26427  0.49813  0.09960  1.0000 -0.2586299256
C   C81       1.0  0.49813  0.26427  0.09960  1.0000 -0.2586299256
C   C82       1.0  0.00187  0.23573  0.59960  1.0000 -0.2586299256
C   C83       1.0  0.76427  0.99813  0.40040  1.0000 -0.2586299256
C   C84       1.0  0.73573  0.50187  0.90040  1.0000 -0.2586299256
C   C85       1.0  0.51841  0.80879  0.84210  1.0000 0.0526292142
C   C86       1.0  0.98159  0.69121  0.34210  1.0000 0.0526292142
C   C87       1.0  0.30879  0.01841  0.65790  1.0000 0.0526292142
C   C88       1.0  0.19121  0.48159  0.15790  1.0000 0.0526292142
C   C89       1.0  0.48159  0.19121  0.15790  1.0000 0.0526292142
C   C90       1.0  0.01841  0.30879  0.65790  1.0000 0.0526292142
C   C91       1.0  0.69121  0.98159  0.34210  1.0000 0.0526292142
C   C92       1.0  0.80879  0.51841  0.84210  1.0000 0.0526292142
C   C93       1.0  0.44440  0.55560  0.00000  1.0000 0.1197266137
C   C94       1.0  0.05560  0.94440  0.50000  1.0000 0.1197266137
C   C95       1.0  0.55560  0.44440  0.00000  1.0000 0.1197266137
C   C96       1.0  0.94440  0.05560  0.50000  1.0000 0.1197266137
C   C97       1.0  0.53333  0.58967  0.04640  1.0000 -0.1831430001
C   C98       1.0  0.96667  0.91033  0.54640  1.0000 -0.1831430001
C   C99       1.0  0.08967  0.03333  0.45360  1.0000 -0.1831430001
C   C100      1.0  0.41033  0.46667  0.95360  1.0000 -0.1831430001
C   C101      1.0  0.46667  0.41033  0.95360  1.0000 -0.1831430001
C   C102      1.0  0.03333  0.08967  0.45360  1.0000 -0.1831430001
C   C103      1.0  0.91033  0.96667  0.54640  1.0000 -0.1831430001
C   C104      1.0  0.58967  0.53333  0.04640  1.0000 -0.1831430001
N   N1        1.0  0.65073  0.06127  0.83152  1.0000 -0.2523821228
N   N2        1.0  0.84927  0.43873  0.33152  1.0000 -0.2523821228
N   N3        1.0  0.56127  0.15073  0.66848  1.0000 -0.2523821228
N   N4        1.0  0.93873  0.34927  0.16848  1.0000 -0.2523821228
N   N5        1.0  0.34927  0.93873  0.16848  1.0000 -0.2523821228
N   N6        1.0  0.15073  0.56127  0.66848  1.0000 -0.2523821228
N   N7        1.0  0.43873  0.84927  0.33152  1.0000 -0.2523821228
N   N8        1.0  0.06127  0.65073  0.83152  1.0000 -0.2586299256
N   N9        1.0  0.88547  0.11453  0.00000  1.0000 -0.1896555033
N   N10       1.0  0.61453  0.38547  0.50000  1.0000 -0.1896555033
N   N11       1.0  0.11453  0.88547  0.00000  1.0000 -0.1896555033
N   N12       1.0  0.38547  0.61453  0.50000  1.0000 -0.1896555033
N   N13       1.0  0.44686  0.83974  0.82108  1.0000 -0.2586299256
N   N14       1.0  0.05314  0.66026  0.32108  1.0000 -0.2586299256
N   N15       1.0  0.33974  0.94686  0.67892  1.0000 -0.2586299256
N   N16       1.0  0.16026  0.55314  0.17892  1.0000 -0.2586299256
N   N17       1.0  0.55314  0.16026  0.17892  1.0000 -0.2586299256
N   N18       1.0  0.94686  0.33974  0.67892  1.0000 -0.2586299256
N   N19       1.0  0.66026  0.05314  0.32108  1.0000 -0.2586299256
N   N20       1.0  0.83974  0.44686  0.82108  1.0000 -0.2586299256
N   N21       1.0  0.38534  0.61466  0.00000  1.0000 -0.1896555033
N   N22       1.0  0.11466  0.88534  0.50000  1.0000 -0.1896555033
N   N23       1.0  0.61466  0.38534  0.00000  1.0000 -0.1896555033
N   N24       1.0  0.88534  0.11466  0.50000  1.0000 -0.1896555033
