# DDEC6 charges by PACMAN v1.1 (https://github.com/mtap-research/PACMAN-charge/)
data_2023[Fe][xmz]3[ASR]4
_chemical_formula_sum              "Fe6 H66 C114 N6 O26"
_cell_length_a       18.8973
_cell_length_b       18.8973
_cell_length_c       18.8973
_cell_angle_alpha    62.9655
_cell_angle_beta     62.9655
_cell_angle_gamma    62.9655

_symmetry_space_group_name_H-M    "P 1"
_symmetry_Int_Tables_number       1

loop_
  _symmetry_equiv_pos_as_xyz
  'x, y, z'

loop_
  _atom_site_type_symbol
  _atom_site_label
  _atom_site_symmetry_multiplicity
  _atom_site_fract_x
  _atom_site_fract_y
  _atom_site_fract_z
  _atom_site_occupancy
  _atom_site_charge
Fe  Fe1       1.0  0.64532  0.85468  0.75000  1.0000 1.0965819489
Fe  Fe2       1.0  0.85468  0.75000  0.64532  1.0000 1.0965819489
Fe  Fe3       1.0  0.75000  0.64532  0.85468  1.0000 1.0965819489
Fe  Fe4       1.0  0.35468  0.14532  0.25000  1.0000 1.0931216609
Fe  Fe5       1.0  0.14532  0.25000  0.35468  1.0000 1.0965819489
Fe  Fe6       1.0  0.25000  0.35468  0.14532  1.0000 1.0931216609
H   H1        1.0  0.48121  0.02635  0.34980  1.0000 0.1025422855
H   H2        1.0  0.02635  0.34980  0.48121  1.0000 0.1025422855
H   H3        1.0  0.34980  0.48121  0.02635  1.0000 0.1025422855
H   H4        1.0  0.01879  0.15020  0.47365  1.0000 0.1025422855
H   H5        1.0  0.47365  0.01879  0.15020  1.0000 0.1025422855
H   H6        1.0  0.15020  0.47365  0.01879  1.0000 0.1025422855
H   H7        1.0  0.51879  0.97365  0.65020  1.0000 0.1025422855
H   H8        1.0  0.97365  0.65020  0.51879  1.0000 0.1025422855
H   H9        1.0  0.65020  0.51879  0.97365  1.0000 0.1025422855
H   H10       1.0  0.98121  0.84980  0.52635  1.0000 0.1025422855
H   H11       1.0  0.52635  0.98121  0.84980  1.0000 0.1025422855
H   H12       1.0  0.84980  0.52635  0.98121  1.0000 0.1025422855
H   H13       1.0  0.65397  0.84603  0.25000  1.0000 0.1195930306
H   H14       1.0  0.84603  0.25000  0.65397  1.0000 0.1195930306
H   H15       1.0  0.25000  0.65397  0.84603  1.0000 0.1195930306
H   H16       1.0  0.34603  0.15397  0.75000  1.0000 0.1195930306
H   H17       1.0  0.15397  0.75000  0.34603  1.0000 0.1195930306
H   H18       1.0  0.75000  0.34603  0.15397  1.0000 0.1195930306
H   H19       1.0  0.55290  0.88141  0.57607  1.0000 0.1195930306
H   H20       1.0  0.88141  0.57607  0.55290  1.0000 0.1195930306
H   H21       1.0  0.57607  0.55290  0.88141  1.0000 0.1195930306
H   H22       1.0  0.94710  0.92393  0.61859  1.0000 0.1195930306
H   H23       1.0  0.61859  0.94710  0.92393  1.0000 0.1195930306
H   H24       1.0  0.92393  0.61859  0.94710  1.0000 0.1195930306
H   H25       1.0  0.44710  0.11859  0.42393  1.0000 0.1195930306
H   H26       1.0  0.11859  0.42393  0.44710  1.0000 0.1195930306
H   H27       1.0  0.42393  0.44710  0.11859  1.0000 0.1195930306
H   H28       1.0  0.05290  0.07607  0.38141  1.0000 0.1195930306
H   H29       1.0  0.38141  0.05290  0.07607  1.0000 0.1195930306
H   H30       1.0  0.07607  0.38141  0.05290  1.0000 0.1195930306
H   H31       1.0  0.50025  0.91912  0.47053  1.0000 0.1195930306
H   H32       1.0  0.91912  0.47053  0.50025  1.0000 0.1195930306
H   H33       1.0  0.47053  0.50025  0.91912  1.0000 0.1195930306
H   H34       1.0  0.99975  0.02947  0.58088  1.0000 0.1195930306
H   H35       1.0  0.58088  0.99975  0.02947  1.0000 0.1195930306
H   H36       1.0  0.02947  0.58088  0.99975  1.0000 0.1195930306
H   H37       1.0  0.49975  0.08088  0.52947  1.0000 0.1195930306
H   H38       1.0  0.08088  0.52947  0.49975  1.0000 0.1195930306
H   H39       1.0  0.52947  0.49975  0.08088  1.0000 0.1195930306
H   H40       1.0  0.00025  0.97053  0.41912  1.0000 0.1195930306
H   H41       1.0  0.41912  0.00025  0.97053  1.0000 0.1195930306
H   H42       1.0  0.97053  0.41912  0.00025  1.0000 0.1195930306
H   H43       1.0  0.73220  0.86935  0.31300  1.0000 0.1121430602
H   H44       1.0  0.86935  0.31300  0.73220  1.0000 0.1121430602
H   H45       1.0  0.31300  0.73220  0.86935  1.0000 0.1121430602
H   H46       1.0  0.76780  0.18700  0.63065  1.0000 0.1121430602
H   H47       1.0  0.63065  0.76780  0.18700  1.0000 0.1121430602
H   H48       1.0  0.18700  0.63065  0.76780  1.0000 0.1121430602
H   H49       1.0  0.26780  0.13065  0.68700  1.0000 0.1121430602
H   H50       1.0  0.13065  0.68700  0.26780  1.0000 0.1121430602
H   H51       1.0  0.68700  0.26780  0.13065  1.0000 0.1121430602
H   H52       1.0  0.23220  0.81300  0.36935  1.0000 0.1121430602
H   H53       1.0  0.36935  0.23220  0.81300  1.0000 0.1121430602
H   H54       1.0  0.81300  0.36935  0.23220  1.0000 0.1121430602
H   H55       1.0  0.78496  0.83089  0.41729  1.0000 0.1318591069
H   H56       1.0  0.83089  0.41729  0.78496  1.0000 0.1318591069
H   H57       1.0  0.41729  0.78496  0.83089  1.0000 0.1318591069
H   H58       1.0  0.71504  0.08271  0.66911  1.0000 0.1318591069
H   H59       1.0  0.66911  0.71504  0.08271  1.0000 0.1318591069
H   H60       1.0  0.08271  0.66911  0.71504  1.0000 0.1318591069
H   H61       1.0  0.21504  0.16911  0.58271  1.0000 0.1318591069
H   H62       1.0  0.16911  0.58271  0.21504  1.0000 0.1318591069
H   H63       1.0  0.58271  0.21504  0.16911  1.0000 0.1318591069
H   H64       1.0  0.28496  0.91729  0.33089  1.0000 0.1318591069
H   H65       1.0  0.33089  0.28496  0.91729  1.0000 0.1318591069
H   H66       1.0  0.91729  0.33089  0.28496  1.0000 0.1318591069
C   C1        1.0  0.70866  0.83606  0.57446  1.0000 0.588424184
C   C2        1.0  0.83606  0.57446  0.70866  1.0000 0.588424184
C   C3        1.0  0.57446  0.70866  0.83606  1.0000 0.588424184
C   C4        1.0  0.79134  0.92554  0.66394  1.0000 0.588424184
C   C5        1.0  0.66394  0.79134  0.92554  1.0000 0.588424184
C   C6        1.0  0.92554  0.66394  0.79134  1.0000 0.588424184
C   C7        1.0  0.29134  0.16394  0.42554  1.0000 0.588424184
C   C8        1.0  0.16394  0.42554  0.29134  1.0000 0.588424184
C   C9        1.0  0.42554  0.29134  0.16394  1.0000 0.588424184
C   C10       1.0  0.20866  0.07446  0.33606  1.0000 0.588424184
C   C11       1.0  0.33606  0.20866  0.07446  1.0000 0.588424184
C   C12       1.0  0.07446  0.33606  0.20866  1.0000 0.588424184
C   C13       1.0  0.50348  0.00098  0.30878  1.0000 0.0362426818
C   C14       1.0  0.00098  0.30878  0.50348  1.0000 0.0362426818
C   C15       1.0  0.30878  0.50348  0.00098  1.0000 0.0362426818
C   C16       1.0  0.99652  0.19122  0.49902  1.0000 0.0362426818
C   C17       1.0  0.49902  0.99652  0.19122  1.0000 0.0362426818
C   C18       1.0  0.19122  0.49902  0.99652  1.0000 0.0362426818
C   C19       1.0  0.49652  0.99902  0.69122  1.0000 0.0362426818
C   C20       1.0  0.99902  0.69122  0.49652  1.0000 0.0362426818
C   C21       1.0  0.69122  0.49652  0.99902  1.0000 0.0362426818
C   C22       1.0  0.00348  0.80878  0.50098  1.0000 0.0362426818
C   C23       1.0  0.50098  0.00348  0.80878  1.0000 0.0362426818
C   C24       1.0  0.80878  0.50098  0.00348  1.0000 0.0362426818
C   C25       1.0  0.57390  0.93070  0.31140  1.0000 0.0345806827
C   C26       1.0  0.93070  0.31140  0.57390  1.0000 0.0345806827
C   C27       1.0  0.31140  0.57390  0.93070  1.0000 0.0345806827
C   C28       1.0  0.92610  0.18860  0.56930  1.0000 0.0345806827
C   C29       1.0  0.56930  0.92610  0.18860  1.0000 0.0345806827
C   C30       1.0  0.18860  0.56930  0.92610  1.0000 0.0345806827
C   C31       1.0  0.42610  0.06930  0.68860  1.0000 0.0345806827
C   C32       1.0  0.06930  0.68860  0.42610  1.0000 0.0345806827
C   C33       1.0  0.68860  0.42610  0.06930  1.0000 0.0345806827
C   C34       1.0  0.07390  0.81140  0.43070  1.0000 0.0345806827
C   C35       1.0  0.43070  0.07390  0.81140  1.0000 0.0345806827
C   C36       1.0  0.81140  0.43070  0.07390  1.0000 0.0345806827
C   C37       1.0  0.67464  0.85553  0.50648  1.0000 -0.0219038489
C   C38       1.0  0.85553  0.50648  0.67464  1.0000 -0.0219038489
C   C39       1.0  0.50648  0.67464  0.85553  1.0000 -0.0219038489
C   C40       1.0  0.82536  0.99352  0.64447  1.0000 -0.0219038489
C   C41       1.0  0.64447  0.82536  0.99352  1.0000 -0.0219038489
C   C42       1.0  0.99352  0.64447  0.82536  1.0000 -0.0219038489
C   C43       1.0  0.32536  0.14447  0.49352  1.0000 -0.0219038489
C   C44       1.0  0.14447  0.49352  0.32536  1.0000 -0.0219038489
C   C45       1.0  0.49352  0.32536  0.14447  1.0000 -0.0219038489
C   C46       1.0  0.17464  0.00648  0.35553  1.0000 -0.0219038489
C   C47       1.0  0.35553  0.17464  0.00648  1.0000 -0.0219038489
C   C48       1.0  0.00648  0.35553  0.17464  1.0000 -0.0219038489
C   C49       1.0  0.60690  0.89310  0.25000  1.0000 -0.1558106858
C   C50       1.0  0.89310  0.25000  0.60690  1.0000 -0.1519277552
C   C51       1.0  0.25000  0.60690  0.89310  1.0000 -0.1519277552
C   C52       1.0  0.39310  0.10690  0.75000  1.0000 -0.1519277552
C   C53       1.0  0.10690  0.75000  0.39310  1.0000 -0.1519277552
C   C54       1.0  0.75000  0.39310  0.10690  1.0000 -0.1519277552
C   C55       1.0  0.60943  0.89863  0.38093  1.0000 0.0736637954
C   C56       1.0  0.89863  0.38093  0.60943  1.0000 0.0736637954
C   C57       1.0  0.38093  0.60943  0.89863  1.0000 0.0736637954
C   C58       1.0  0.89057  0.11907  0.60137  1.0000 0.0736637954
C   C59       1.0  0.60137  0.89057  0.11907  1.0000 0.0736637954
C   C60       1.0  0.11907  0.60137  0.89057  1.0000 0.0736637954
C   C61       1.0  0.39057  0.10137  0.61907  1.0000 0.0736637954
C   C62       1.0  0.10137  0.61907  0.39057  1.0000 0.0736637954
C   C63       1.0  0.61907  0.39057  0.10137  1.0000 0.0736637954
C   C64       1.0  0.10943  0.88093  0.39863  1.0000 0.0736637954
C   C65       1.0  0.39863  0.10943  0.88093  1.0000 0.0736637954
C   C66       1.0  0.88093  0.39863  0.10943  1.0000 0.0736637954
C   C67       1.0  0.58921  0.87981  0.52281  1.0000 -0.1021545139
C   C68       1.0  0.87981  0.52281  0.58921  1.0000 -0.1021545139
C   C69       1.0  0.52281  0.58921  0.87981  1.0000 -0.1021545139
C   C70       1.0  0.91079  0.97719  0.62019  1.0000 -0.1021545139
C   C71       1.0  0.62019  0.91079  0.97719  1.0000 -0.1021545139
C   C72       1.0  0.97719  0.62019  0.91079  1.0000 -0.1021545139
C   C73       1.0  0.41079  0.12019  0.47719  1.0000 -0.1021545139
C   C74       1.0  0.12019  0.47719  0.41079  1.0000 -0.1021545139
C   C75       1.0  0.47719  0.41079  0.12019  1.0000 -0.1021545139
C   C76       1.0  0.08921  0.02281  0.37981  1.0000 -0.1021545139
C   C77       1.0  0.37981  0.08921  0.02281  1.0000 -0.1021545139
C   C78       1.0  0.02281  0.37981  0.08921  1.0000 -0.1021545139
C   C79       1.0  0.55781  0.90181  0.45931  1.0000 -0.1519277552
C   C80       1.0  0.90181  0.45931  0.55781  1.0000 -0.1519277552
C   C81       1.0  0.45931  0.55781  0.90181  1.0000 -0.1519277552
C   C82       1.0  0.94219  0.04069  0.59819  1.0000 -0.1519277552
C   C83       1.0  0.59819  0.94219  0.04069  1.0000 -0.1519277552
C   C84       1.0  0.04069  0.59819  0.94219  1.0000 -0.1519277552
C   C85       1.0  0.44219  0.09819  0.54069  1.0000 -0.1519277552
C   C86       1.0  0.09819  0.54069  0.44219  1.0000 -0.1519277552
C   C87       1.0  0.54069  0.44219  0.09819  1.0000 -0.1519277552
C   C88       1.0  0.05781  0.95931  0.40181  1.0000 -0.1519277552
C   C89       1.0  0.40181  0.05781  0.95931  1.0000 -0.1519277552
C   C90       1.0  0.95931  0.40181  0.05781  1.0000 -0.1519277552
C   C91       1.0  0.69574  0.87204  0.36594  1.0000 -0.1519277552
C   C92       1.0  0.87204  0.36594  0.69574  1.0000 -0.1519277552
C   C93       1.0  0.36594  0.69574  0.87204  1.0000 -0.1519277552
C   C94       1.0  0.80426  0.13406  0.62796  1.0000 -0.1519277552
C   C95       1.0  0.62796  0.80426  0.13406  1.0000 -0.1519277552
C   C96       1.0  0.13406  0.62796  0.80426  1.0000 -0.1519277552
C   C97       1.0  0.30426  0.12796  0.63406  1.0000 -0.1519277552
C   C98       1.0  0.12796  0.63406  0.30426  1.0000 -0.1519277552
C   C99       1.0  0.63406  0.30426  0.12796  1.0000 -0.1519277552
C   C100      1.0  0.19574  0.86594  0.37204  1.0000 -0.1519277552
C   C101      1.0  0.37204  0.19574  0.86594  1.0000 -0.1519277552
C   C102      1.0  0.86594  0.37204  0.19574  1.0000 -0.1519277552
C   C103      1.0  0.72741  0.84991  0.42801  1.0000 -0.1021545139
C   C104      1.0  0.84991  0.42801  0.72741  1.0000 -0.1021545139
C   C105      1.0  0.42801  0.72741  0.84991  1.0000 -0.1021545139
C   C106      1.0  0.77259  0.07199  0.65009  1.0000 -0.1021545139
C   C107      1.0  0.65009  0.77259  0.07199  1.0000 -0.1021545139
C   C108      1.0  0.07199  0.65009  0.77259  1.0000 -0.1021545139
C   C109      1.0  0.27259  0.15009  0.57199  1.0000 -0.1021545139
C   C110      1.0  0.15009  0.57199  0.27259  1.0000 -0.1021545139
C   C111      1.0  0.57199  0.27259  0.15009  1.0000 -0.1021545139
C   C112      1.0  0.22741  0.92801  0.34991  1.0000 -0.1021545139
C   C113      1.0  0.34991  0.22741  0.92801  1.0000 -0.1021545139
C   C114      1.0  0.92801  0.34991  0.22741  1.0000 -0.1021545139
N   N1        1.0  0.46560  0.03440  0.25000  1.0000 -0.235821095
N   N2        1.0  0.03440  0.25000  0.46560  1.0000 -0.235821095
N   N3        1.0  0.25000  0.46560  0.03440  1.0000 -0.235821095
N   N4        1.0  0.53440  0.96560  0.75000  1.0000 -0.235821095
N   N5        1.0  0.96560  0.75000  0.53440  1.0000 -0.235821095
N   N6        1.0  0.75000  0.53440  0.96560  1.0000 -0.235821095
O   O1        1.0  0.75000  0.75000  0.75000  1.0000 -0.8042061198
O   O2        1.0  0.25000  0.25000  0.25000  1.0000 -0.8042061198
O   O3        1.0  0.78352  0.79928  0.56521  1.0000 -0.51838875
O   O4        1.0  0.79928  0.56521  0.78352  1.0000 -0.51838875
O   O5        1.0  0.56521  0.78352  0.79928  1.0000 -0.51838875
O   O6        1.0  0.71648  0.93479  0.70072  1.0000 -0.51838875
O   O7        1.0  0.70072  0.71648  0.93479  1.0000 -0.51838875
O   O8        1.0  0.93479  0.70072  0.71648  1.0000 -0.51838875
O   O9        1.0  0.21648  0.20072  0.43479  1.0000 -0.51838875
O   O10       1.0  0.20072  0.43479  0.21648  1.0000 -0.51838875
O   O11       1.0  0.43479  0.21648  0.20072  1.0000 -0.51838875
O   O12       1.0  0.28352  0.06521  0.29928  1.0000 -0.51838875
O   O13       1.0  0.29928  0.28352  0.06521  1.0000 -0.51838875
O   O14       1.0  0.06521  0.29928  0.28352  1.0000 -0.51838875
O   O15       1.0  0.65490  0.86264  0.63533  1.0000 -0.5494631398
O   O16       1.0  0.86264  0.63533  0.65490  1.0000 -0.5494631398
O   O17       1.0  0.63533  0.65490  0.86264  1.0000 -0.5494631398
O   O18       1.0  0.84510  0.86467  0.63736  1.0000 -0.5494631398
O   O19       1.0  0.63736  0.84510  0.86467  1.0000 -0.5494631398
O   O20       1.0  0.86467  0.63736  0.84510  1.0000 -0.5494631398
O   O21       1.0  0.34510  0.13736  0.36467  1.0000 -0.5494631398
O   O22       1.0  0.13736  0.36467  0.34510  1.0000 -0.5494631398
O   O23       1.0  0.36467  0.34510  0.13736  1.0000 -0.5494631398
O   O24       1.0  0.15490  0.13533  0.36264  1.0000 -0.5494631398
O   O25       1.0  0.36264  0.15490  0.13533  1.0000 -0.5494631398
O   O26       1.0  0.13533  0.36264  0.15490  1.0000 -0.5494631398
