# DDEC6 charges by PACMAN v1.1 (https://github.com/mtap-research/PACMAN-charge/)
data_2023[Mg][bpq]3[ASR]2
_chemical_formula_sum              "Mg12 H96 C144 O60"
_cell_length_a       13.7771
_cell_length_b       16.6406
_cell_length_c       21.524
_cell_angle_alpha    90
_cell_angle_beta     90
_cell_angle_gamma    90

_symmetry_space_group_name_H-M    "P 1"
_symmetry_Int_Tables_number       1

loop_
  _symmetry_equiv_pos_as_xyz
  'x, y, z'

loop_
  _atom_site_type_symbol
  _atom_site_label
  _atom_site_symmetry_multiplicity
  _atom_site_fract_x
  _atom_site_fract_y
  _atom_site_fract_z
  _atom_site_occupancy
  _atom_site_charge
Mg  Mg1       1.0  0.49950  0.50166  0.16426  1.0000 1.3403113348
Mg  Mg2       1.0  0.50050  0.49834  0.66426  1.0000 1.3403113348
Mg  Mg3       1.0  0.00050  0.00166  0.16426  1.0000 1.3403113348
Mg  Mg4       1.0  0.99950  0.99834  0.66426  1.0000 1.3403113348
Mg  Mg5       1.0  0.50252  0.50323  0.33033  1.0000 1.3403113348
Mg  Mg6       1.0  0.49748  0.49677  0.83033  1.0000 1.3403113348
Mg  Mg7       1.0  0.99748  0.00323  0.33033  1.0000 1.3403113348
Mg  Mg8       1.0  0.00252  0.99677  0.83033  1.0000 1.3403113348
Mg  Mg9       1.0  0.49794  0.50264  0.49682  1.0000 1.3403113348
Mg  Mg10      1.0  0.50206  0.49736  0.99682  1.0000 1.3403113348
Mg  Mg11      1.0  0.00206  0.00264  0.49682  1.0000 1.3403113348
Mg  Mg12      1.0  0.99794  0.99736  0.99682  1.0000 1.3403113348
H   H1        1.0  0.63300  0.52300  0.24500  1.0000 0.3775348527
H   H2        1.0  0.36700  0.47700  0.74500  1.0000 0.3775348527
H   H3        1.0  0.86700  0.02300  0.24500  1.0000 0.3775348527
H   H4        1.0  0.13300  0.97700  0.74500  1.0000 0.3775348527
H   H5        1.0  0.59600  0.44530  0.25200  1.0000 0.369380073
H   H6        1.0  0.40400  0.55470  0.75200  1.0000 0.369380073
H   H7        1.0  0.90400  0.94530  0.25200  1.0000 0.369380073
H   H8        1.0  0.09600  0.05470  0.75200  1.0000 0.369380073
H   H9        1.0  0.40800  0.44600  0.41400  1.0000 0.3601207076
H   H10       1.0  0.59200  0.55400  0.91400  1.0000 0.3601207076
H   H11       1.0  0.09200  0.94600  0.41400  1.0000 0.3601207076
H   H12       1.0  0.90800  0.05400  0.91400  1.0000 0.3601207076
H   H13       1.0  0.36510  0.52100  0.41200  1.0000 0.369380073
H   H14       1.0  0.63490  0.47900  0.91200  1.0000 0.369380073
H   H15       1.0  0.13490  0.02100  0.41200  1.0000 0.369380073
H   H16       1.0  0.86510  0.97900  0.91200  1.0000 0.369380073
H   H17       1.0  0.63460  0.51400  0.57700  1.0000 0.369380073
H   H18       1.0  0.36540  0.48600  0.07700  1.0000 0.369380073
H   H19       1.0  0.86540  0.01400  0.57700  1.0000 0.369380073
H   H20       1.0  0.13460  0.98600  0.07700  1.0000 0.369380073
H   H21       1.0  0.58500  0.44140  0.58100  1.0000 0.3537571369
H   H22       1.0  0.41500  0.55860  0.08100  1.0000 0.3537571369
H   H23       1.0  0.91500  0.94140  0.58100  1.0000 0.3537571369
H   H24       1.0  0.08500  0.05860  0.08100  1.0000 0.3537571369
H   H25       1.0  0.25834  0.33647  0.33139  1.0000 0.1198918119
H   H26       1.0  0.74166  0.66353  0.83139  1.0000 0.1198918119
H   H27       1.0  0.24166  0.83647  0.33139  1.0000 0.1198918119
H   H28       1.0  0.75834  0.16353  0.83139  1.0000 0.1198918119
H   H29       1.0  0.14900  0.22779  0.33062  1.0000 0.1198918119
H   H30       1.0  0.85100  0.77221  0.83062  1.0000 0.1198918119
H   H31       1.0  0.35100  0.72779  0.33062  1.0000 0.1198918119
H   H32       1.0  0.64900  0.27221  0.83062  1.0000 0.1198918119
H   H33       1.0  0.22502  0.08984  0.14854  1.0000 0.1198918119
H   H34       1.0  0.77498  0.91016  0.64854  1.0000 0.1198918119
H   H35       1.0  0.27498  0.58984  0.14854  1.0000 0.1198918119
H   H36       1.0  0.72502  0.41016  0.64854  1.0000 0.1198918119
H   H37       1.0  0.32602  0.11293  0.06490  1.0000 0.1112603081
H   H38       1.0  0.67398  0.88707  0.56490  1.0000 0.1112603081
H   H39       1.0  0.17398  0.61293  0.06490  1.0000 0.1112603081
H   H40       1.0  0.82602  0.38707  0.56490  1.0000 0.1112603081
H   H41       1.0  0.42203  0.23091  0.06104  1.0000 0.1112603081
H   H42       1.0  0.57797  0.76909  0.56104  1.0000 0.1112603081
H   H43       1.0  0.07797  0.73091  0.06104  1.0000 0.1112603081
H   H44       1.0  0.92203  0.26909  0.56104  1.0000 0.1112603081
H   H45       1.0  0.42270  0.31877  0.14306  1.0000 0.1290498948
H   H46       1.0  0.57730  0.68123  0.64306  1.0000 0.1290498948
H   H47       1.0  0.07730  0.81877  0.14306  1.0000 0.1290498948
H   H48       1.0  0.92270  0.18123  0.64306  1.0000 0.1290498948
H   H49       1.0  0.73303  0.67557  0.49730  1.0000 0.1198918119
H   H50       1.0  0.26697  0.32443  0.99730  1.0000 0.1198918119
H   H51       1.0  0.76697  0.17557  0.49730  1.0000 0.1198918119
H   H52       1.0  0.23303  0.82443  0.99730  1.0000 0.1198918119
H   H53       1.0  0.84317  0.78340  0.49429  1.0000 0.1198918119
H   H54       1.0  0.15683  0.21660  0.99429  1.0000 0.1198918119
H   H55       1.0  0.65683  0.28340  0.49429  1.0000 0.1198918119
H   H56       1.0  0.34317  0.71660  0.99429  1.0000 0.1198918119
H   H57       1.0  0.74379  0.93519  0.32370  1.0000 0.1198918119
H   H58       1.0  0.25621  0.06481  0.82370  1.0000 0.1198918119
H   H59       1.0  0.75621  0.43519  0.32370  1.0000 0.1198918119
H   H60       1.0  0.24379  0.56481  0.82370  1.0000 0.1198918119
H   H61       1.0  0.61831  0.92553  0.25324  1.0000 0.1112603081
H   H62       1.0  0.38169  0.07447  0.75324  1.0000 0.1112603081
H   H63       1.0  0.88169  0.42553  0.25324  1.0000 0.1112603081
H   H64       1.0  0.11831  0.57447  0.75324  1.0000 0.1112603081
H   H65       1.0  0.51573  0.81216  0.25220  1.0000 0.1112603081
H   H66       1.0  0.48427  0.18784  0.75220  1.0000 0.1112603081
H   H67       1.0  0.98427  0.31216  0.25220  1.0000 0.1112603081
H   H68       1.0  0.01573  0.68784  0.75220  1.0000 0.1112603081
H   H69       1.0  0.54180  0.70788  0.32131  1.0000 0.1290498948
H   H70       1.0  0.45820  0.29212  0.82131  1.0000 0.1290498948
H   H71       1.0  0.95820  0.20788  0.32131  1.0000 0.1290498948
H   H72       1.0  0.04180  0.79212  0.82131  1.0000 0.1290498948
H   H73       1.0  0.35695  0.27344  0.65751  1.0000 0.1198918119
H   H74       1.0  0.64305  0.72656  0.15751  1.0000 0.1198918119
H   H75       1.0  0.14305  0.77344  0.65751  1.0000 0.1198918119
H   H76       1.0  0.85695  0.22656  0.15751  1.0000 0.1198918119
H   H77       1.0  0.24819  0.16381  0.65967  1.0000 0.1198918119
H   H78       1.0  0.75181  0.83619  0.15967  1.0000 0.1198918119
H   H79       1.0  0.25181  0.66381  0.65967  1.0000 0.1198918119
H   H80       1.0  0.74819  0.33619  0.15967  1.0000 0.1198918119
H   H81       1.0  0.04362  0.20620  0.48980  1.0000 0.1198918119
H   H82       1.0  0.95638  0.79380  0.98980  1.0000 0.1198918119
H   H83       1.0  0.45638  0.70620  0.48980  1.0000 0.1198918119
H   H84       1.0  0.54362  0.29380  0.98980  1.0000 0.1198918119
H   H85       1.0  0.01830  0.31127  0.42148  1.0000 0.1045097125
H   H86       1.0  0.98170  0.68873  0.92148  1.0000 0.1045097125
H   H87       1.0  0.48170  0.81127  0.42148  1.0000 0.1045097125
H   H88       1.0  0.51830  0.18873  0.92148  1.0000 0.1045097125
H   H89       1.0  0.12333  0.42364  0.42199  1.0000 0.1112603081
H   H90       1.0  0.87667  0.57636  0.92199  1.0000 0.1112603081
H   H91       1.0  0.37667  0.92364  0.42199  1.0000 0.1112603081
H   H92       1.0  0.62333  0.07636  0.92199  1.0000 0.1112603081
H   H93       1.0  0.25318  0.42847  0.48992  1.0000 0.1198918119
H   H94       1.0  0.74682  0.57153  0.98992  1.0000 0.1198918119
H   H95       1.0  0.24682  0.92847  0.48992  1.0000 0.1198918119
H   H96       1.0  0.75318  0.07153  0.98992  1.0000 0.1198918119
C   C1        1.0  0.37920  0.39140  0.24900  1.0000 0.6327972503
C   C2        1.0  0.62080  0.60860  0.74900  1.0000 0.6327972503
C   C3        1.0  0.12080  0.89140  0.24900  1.0000 0.6327972503
C   C4        1.0  0.87920  0.10860  0.74900  1.0000 0.6327972503
C   C5        1.0  0.31440  0.31760  0.24750  1.0000 -0.0547996374
C   C6        1.0  0.68560  0.68240  0.74750  1.0000 -0.0547996374
C   C7        1.0  0.18560  0.81760  0.24750  1.0000 -0.0598784729
C   C8        1.0  0.81440  0.18240  0.74750  1.0000 -0.0547996374
C   C9        1.0  0.25590  0.30230  0.29610  1.0000 -0.110381506
C   C10       1.0  0.74410  0.69770  0.79610  1.0000 -0.110381506
C   C11       1.0  0.24410  0.80230  0.29610  1.0000 -0.110381506
C   C12       1.0  0.75590  0.19770  0.79610  1.0000 -0.110381506
C   C13       1.0  0.19050  0.23610  0.29600  1.0000 -0.110381506
C   C14       1.0  0.80950  0.76390  0.79600  1.0000 -0.110381506
C   C15       1.0  0.30950  0.73610  0.29600  1.0000 -0.110381506
C   C16       1.0  0.69050  0.26390  0.79600  1.0000 -0.110381506
C   C17       1.0  0.18670  0.18490  0.24720  1.0000 -0.0598784729
C   C18       1.0  0.81330  0.81510  0.74720  1.0000 -0.0678016928
C   C19       1.0  0.31330  0.68490  0.24720  1.0000 -0.0598784729
C   C20       1.0  0.68670  0.31510  0.74720  1.0000 -0.0678016928
C   C21       1.0  0.25410  0.19430  0.19710  1.0000 0.0690760029
C   C22       1.0  0.74590  0.80570  0.69710  1.0000 0.0690760029
C   C23       1.0  0.24590  0.69430  0.19710  1.0000 0.0690760029
C   C24       1.0  0.75410  0.30570  0.69710  1.0000 0.0690760029
C   C25       1.0  0.26250  0.13770  0.14730  1.0000 -0.1483459137
C   C26       1.0  0.73750  0.86230  0.64730  1.0000 -0.1483459137
C   C27       1.0  0.23750  0.63770  0.14730  1.0000 -0.1483459137
C   C28       1.0  0.76250  0.36230  0.64730  1.0000 -0.1483459137
C   C29       1.0  0.32320  0.15080  0.09790  1.0000 -0.0995988908
C   C30       1.0  0.67680  0.84920  0.59790  1.0000 -0.0995988908
C   C31       1.0  0.17680  0.65080  0.09790  1.0000 -0.0995988908
C   C32       1.0  0.82320  0.34920  0.59790  1.0000 -0.0995988908
C   C33       1.0  0.38180  0.22090  0.09610  1.0000 -0.0868825788
C   C34       1.0  0.61820  0.77910  0.59610  1.0000 -0.0868825788
C   C35       1.0  0.11820  0.72090  0.09610  1.0000 -0.0868825788
C   C36       1.0  0.88180  0.27910  0.59610  1.0000 -0.0868825788
C   C37       1.0  0.38070  0.27350  0.14400  1.0000 -0.1304327512
C   C38       1.0  0.61930  0.72650  0.64400  1.0000 -0.1304327512
C   C39       1.0  0.11930  0.77350  0.14400  1.0000 -0.1304327512
C   C40       1.0  0.88070  0.22650  0.64400  1.0000 -0.1304327512
C   C41       1.0  0.31790  0.26250  0.19580  1.0000 0.0604853615
C   C42       1.0  0.68210  0.73750  0.69580  1.0000 0.0604853615
C   C43       1.0  0.18210  0.76250  0.19580  1.0000 0.0604853615
C   C44       1.0  0.81790  0.23750  0.69580  1.0000 0.0604853615
C   C45       1.0  0.11010  0.11920  0.24650  1.0000 0.6327972503
C   C46       1.0  0.88990  0.88080  0.74650  1.0000 0.6353849632
C   C47       1.0  0.38990  0.61920  0.24650  1.0000 0.6353849632
C   C48       1.0  0.61010  0.38080  0.74650  1.0000 0.6353849632
C   C49       1.0  0.60770  0.62200  0.41600  1.0000 0.6327972503
C   C50       1.0  0.39230  0.37800  0.91600  1.0000 0.6327972503
C   C51       1.0  0.89230  0.12200  0.41600  1.0000 0.6327972503
C   C52       1.0  0.10770  0.87800  0.91600  1.0000 0.6327972503
C   C53       1.0  0.66840  0.69860  0.41600  1.0000 -0.0598784729
C   C54       1.0  0.33160  0.30140  0.91600  1.0000 -0.0598784729
C   C55       1.0  0.83160  0.19860  0.41600  1.0000 -0.0598784729
C   C56       1.0  0.16840  0.80140  0.91600  1.0000 -0.0598784729
C   C57       1.0  0.73220  0.71130  0.46290  1.0000 -0.110381506
C   C58       1.0  0.26780  0.28870  0.96290  1.0000 -0.110381506
C   C59       1.0  0.76780  0.21130  0.46290  1.0000 -0.110381506
C   C60       1.0  0.23220  0.78870  0.96290  1.0000 -0.110381506
C   C61       1.0  0.79750  0.77700  0.46160  1.0000 -0.110381506
C   C62       1.0  0.20250  0.22300  0.96160  1.0000 -0.110381506
C   C63       1.0  0.70250  0.27700  0.46160  1.0000 -0.110381506
C   C64       1.0  0.29750  0.72300  0.96160  1.0000 -0.110381506
C   C65       1.0  0.79570  0.83110  0.41410  1.0000 -0.0678016928
C   C66       1.0  0.20430  0.16890  0.91410  1.0000 -0.0678016928
C   C67       1.0  0.70430  0.33110  0.41410  1.0000 -0.0678016928
C   C68       1.0  0.29570  0.66890  0.91410  1.0000 -0.0678016928
C   C69       1.0  0.72090  0.82650  0.36850  1.0000 0.0690760029
C   C70       1.0  0.27910  0.17350  0.86850  1.0000 0.0690760029
C   C71       1.0  0.77910  0.32650  0.36850  1.0000 0.0690760029
C   C72       1.0  0.22090  0.67350  0.86850  1.0000 0.0690760029
C   C73       1.0  0.70320  0.88900  0.32400  1.0000 -0.1483459137
C   C74       1.0  0.29680  0.11100  0.82400  1.0000 -0.1483459137
C   C75       1.0  0.79680  0.38900  0.32400  1.0000 -0.1483459137
C   C76       1.0  0.20320  0.61100  0.82400  1.0000 -0.1483459137
C   C77       1.0  0.62880  0.88330  0.28220  1.0000 -0.0995988908
C   C78       1.0  0.37120  0.11670  0.78220  1.0000 -0.0995988908
C   C79       1.0  0.87120  0.38330  0.28220  1.0000 -0.0995988908
C   C80       1.0  0.12880  0.61670  0.78220  1.0000 -0.0995988908
C   C81       1.0  0.56730  0.81540  0.28140  1.0000 -0.0995988908
C   C82       1.0  0.43270  0.18460  0.78140  1.0000 -0.0995988908
C   C83       1.0  0.93270  0.31540  0.28140  1.0000 -0.0995988908
C   C84       1.0  0.06730  0.68460  0.78140  1.0000 -0.0995988908
C   C85       1.0  0.58230  0.75410  0.32280  1.0000 -0.135217725
C   C86       1.0  0.41770  0.24590  0.82280  1.0000 -0.135217725
C   C87       1.0  0.91770  0.25410  0.32280  1.0000 -0.1304327512
C   C88       1.0  0.08230  0.74590  0.82280  1.0000 -0.1304327512
C   C89       1.0  0.65700  0.75840  0.36780  1.0000 0.0604853615
C   C90       1.0  0.34300  0.24160  0.86780  1.0000 0.0604853615
C   C91       1.0  0.84300  0.25840  0.36780  1.0000 0.0604853615
C   C92       1.0  0.15700  0.74160  0.86780  1.0000 0.0604853615
C   C93       1.0  0.87520  0.89406  0.41250  1.0000 0.6327972503
C   C94       1.0  0.12480  0.10594  0.91250  1.0000 0.6327972503
C   C95       1.0  0.62480  0.39406  0.41250  1.0000 0.6327972503
C   C96       1.0  0.37520  0.60594  0.91250  1.0000 0.6327972503
C   C97       1.0  0.37970  0.38960  0.57730  1.0000 0.6327972503
C   C98       1.0  0.62030  0.61040  0.07730  1.0000 0.6327972503
C   C99       1.0  0.12030  0.88960  0.57730  1.0000 0.6327972503
C   C100      1.0  0.87970  0.11040  0.07730  1.0000 0.6327972503
C   C101      1.0  0.30260  0.32490  0.57960  1.0000 -0.0598784729
C   C102      1.0  0.69740  0.67510  0.07960  1.0000 -0.0598784729
C   C103      1.0  0.19740  0.82490  0.57960  1.0000 -0.0598784729
C   C104      1.0  0.80260  0.17510  0.07960  1.0000 -0.0598784729
C   C105      1.0  0.30890  0.26830  0.62610  1.0000 -0.1203528449
C   C106      1.0  0.69110  0.73170  0.12610  1.0000 -0.1203528449
C   C107      1.0  0.19110  0.76830  0.62610  1.0000 -0.1203528449
C   C108      1.0  0.80890  0.23170  0.12610  1.0000 -0.1203528449
C   C109      1.0  0.24370  0.20230  0.62720  1.0000 -0.1203528449
C   C110      1.0  0.75630  0.79770  0.12720  1.0000 -0.1203528449
C   C111      1.0  0.25630  0.70230  0.62720  1.0000 -0.1304327512
C   C112      1.0  0.74370  0.29770  0.12720  1.0000 -0.1203528449
C   C113      1.0  0.17420  0.19330  0.58190  1.0000 -0.0598784729
C   C114      1.0  0.82580  0.80670  0.08190  1.0000 -0.0598784729
C   C115      1.0  0.32580  0.69330  0.58190  1.0000 -0.0598784729
C   C116      1.0  0.67420  0.30670  0.08190  1.0000 -0.0598784729
C   C117      1.0  0.16210  0.25360  0.53480  1.0000 0.0604853615
C   C118      1.0  0.83790  0.74640  0.03480  1.0000 0.0604853615
C   C119      1.0  0.33790  0.75360  0.53480  1.0000 0.0604853615
C   C120      1.0  0.66210  0.24640  0.03480  1.0000 0.0604853615
C   C121      1.0  0.08560  0.25150  0.49090  1.0000 -0.135217725
C   C122      1.0  0.91440  0.74850  0.99090  1.0000 -0.1304327512
C   C123      1.0  0.41440  0.75150  0.49090  1.0000 -0.1304327512
C   C124      1.0  0.58560  0.24850  0.99090  1.0000 -0.1304327512
C   C125      1.0  0.07090  0.31340  0.45000  1.0000 -0.0995988908
C   C126      1.0  0.92910  0.68660  0.95000  1.0000 -0.0995988908
C   C127      1.0  0.42910  0.81340  0.45000  1.0000 -0.0995988908
C   C128      1.0  0.57090  0.18660  0.95000  1.0000 -0.0995988908
C   C129      1.0  0.13400  0.38060  0.45010  1.0000 -0.0995988908
C   C130      1.0  0.86600  0.61940  0.95010  1.0000 -0.0995988908
C   C131      1.0  0.36600  0.88060  0.45010  1.0000 -0.0995988908
C   C132      1.0  0.63400  0.11940  0.95010  1.0000 -0.0995988908
C   C133      1.0  0.21060  0.38360  0.49090  1.0000 -0.1483459137
C   C134      1.0  0.78940  0.61640  0.99090  1.0000 -0.1483459137
C   C135      1.0  0.28940  0.88360  0.49090  1.0000 -0.1483459137
C   C136      1.0  0.71060  0.11640  0.99090  1.0000 -0.1483459137
C   C137      1.0  0.22740  0.32090  0.53450  1.0000 0.0604853615
C   C138      1.0  0.77260  0.67910  0.03450  1.0000 0.0604853615
C   C139      1.0  0.27260  0.82090  0.53450  1.0000 0.0604853615
C   C140      1.0  0.72740  0.17910  0.03450  1.0000 0.0604853615
C   C141      1.0  0.11120  0.11830  0.58340  1.0000 0.6327972503
C   C142      1.0  0.88880  0.88170  0.08340  1.0000 0.6327972503
C   C143      1.0  0.38880  0.61830  0.58340  1.0000 0.6327972503
C   C144      1.0  0.61120  0.38170  0.08340  1.0000 0.6327972503
O   O1        1.0  0.39670  0.42642  0.19902  1.0000 -0.6425522106
O   O2        1.0  0.60330  0.57358  0.69902  1.0000 -0.6425522106
O   O3        1.0  0.10330  0.92642  0.19902  1.0000 -0.6425522106
O   O4        1.0  0.89670  0.07358  0.69902  1.0000 -0.6425522106
O   O5        1.0  0.41010  0.41247  0.30156  1.0000 -0.6620776164
O   O6        1.0  0.58990  0.58753  0.80156  1.0000 -0.6620776164
O   O7        1.0  0.08990  0.91247  0.30156  1.0000 -0.6620776164
O   O8        1.0  0.91010  0.08753  0.80156  1.0000 -0.6620776164
O   O9        1.0  0.07590  0.09890  0.19508  1.0000 -0.6482017922
O   O10       1.0  0.92410  0.90110  0.69508  1.0000 -0.6482017922
O   O11       1.0  0.42410  0.59890  0.19508  1.0000 -0.6482017922
O   O12       1.0  0.57590  0.40110  0.69508  1.0000 -0.6482017922
O   O13       1.0  0.08490  0.09243  0.29890  1.0000 -0.6620776164
O   O14       1.0  0.91510  0.90757  0.79890  1.0000 -0.6620776164
O   O15       1.0  0.41510  0.59243  0.29890  1.0000 -0.6620776164
O   O16       1.0  0.58490  0.40757  0.79890  1.0000 -0.6620776164
O   O17       1.0  0.59290  0.58842  0.36508  1.0000 -0.6482017922
O   O18       1.0  0.40710  0.41158  0.86508  1.0000 -0.6482017922
O   O19       1.0  0.90710  0.08842  0.36508  1.0000 -0.6482017922
O   O20       1.0  0.09290  0.91158  0.86508  1.0000 -0.6482017922
O   O21       1.0  0.57980  0.59751  0.46829  1.0000 -0.6620776164
O   O22       1.0  0.42020  0.40249  0.96829  1.0000 -0.6620776164
O   O23       1.0  0.92020  0.09751  0.46829  1.0000 -0.6620776164
O   O24       1.0  0.07980  0.90249  0.96829  1.0000 -0.6620776164
O   O25       1.0  0.90700  0.91389  0.36035  1.0000 -0.6482017922
O   O26       1.0  0.09300  0.08611  0.86035  1.0000 -0.6482017922
O   O27       1.0  0.59300  0.41389  0.36035  1.0000 -0.6482017922
O   O28       1.0  0.40700  0.58611  0.86035  1.0000 -0.6482017922
O   O29       1.0  0.90370  0.91995  0.46408  1.0000 -0.6482017922
O   O30       1.0  0.09630  0.08005  0.96408  1.0000 -0.6482017922
O   O31       1.0  0.59630  0.41995  0.46408  1.0000 -0.6482017922
O   O32       1.0  0.40370  0.58005  0.96408  1.0000 -0.6482017922
O   O33       1.0  0.41490  0.40739  0.52554  1.0000 -0.6482017922
O   O34       1.0  0.58510  0.59261  0.02554  1.0000 -0.6482017922
O   O35       1.0  0.08510  0.90739  0.52554  1.0000 -0.6482017922
O   O36       1.0  0.91490  0.09261  0.02554  1.0000 -0.6482017922
O   O37       1.0  0.40500  0.41891  0.62851  1.0000 -0.6620776164
O   O38       1.0  0.59500  0.58109  0.12851  1.0000 -0.6620776164
O   O39       1.0  0.09500  0.91891  0.62851  1.0000 -0.6620776164
O   O40       1.0  0.90500  0.08109  0.12851  1.0000 -0.6620776164
O   O41       1.0  0.09720  0.08310  0.53274  1.0000 -0.6482017922
O   O42       1.0  0.90280  0.91690  0.03274  1.0000 -0.6482017922
O   O43       1.0  0.40280  0.58310  0.53274  1.0000 -0.6482017922
O   O44       1.0  0.59720  0.41690  0.03274  1.0000 -0.6482017922
O   O45       1.0  0.08010  0.09645  0.63578  1.0000 -0.6620776164
O   O46       1.0  0.91990  0.90355  0.13578  1.0000 -0.6620776164
O   O47       1.0  0.41990  0.59645  0.63578  1.0000 -0.6620776164
O   O48       1.0  0.58010  0.40355  0.13578  1.0000 -0.6620776164
O   O49       1.0  0.58490  0.49342  0.24665  1.0000 -0.7371937173
O   O50       1.0  0.41510  0.50658  0.74665  1.0000 -0.7371937173
O   O51       1.0  0.91510  0.99342  0.24665  1.0000 -0.7371937173
O   O52       1.0  0.08490  0.00658  0.74665  1.0000 -0.7371937173
O   O53       1.0  0.41604  0.49473  0.41325  1.0000 -0.7304445343
O   O54       1.0  0.58396  0.50527  0.91325  1.0000 -0.7304445343
O   O55       1.0  0.08396  0.99473  0.41325  1.0000 -0.7304445343
O   O56       1.0  0.91604  0.00527  0.91325  1.0000 -0.7304445343
O   O57       1.0  0.58258  0.49062  0.58007  1.0000 -0.7304445343
O   O58       1.0  0.41742  0.50938  0.08007  1.0000 -0.7304445343
O   O59       1.0  0.91742  0.99062  0.58007  1.0000 -0.7304445343
O   O60       1.0  0.08258  0.00938  0.08007  1.0000 -0.7304445343
