# DDEC6 charges by PACMAN v1.1 (https://github.com/mtap-research/PACMAN-charge/)
data_2023[Fe][xmz]3[ASR]5
_chemical_formula_sum              "Fe6 H66 C114 N6 O26"
_cell_length_a       18.8939
_cell_length_b       18.8939
_cell_length_c       18.8939
_cell_angle_alpha    62.8846
_cell_angle_beta     62.8846
_cell_angle_gamma    62.8846

_symmetry_space_group_name_H-M    "P 1"
_symmetry_Int_Tables_number       1

loop_
  _symmetry_equiv_pos_as_xyz
  'x, y, z'

loop_
  _atom_site_type_symbol
  _atom_site_label
  _atom_site_symmetry_multiplicity
  _atom_site_fract_x
  _atom_site_fract_y
  _atom_site_fract_z
  _atom_site_occupancy
  _atom_site_charge
Fe  Fe1       1.0  0.35466  0.14534  0.25000  1.0000 1.1095151873
Fe  Fe2       1.0  0.14534  0.25000  0.35466  1.0000 1.1095151873
Fe  Fe3       1.0  0.25000  0.35466  0.14534  1.0000 1.1095151873
Fe  Fe4       1.0  0.64534  0.85466  0.75000  1.0000 1.1095151873
Fe  Fe5       1.0  0.85466  0.75000  0.64534  1.0000 1.1095151873
Fe  Fe6       1.0  0.75000  0.64534  0.85466  1.0000 1.1095151873
H   H1        1.0  0.52723  0.98060  0.85028  1.0000 0.1006934764
H   H2        1.0  0.98060  0.85028  0.52723  1.0000 0.1006934764
H   H3        1.0  0.85028  0.52723  0.98060  1.0000 0.1006934764
H   H4        1.0  0.97277  0.64972  0.51940  1.0000 0.1006934764
H   H5        1.0  0.51940  0.97277  0.64972  1.0000 0.1006934764
H   H6        1.0  0.64972  0.51940  0.97277  1.0000 0.1006934764
H   H7        1.0  0.47277  0.01940  0.14972  1.0000 0.1006934764
H   H8        1.0  0.01940  0.14972  0.47277  1.0000 0.1006934764
H   H9        1.0  0.14972  0.47277  0.01940  1.0000 0.1006934764
H   H10       1.0  0.02723  0.35028  0.48060  1.0000 0.1006934764
H   H11       1.0  0.48060  0.02723  0.35028  1.0000 0.1006934764
H   H12       1.0  0.35028  0.48060  0.02723  1.0000 0.1006934764
H   H13       1.0  0.34502  0.15498  0.75000  1.0000 0.1203849363
H   H14       1.0  0.15498  0.75000  0.34502  1.0000 0.1203849363
H   H15       1.0  0.75000  0.34502  0.15498  1.0000 0.1203849363
H   H16       1.0  0.65498  0.84502  0.25000  1.0000 0.1203849363
H   H17       1.0  0.84502  0.25000  0.65498  1.0000 0.1203849363
H   H18       1.0  0.25000  0.65498  0.84502  1.0000 0.1203849363
H   H19       1.0  0.38228  0.05147  0.07677  1.0000 0.1203849363
H   H20       1.0  0.05147  0.07677  0.38228  1.0000 0.1203849363
H   H21       1.0  0.07677  0.38228  0.05147  1.0000 0.1203849363
H   H22       1.0  0.11772  0.42323  0.44853  1.0000 0.1203849363
H   H23       1.0  0.44853  0.11772  0.42323  1.0000 0.1203849363
H   H24       1.0  0.42323  0.44853  0.11772  1.0000 0.1203849363
H   H25       1.0  0.61772  0.94853  0.92323  1.0000 0.1203849363
H   H26       1.0  0.94853  0.92323  0.61772  1.0000 0.1203849363
H   H27       1.0  0.92323  0.61772  0.94853  1.0000 0.1203849363
H   H28       1.0  0.88228  0.57677  0.55147  1.0000 0.1203849363
H   H29       1.0  0.55147  0.88228  0.57677  1.0000 0.1203849363
H   H30       1.0  0.57677  0.55147  0.88228  1.0000 0.1203849363
H   H31       1.0  0.41965  0.99839  0.97097  1.0000 0.1203849363
H   H32       1.0  0.99839  0.97097  0.41965  1.0000 0.1203849363
H   H33       1.0  0.97097  0.41965  0.99839  1.0000 0.1203849363
H   H34       1.0  0.08035  0.52903  0.50161  1.0000 0.1203849363
H   H35       1.0  0.50161  0.08035  0.52903  1.0000 0.1203849363
H   H36       1.0  0.52903  0.50161  0.08035  1.0000 0.1203849363
H   H37       1.0  0.58035  0.00161  0.02903  1.0000 0.1203849363
H   H38       1.0  0.00161  0.02903  0.58035  1.0000 0.1203849363
H   H39       1.0  0.02903  0.58035  0.00161  1.0000 0.1203849363
H   H40       1.0  0.91965  0.47097  0.49839  1.0000 0.1203849363
H   H41       1.0  0.49839  0.91965  0.47097  1.0000 0.1203849363
H   H42       1.0  0.47097  0.49839  0.91965  1.0000 0.1203849363
H   H43       1.0  0.32965  0.28704  0.91756  1.0000 0.130315604
H   H44       1.0  0.28704  0.91756  0.32965  1.0000 0.130315604
H   H45       1.0  0.91756  0.32965  0.28704  1.0000 0.130315604
H   H46       1.0  0.17035  0.58244  0.21296  1.0000 0.130315604
H   H47       1.0  0.21296  0.17035  0.58244  1.0000 0.130315604
H   H48       1.0  0.58244  0.21296  0.17035  1.0000 0.130315604
H   H49       1.0  0.67035  0.71296  0.08244  1.0000 0.130315604
H   H50       1.0  0.71296  0.08244  0.67035  1.0000 0.130315604
H   H51       1.0  0.08244  0.67035  0.71296  1.0000 0.130315604
H   H52       1.0  0.82965  0.41756  0.78704  1.0000 0.130315604
H   H53       1.0  0.78704  0.82965  0.41756  1.0000 0.130315604
H   H54       1.0  0.41756  0.78704  0.82965  1.0000 0.130315604
H   H55       1.0  0.36881  0.23363  0.81099  1.0000 0.1148516297
H   H56       1.0  0.23363  0.81099  0.36881  1.0000 0.1148516297
H   H57       1.0  0.81099  0.36881  0.23363  1.0000 0.1148516297
H   H58       1.0  0.13119  0.68901  0.26637  1.0000 0.1148516297
H   H59       1.0  0.26637  0.13119  0.68901  1.0000 0.1148516297
H   H60       1.0  0.68901  0.26637  0.13119  1.0000 0.1148516297
H   H61       1.0  0.63119  0.76637  0.18901  1.0000 0.1148516297
H   H62       1.0  0.76637  0.18901  0.63119  1.0000 0.1148516297
H   H63       1.0  0.18901  0.63119  0.76637  1.0000 0.1148516297
H   H64       1.0  0.86881  0.31099  0.73363  1.0000 0.1148516297
H   H65       1.0  0.73363  0.86881  0.31099  1.0000 0.1148516297
H   H66       1.0  0.31099  0.73363  0.86881  1.0000 0.1148516297
C   C1        1.0  0.33643  0.20799  0.07465  1.0000 0.5926619144
C   C2        1.0  0.20799  0.07465  0.33643  1.0000 0.5926619144
C   C3        1.0  0.07465  0.33643  0.20799  1.0000 0.5926619144
C   C4        1.0  0.16357  0.42535  0.29201  1.0000 0.5926619144
C   C5        1.0  0.29201  0.16357  0.42535  1.0000 0.5926619144
C   C6        1.0  0.42535  0.29201  0.16357  1.0000 0.5926619144
C   C7        1.0  0.66357  0.79201  0.92535  1.0000 0.5926619144
C   C8        1.0  0.79201  0.92535  0.66357  1.0000 0.5926619144
C   C9        1.0  0.92535  0.66357  0.79201  1.0000 0.5926619144
C   C10       1.0  0.83643  0.57465  0.70799  1.0000 0.5926619144
C   C11       1.0  0.70799  0.83643  0.57465  1.0000 0.5926619144
C   C12       1.0  0.57465  0.70799  0.83643  1.0000 0.5926619144
C   C13       1.0  0.50107  0.00352  0.80854  1.0000 0.0358683849
C   C14       1.0  0.00352  0.80854  0.50107  1.0000 0.0358683849
C   C15       1.0  0.80854  0.50107  0.00352  1.0000 0.0358683849
C   C16       1.0  0.99893  0.69146  0.49648  1.0000 0.0358683849
C   C17       1.0  0.49648  0.99893  0.69146  1.0000 0.0358683849
C   C18       1.0  0.69146  0.49648  0.99893  1.0000 0.0358683849
C   C19       1.0  0.49893  0.99648  0.19146  1.0000 0.0358683849
C   C20       1.0  0.99648  0.19146  0.49893  1.0000 0.0358683849
C   C21       1.0  0.19146  0.49893  0.99648  1.0000 0.0358683849
C   C22       1.0  0.00107  0.30854  0.50352  1.0000 0.0358683849
C   C23       1.0  0.50352  0.00107  0.30854  1.0000 0.0358683849
C   C24       1.0  0.30854  0.50352  0.00107  1.0000 0.0358683849
C   C25       1.0  0.43046  0.07443  0.81133  1.0000 0.0358683849
C   C26       1.0  0.07443  0.81133  0.43046  1.0000 0.0358683849
C   C27       1.0  0.81133  0.43046  0.07443  1.0000 0.0358683849
C   C28       1.0  0.06954  0.68867  0.42557  1.0000 0.0358683849
C   C29       1.0  0.42557  0.06954  0.68867  1.0000 0.0358683849
C   C30       1.0  0.68867  0.42557  0.06954  1.0000 0.0358683849
C   C31       1.0  0.56954  0.92557  0.18867  1.0000 0.0358683849
C   C32       1.0  0.92557  0.18867  0.56954  1.0000 0.0358683849
C   C33       1.0  0.18867  0.56954  0.92557  1.0000 0.0358683849
C   C34       1.0  0.93046  0.31133  0.57443  1.0000 0.0358683849
C   C35       1.0  0.57443  0.93046  0.31133  1.0000 0.0358683849
C   C36       1.0  0.31133  0.57443  0.93046  1.0000 0.0358683849
C   C37       1.0  0.35571  0.17403  0.00704  1.0000 -0.0209821831
C   C38       1.0  0.17403  0.00704  0.35571  1.0000 -0.0209821831
C   C39       1.0  0.00704  0.35571  0.17403  1.0000 -0.0209821831
C   C40       1.0  0.14429  0.49296  0.32597  1.0000 -0.0209821831
C   C41       1.0  0.32597  0.14429  0.49296  1.0000 -0.0209821831
C   C42       1.0  0.49296  0.32597  0.14429  1.0000 -0.0209821831
C   C43       1.0  0.64429  0.82597  0.99296  1.0000 -0.0209821831
C   C44       1.0  0.82597  0.99296  0.64429  1.0000 -0.0209821831
C   C45       1.0  0.99296  0.64429  0.82597  1.0000 -0.0209821831
C   C46       1.0  0.85571  0.50704  0.67403  1.0000 -0.0209821831
C   C47       1.0  0.67403  0.85571  0.50704  1.0000 -0.0209821831
C   C48       1.0  0.50704  0.67403  0.85571  1.0000 -0.0209821831
C   C49       1.0  0.39323  0.10677  0.75000  1.0000 -0.1528039503
C   C50       1.0  0.10677  0.75000  0.39323  1.0000 -0.1556237815
C   C51       1.0  0.75000  0.39323  0.10677  1.0000 -0.1528039503
C   C52       1.0  0.60677  0.89323  0.25000  1.0000 -0.1556237815
C   C53       1.0  0.89323  0.25000  0.60677  1.0000 -0.1528039503
C   C54       1.0  0.25000  0.60677  0.89323  1.0000 -0.1556237815
C   C55       1.0  0.39906  0.11015  0.88015  1.0000 0.0722963596
C   C56       1.0  0.11015  0.88015  0.39906  1.0000 0.0722963596
C   C57       1.0  0.88015  0.39906  0.11015  1.0000 0.0722963596
C   C58       1.0  0.10094  0.61985  0.38985  1.0000 0.0722963596
C   C59       1.0  0.38985  0.10094  0.61985  1.0000 0.0722963596
C   C60       1.0  0.61985  0.38985  0.10094  1.0000 0.0722963596
C   C61       1.0  0.60094  0.88985  0.11985  1.0000 0.0722963596
C   C62       1.0  0.88985  0.11985  0.60094  1.0000 0.0722963596
C   C63       1.0  0.11985  0.60094  0.88985  1.0000 0.0722963596
C   C64       1.0  0.89906  0.38015  0.61015  1.0000 0.0722963596
C   C65       1.0  0.61015  0.89906  0.38015  1.0000 0.0722963596
C   C66       1.0  0.38015  0.61015  0.89906  1.0000 0.0722963596
C   C67       1.0  0.38035  0.08877  0.02245  1.0000 -0.1008333145
C   C68       1.0  0.08877  0.02245  0.38035  1.0000 -0.1008333145
C   C69       1.0  0.02245  0.38035  0.08877  1.0000 -0.1008333145
C   C70       1.0  0.11965  0.47755  0.41123  1.0000 -0.1008333145
C   C71       1.0  0.41123  0.11965  0.47755  1.0000 -0.1008333145
C   C72       1.0  0.47755  0.41123  0.11965  1.0000 -0.1008333145
C   C73       1.0  0.61965  0.91123  0.97755  1.0000 -0.1008333145
C   C74       1.0  0.91123  0.97755  0.61965  1.0000 -0.1008333145
C   C75       1.0  0.97755  0.61965  0.91123  1.0000 -0.1008333145
C   C76       1.0  0.88035  0.52245  0.58877  1.0000 -0.1008333145
C   C77       1.0  0.58877  0.88035  0.52245  1.0000 -0.1008333145
C   C78       1.0  0.52245  0.58877  0.88035  1.0000 -0.1008333145
C   C79       1.0  0.40222  0.05721  0.95951  1.0000 -0.1528039503
C   C80       1.0  0.05721  0.95951  0.40222  1.0000 -0.1528039503
C   C81       1.0  0.95951  0.40222  0.05721  1.0000 -0.1528039503
C   C82       1.0  0.09778  0.54049  0.44279  1.0000 -0.1528039503
C   C83       1.0  0.44279  0.09778  0.54049  1.0000 -0.1528039503
C   C84       1.0  0.54049  0.44279  0.09778  1.0000 -0.1528039503
C   C85       1.0  0.59778  0.94279  0.04049  1.0000 -0.1528039503
C   C86       1.0  0.94279  0.04049  0.59778  1.0000 -0.1528039503
C   C87       1.0  0.04049  0.59778  0.94279  1.0000 -0.1528039503
C   C88       1.0  0.90222  0.45951  0.55721  1.0000 -0.1528039503
C   C89       1.0  0.55721  0.90222  0.45951  1.0000 -0.1528039503
C   C90       1.0  0.45951  0.55721  0.90222  1.0000 -0.1528039503
C   C91       1.0  0.34941  0.22819  0.92810  1.0000 -0.1008333145
C   C92       1.0  0.22819  0.92810  0.34941  1.0000 -0.1008333145
C   C93       1.0  0.92810  0.34941  0.22819  1.0000 -0.1008333145
C   C94       1.0  0.15059  0.57190  0.27181  1.0000 -0.1008333145
C   C95       1.0  0.27181  0.15059  0.57190  1.0000 -0.1008333145
C   C96       1.0  0.57190  0.27181  0.15059  1.0000 -0.1008333145
C   C97       1.0  0.65059  0.77181  0.07190  1.0000 -0.1008333145
C   C98       1.0  0.77181  0.07190  0.65059  1.0000 -0.1008333145
C   C99       1.0  0.07190  0.65059  0.77181  1.0000 -0.1008333145
C   C100      1.0  0.84941  0.42810  0.72819  1.0000 -0.1008333145
C   C101      1.0  0.72819  0.84941  0.42810  1.0000 -0.1008333145
C   C102      1.0  0.42810  0.72819  0.84941  1.0000 -0.1008333145
C   C103      1.0  0.37195  0.19639  0.86497  1.0000 -0.1528039503
C   C104      1.0  0.19639  0.86497  0.37195  1.0000 -0.1528039503
C   C105      1.0  0.86497  0.37195  0.19639  1.0000 -0.1528039503
C   C106      1.0  0.12805  0.63503  0.30361  1.0000 -0.1528039503
C   C107      1.0  0.30361  0.12805  0.63503  1.0000 -0.1528039503
C   C108      1.0  0.63503  0.30361  0.12805  1.0000 -0.1528039503
C   C109      1.0  0.62805  0.80361  0.13503  1.0000 -0.1528039503
C   C110      1.0  0.80361  0.13503  0.62805  1.0000 -0.1528039503
C   C111      1.0  0.13503  0.62805  0.80361  1.0000 -0.1528039503
C   C112      1.0  0.87195  0.36497  0.69639  1.0000 -0.1528039503
C   C113      1.0  0.69639  0.87195  0.36497  1.0000 -0.1528039503
C   C114      1.0  0.36497  0.69639  0.87195  1.0000 -0.1528039503
N   N1        1.0  0.53382  0.96618  0.75000  1.0000 -0.2257687428
N   N2        1.0  0.96618  0.75000  0.53382  1.0000 -0.2257687428
N   N3        1.0  0.75000  0.53382  0.96618  1.0000 -0.2257687428
N   N4        1.0  0.46618  0.03382  0.25000  1.0000 -0.2257687428
N   N5        1.0  0.03382  0.25000  0.46618  1.0000 -0.2257687428
N   N6        1.0  0.25000  0.46618  0.03382  1.0000 -0.2257687428
O   O1        1.0  0.25000  0.25000  0.25000  1.0000 -0.8105916409
O   O2        1.0  0.75000  0.75000  0.75000  1.0000 -0.8105916409
O   O3        1.0  0.36335  0.15467  0.13513  1.0000 -0.5462416438
O   O4        1.0  0.15467  0.13513  0.36335  1.0000 -0.5462416438
O   O5        1.0  0.13513  0.36335  0.15467  1.0000 -0.5462416438
O   O6        1.0  0.13665  0.36487  0.34533  1.0000 -0.5462416438
O   O7        1.0  0.34533  0.13665  0.36487  1.0000 -0.5462416438
O   O8        1.0  0.36487  0.34533  0.13665  1.0000 -0.5462416438
O   O9        1.0  0.63665  0.84533  0.86487  1.0000 -0.5462416438
O   O10       1.0  0.84533  0.86487  0.63665  1.0000 -0.5462416438
O   O11       1.0  0.86487  0.63665  0.84533  1.0000 -0.5462416438
O   O12       1.0  0.86335  0.63513  0.65467  1.0000 -0.5462416438
O   O13       1.0  0.65467  0.86335  0.63513  1.0000 -0.5462416438
O   O14       1.0  0.63513  0.65467  0.86335  1.0000 -0.5462416438
O   O15       1.0  0.29876  0.28426  0.06500  1.0000 -0.5386874207
O   O16       1.0  0.28426  0.06500  0.29876  1.0000 -0.5386874207
O   O17       1.0  0.06500  0.29876  0.28426  1.0000 -0.5386874207
O   O18       1.0  0.20124  0.43500  0.21574  1.0000 -0.5386874207
O   O19       1.0  0.21574  0.20124  0.43500  1.0000 -0.5386874207
O   O20       1.0  0.43500  0.21574  0.20124  1.0000 -0.5386874207
O   O21       1.0  0.70124  0.71574  0.93500  1.0000 -0.5386874207
O   O22       1.0  0.71574  0.93500  0.70124  1.0000 -0.5386874207
O   O23       1.0  0.93500  0.70124  0.71574  1.0000 -0.5386874207
O   O24       1.0  0.79876  0.56500  0.78426  1.0000 -0.5386874207
O   O25       1.0  0.78426  0.79876  0.56500  1.0000 -0.5386874207
O   O26       1.0  0.56500  0.78426  0.79876  1.0000 -0.5386874207
