# DDEC6 charges by PACMAN v1.1 (https://github.com/mtap-research/PACMAN-charge/)
data_2023[Fe][xmz]3[ASR]2
_chemical_formula_sum              "Fe6 H60 C108 N12 O26"
_cell_length_a       18.5871
_cell_length_b       18.5871
_cell_length_c       18.0277
_cell_angle_alpha    65.632
_cell_angle_beta     114.368
_cell_angle_gamma    112.86

_symmetry_space_group_name_H-M    "P 1"
_symmetry_Int_Tables_number       1

loop_
  _symmetry_equiv_pos_as_xyz
  'x, y, z'

loop_
  _atom_site_type_symbol
  _atom_site_label
  _atom_site_symmetry_multiplicity
  _atom_site_fract_x
  _atom_site_fract_y
  _atom_site_fract_z
  _atom_site_occupancy
  _atom_site_charge
Fe  Fe1       1.0  0.34011  0.34011  0.25000  1.0000 1.1502485479
Fe  Fe2       1.0  0.65989  0.65989  0.75000  1.0000 1.1502485479
Fe  Fe3       1.0  0.15164  0.24890  0.15020  1.0000 1.1397269573
Fe  Fe4       1.0  0.24890  0.15164  0.34980  1.0000 1.1397269573
Fe  Fe5       1.0  0.84836  0.75110  0.84980  1.0000 1.1397269573
Fe  Fe6       1.0  0.75110  0.84836  0.65020  1.0000 1.1397269573
H   H1        1.0  0.52032  0.55826  0.83797  1.0000 0.1127374253
H   H2        1.0  0.55826  0.52032  0.66203  1.0000 0.1127374253
H   H3        1.0  0.47968  0.44174  0.16203  1.0000 0.1127374253
H   H4        1.0  0.44174  0.47968  0.33797  1.0000 0.1127374253
H   H5        1.0  0.96872  0.63880  0.97956  1.0000 0.1127374253
H   H6        1.0  0.63880  0.96872  0.52044  1.0000 0.1127374253
H   H7        1.0  0.03128  0.36120  0.02044  1.0000 0.1127374253
H   H8        1.0  0.36120  0.03128  0.47956  1.0000 0.1127374253
H   H9        1.0  0.97143  0.85325  0.97722  1.0000 0.1127374253
H   H10       1.0  0.85325  0.97143  0.52278  1.0000 0.1127374253
H   H11       1.0  0.02857  0.14675  0.02278  1.0000 0.1127374253
H   H12       1.0  0.14675  0.02857  0.47722  1.0000 0.1127374253
H   H13       1.0  0.05073  0.42227  0.12405  1.0000 0.1295179003
H   H14       1.0  0.42227  0.05073  0.37595  1.0000 0.1295179003
H   H15       1.0  0.94927  0.57773  0.87595  1.0000 0.1295179003
H   H16       1.0  0.57773  0.94927  0.62405  1.0000 0.1295179003
H   H17       1.0  0.99242  0.52556  0.08634  1.0000 0.121815545
H   H18       1.0  0.52556  0.99242  0.41366  1.0000 0.121815545
H   H19       1.0  0.00758  0.47444  0.91366  1.0000 0.121815545
H   H20       1.0  0.47444  0.00758  0.58634  1.0000 0.121815545
H   H21       1.0  0.27354  0.56806  0.19512  1.0000 0.1295179003
H   H22       1.0  0.56806  0.27354  0.30488  1.0000 0.1295179003
H   H23       1.0  0.72646  0.43194  0.80488  1.0000 0.1295179003
H   H24       1.0  0.43194  0.72646  0.69512  1.0000 0.1295179003
H   H25       1.0  0.11661  0.07273  0.04731  1.0000 0.121815545
H   H26       1.0  0.07273  0.11661  0.45269  1.0000 0.121815545
H   H27       1.0  0.88339  0.92727  0.95269  1.0000 0.121815545
H   H28       1.0  0.92727  0.88339  0.54731  1.0000 0.121815545
H   H29       1.0  0.21591  0.67539  0.15119  1.0000 0.1295179003
H   H30       1.0  0.67539  0.21590  0.34881  1.0000 0.1295179003
H   H31       1.0  0.78410  0.32460  0.84881  1.0000 0.121815545
H   H32       1.0  0.32460  0.78409  0.65119  1.0000 0.121815545
H   H33       1.0  0.07911  0.96847  0.98949  1.0000 0.121815545
H   H34       1.0  0.96847  0.07911  0.51051  1.0000 0.121815545
H   H35       1.0  0.92089  0.03153  0.01051  1.0000 0.121815545
H   H36       1.0  0.03153  0.92089  0.48949  1.0000 0.121815545
H   H37       1.0  0.43746  0.53772  0.89776  1.0000 0.121815545
H   H38       1.0  0.53772  0.43746  0.60224  1.0000 0.121815545
H   H39       1.0  0.56254  0.46228  0.10224  1.0000 0.121815545
H   H40       1.0  0.46228  0.56254  0.39776  1.0000 0.121815545
H   H41       1.0  0.18337  0.92055  0.28622  1.0000 0.1295179003
H   H42       1.0  0.92055  0.18337  0.21378  1.0000 0.1295179003
H   H43       1.0  0.81663  0.07945  0.71378  1.0000 0.1295179003
H   H44       1.0  0.07945  0.81663  0.78622  1.0000 0.1295179003
H   H45       1.0  0.14457  0.81577  0.22813  1.0000 0.121815545
H   H46       1.0  0.81577  0.14457  0.27187  1.0000 0.121815545
H   H47       1.0  0.85543  0.18423  0.77187  1.0000 0.121815545
H   H48       1.0  0.18423  0.85543  0.72813  1.0000 0.121815545
H   H49       1.0  0.26112  0.27808  0.94698  1.0000 0.1358947399
H   H50       1.0  0.27808  0.26112  0.55302  1.0000 0.1358947399
H   H51       1.0  0.73888  0.72192  0.05302  1.0000 0.1358947399
H   H52       1.0  0.72192  0.73888  0.44698  1.0000 0.1358947399
H   H53       1.0  0.38148  0.48934  0.00837  1.0000 0.121815545
H   H54       1.0  0.48934  0.38148  0.49163  1.0000 0.121815545
H   H55       1.0  0.61852  0.51066  0.99163  1.0000 0.121815545
H   H56       1.0  0.51066  0.61852  0.50837  1.0000 0.121815545
H   H57       1.0  0.32817  0.32309  0.84791  1.0000 0.121815545
H   H58       1.0  0.32309  0.32817  0.65209  1.0000 0.121815545
H   H59       1.0  0.67183  0.67691  0.15209  1.0000 0.121815545
H   H60       1.0  0.67691  0.67183  0.34791  1.0000 0.121815545
C   C1        1.0  0.20500  0.41880  0.17490  1.0000 0.598273253
C   C2        1.0  0.41880  0.20500  0.32510  1.0000 0.598273253
C   C3        1.0  0.79500  0.58120  0.82510  1.0000 0.598273253
C   C4        1.0  0.58120  0.79500  0.67490  1.0000 0.598273253
C   C5        1.0  0.16880  0.07480  0.20600  1.0000 0.598273253
C   C6        1.0  0.07480  0.16880  0.29400  1.0000 0.598273253
C   C7        1.0  0.83120  0.92520  0.79400  1.0000 0.598273253
C   C8        1.0  0.92520  0.83120  0.70600  1.0000 0.598273253
C   C9        1.0  0.28520  0.34360  0.06670  1.0000 0.591858914
C   C10       1.0  0.34360  0.28520  0.43330  1.0000 0.591858914
C   C11       1.0  0.71480  0.65640  0.93330  1.0000 0.591858914
C   C12       1.0  0.65640  0.71480  0.56670  1.0000 0.591858914
C   C13       1.0  0.50640  0.52720  0.80100  1.0000 -0.0187808418
C   C14       1.0  0.52720  0.50640  0.69900  1.0000 -0.0187808418
C   C15       1.0  0.49360  0.47280  0.19900  1.0000 -0.0187808418
C   C16       1.0  0.47280  0.49360  0.30100  1.0000 -0.0187808418
C   C17       1.0  0.06280  0.68500  0.07110  1.0000 0.1816224026
C   C18       1.0  0.68500  0.06280  0.42890  1.0000 0.1816224026
C   C19       1.0  0.93720  0.31500  0.92890  1.0000 0.1816224026
C   C20       1.0  0.31500  0.93720  0.57110  1.0000 0.1816224026
C   C21       1.0  0.16970  0.48630  0.15830  1.0000 -0.0187808418
C   C22       1.0  0.48630  0.16970  0.34170  1.0000 -0.0187808418
C   C23       1.0  0.83030  0.51370  0.84170  1.0000 -0.0187808418
C   C24       1.0  0.51370  0.83030  0.65830  1.0000 -0.0187808418
C   C25       1.0  0.14980  0.00600  0.17280  1.0000 -0.0308960199
C   C26       1.0  0.00600  0.14980  0.32720  1.0000 -0.0308960199
C   C27       1.0  0.85020  0.99400  0.82720  1.0000 -0.0308960199
C   C28       1.0  0.99400  0.85020  0.67280  1.0000 -0.0308960199
C   C29       1.0  0.44030  0.45910  0.80300  1.0000 0.1622873414
C   C30       1.0  0.45910  0.44030  0.69700  1.0000 0.1622873414
C   C31       1.0  0.55970  0.54090  0.19700  1.0000 0.1622873414
C   C32       1.0  0.54090  0.55970  0.30300  1.0000 0.1622873414
C   C33       1.0  0.99240  0.68440  0.00100  1.0000 -0.0308960199
C   C34       1.0  0.68440  0.99240  0.49900  1.0000 -0.0308960199
C   C35       1.0  0.00760  0.31560  0.99900  1.0000 -0.0308960199
C   C36       1.0  0.31560  0.00760  0.50100  1.0000 -0.0308960199
C   C37       1.0  0.09990  0.87650  0.10630  1.0000 0.0504633909
C   C38       1.0  0.87650  0.09990  0.39370  1.0000 0.0553259011
C   C39       1.0  0.90010  0.12350  0.89370  1.0000 0.0553259011
C   C40       1.0  0.12350  0.90010  0.60630  1.0000 0.0553259011
C   C41       1.0  0.99450  0.80830  0.00010  1.0000 -0.0308960199
C   C42       1.0  0.80830  0.99450  0.49990  1.0000 -0.0308960199
C   C43       1.0  0.00550  0.19170  0.99990  1.0000 -0.0308960199
C   C44       1.0  0.19170  0.00550  0.50010  1.0000 -0.0308960199
C   C45       1.0  0.31860  0.37600  0.99220  1.0000 -0.0187808418
C   C46       1.0  0.37600  0.31860  0.50780  1.0000 -0.0187808418
C   C47       1.0  0.68140  0.62400  0.00780  1.0000 -0.0187808418
C   C48       1.0  0.62400  0.68140  0.49220  1.0000 -0.0147734881
C   C49       1.0  0.09950  0.61350  0.10870  1.0000 0.0504633909
C   C50       1.0  0.61350  0.09950  0.39130  1.0000 0.0504633909
C   C51       1.0  0.90050  0.38650  0.89130  1.0000 0.0553259011
C   C52       1.0  0.38650  0.90050  0.60870  1.0000 0.0504633909
C   C53       1.0  0.06360  0.80860  0.06890  1.0000 0.1622873414
C   C54       1.0  0.80860  0.06360  0.43110  1.0000 0.1622873414
C   C55       1.0  0.93640  0.19140  0.93110  1.0000 0.1622873414
C   C56       1.0  0.19140  0.93640  0.56890  1.0000 0.1622873414
C   C57       1.0  0.08510  0.47470  0.12830  1.0000 -0.1017009371
C   C58       1.0  0.47470  0.08510  0.37170  1.0000 -0.1017009371
C   C59       1.0  0.91490  0.52530  0.87170  1.0000 -0.1017009371
C   C60       1.0  0.52530  0.91490  0.62830  1.0000 -0.1017009371
C   C61       1.0  0.39430  0.43370  0.86340  1.0000 0.0504633909
C   C62       1.0  0.43370  0.39430  0.63660  1.0000 0.0504633909
C   C63       1.0  0.60570  0.56630  0.13660  1.0000 0.0504633909
C   C64       1.0  0.56630  0.60570  0.36340  1.0000 0.0504633909
C   C65       1.0  0.05030  0.53590  0.10500  1.0000 -0.1487003701
C   C66       1.0  0.53590  0.05030  0.39500  1.0000 -0.1487003701
C   C67       1.0  0.94970  0.46410  0.89500  1.0000 -0.1487003701
C   C68       1.0  0.46410  0.94970  0.60500  1.0000 -0.144861782
C   C69       1.0  0.21600  0.55980  0.16930  1.0000 -0.1017009371
C   C70       1.0  0.55980  0.21600  0.33070  1.0000 -0.1017009371
C   C71       1.0  0.78400  0.44020  0.83070  1.0000 -0.1017009371
C   C72       1.0  0.44020  0.78400  0.66930  1.0000 -0.1017009371
C   C73       1.0  0.12040  0.01940  0.08420  1.0000 -0.1017009371
C   C74       1.0  0.01940  0.12040  0.41580  1.0000 -0.1017009371
C   C75       1.0  0.87960  0.98060  0.91580  1.0000 -0.1017009371
C   C76       1.0  0.98060  0.87960  0.58420  1.0000 -0.1017009371
C   C77       1.0  0.18160  0.62380  0.14390  1.0000 -0.1195249645
C   C78       1.0  0.62380  0.18160  0.35610  1.0000 -0.1195249645
C   C79       1.0  0.81840  0.37620  0.85610  1.0000 -0.1195249645
C   C80       1.0  0.37620  0.81840  0.64390  1.0000 -0.1195249645
C   C81       1.0  0.09700  0.95780  0.04970  1.0000 -0.1487003701
C   C82       1.0  0.95780  0.09700  0.45030  1.0000 -0.1487003701
C   C83       1.0  0.90300  0.04220  0.95030  1.0000 -0.1487003701
C   C84       1.0  0.04220  0.90300  0.54970  1.0000 -0.1487003701
C   C85       1.0  0.40490  0.48290  0.91070  1.0000 -0.1581891646
C   C86       1.0  0.48290  0.40490  0.58930  1.0000 -0.1581891646
C   C87       1.0  0.59510  0.51710  0.08930  1.0000 -0.1581891646
C   C88       1.0  0.51710  0.59510  0.41070  1.0000 -0.1581891646
C   C89       1.0  0.16000  0.93000  0.22620  1.0000 -0.1017009371
C   C90       1.0  0.93000  0.16000  0.27380  1.0000 -0.1017009371
C   C91       1.0  0.84000  0.07000  0.77380  1.0000 -0.1017009371
C   C92       1.0  0.07000  0.84000  0.72620  1.0000 -0.1017009371
C   C93       1.0  0.13580  0.86760  0.19110  1.0000 -0.1195249645
C   C94       1.0  0.86760  0.13580  0.30890  1.0000 -0.1195249645
C   C95       1.0  0.86420  0.13240  0.80890  1.0000 -0.1195249645
C   C96       1.0  0.13240  0.86420  0.69110  1.0000 -0.1195249645
C   C97       1.0  0.30060  0.32960  0.94060  1.0000 -0.1017009371
C   C98       1.0  0.32960  0.30060  0.55940  1.0000 -0.1017009371
C   C99       1.0  0.69940  0.67040  0.05940  1.0000 -0.1017009371
C   C100      1.0  0.67040  0.69940  0.44060  1.0000 -0.1017009371
C   C101      1.0  0.37030  0.45510  0.97560  1.0000 -0.1087357477
C   C102      1.0  0.45510  0.37030  0.52440  1.0000 -0.1087357477
C   C103      1.0  0.62970  0.54490  0.02440  1.0000 -0.1087357477
C   C104      1.0  0.54490  0.62970  0.47560  1.0000 -0.1087357477
C   C105      1.0  0.33940  0.35780  0.88010  1.0000 -0.1195249645
C   C106      1.0  0.35780  0.33940  0.61990  1.0000 -0.1195249645
C   C107      1.0  0.66060  0.64220  0.11990  1.0000 -0.1195249645
C   C108      1.0  0.64220  0.66060  0.38010  1.0000 -0.1195249645
N   N1        1.0  0.55120  0.55120  0.75000  1.0000 -0.1581891646
N   N2        1.0  0.44880  0.44880  0.25000  1.0000 -0.1581891646
N   N3        1.0  0.95700  0.74740  0.96280  1.0000 -0.1933713612
N   N4        1.0  0.74740  0.95700  0.53720  1.0000 -0.1933713612
N   N5        1.0  0.04300  0.25260  0.03720  1.0000 -0.1933713612
N   N6        1.0  0.25260  0.04300  0.46280  1.0000 -0.1933713612
N   N7        1.0  0.41620  0.41620  0.75000  1.0000 -0.2920846139
N   N8        1.0  0.58380  0.58380  0.25000  1.0000 -0.2920846139
N   N9        1.0  0.09828  0.74552  0.10588  1.0000 -0.3182526473
N   N10       1.0  0.74552  0.09828  0.39412  1.0000 -0.3182526473
N   N11       1.0  0.90172  0.25448  0.89412  1.0000 -0.3182526473
N   N12       1.0  0.25448  0.90172  0.60588  1.0000 -0.3182526473
O   O1        1.0  0.24990  0.24990  0.25000  1.0000 -0.8984883521
O   O2        1.0  0.75010  0.75010  0.75000  1.0000 -0.8984883521
O   O3        1.0  0.21232  0.06908  0.28242  1.0000 -0.5402549748
O   O4        1.0  0.06908  0.21232  0.21758  1.0000 -0.5402549748
O   O5        1.0  0.78768  0.93092  0.71758  1.0000 -0.5402549748
O   O6        1.0  0.93092  0.78768  0.78242  1.0000 -0.5402549748
O   O7        1.0  0.13807  0.13375  0.15486  1.0000 -0.5513692071
O   O8        1.0  0.13375  0.13807  0.34514  1.0000 -0.5513692071
O   O9        1.0  0.86193  0.86625  0.84514  1.0000 -0.5513692071
O   O10       1.0  0.86625  0.86193  0.65486  1.0000 -0.5513692071
O   O11       1.0  0.27638  0.42146  0.22396  1.0000 -0.5243347977
O   O12       1.0  0.42146  0.27638  0.27604  1.0000 -0.5243347977
O   O13       1.0  0.72362  0.57854  0.77604  1.0000 -0.5243347977
O   O14       1.0  0.57854  0.72362  0.72396  1.0000 -0.5243347977
O   O15       1.0  0.21737  0.28983  0.06277  1.0000 -0.5402549748
O   O16       1.0  0.28983  0.21737  0.43723  1.0000 -0.5402549748
O   O17       1.0  0.78263  0.71017  0.93723  1.0000 -0.5402549748
O   O18       1.0  0.71017  0.78263  0.56277  1.0000 -0.5402549748
O   O19       1.0  0.16005  0.36749  0.13498  1.0000 -0.5513692071
O   O20       1.0  0.36749  0.16005  0.36502  1.0000 -0.5513692071
O   O21       1.0  0.83995  0.63251  0.86502  1.0000 -0.5513692071
O   O22       1.0  0.63251  0.83995  0.63498  1.0000 -0.5513692071
O   O23       1.0  0.32886  0.37538  0.12514  1.0000 -0.5346801077
O   O24       1.0  0.37538  0.32886  0.37486  1.0000 -0.5346801077
O   O25       1.0  0.67114  0.62462  0.87486  1.0000 -0.5346801077
O   O26       1.0  0.62462  0.67114  0.62514  1.0000 -0.5346801077
