# DDEC6 charges by PACMAN v1.1 (https://github.com/mtap-research/PACMAN-charge/)
data_2023[Zr][reo]3[ASR]2
_chemical_formula_sum              "Zr36 H48 C144 S24 O144"
_cell_length_a       27.4146
_cell_length_b       27.4146
_cell_length_c       27.4146
_cell_angle_alpha    60
_cell_angle_beta     60
_cell_angle_gamma    60

_symmetry_space_group_name_H-M    "P 1"
_symmetry_Int_Tables_number       1

loop_
  _symmetry_equiv_pos_as_xyz
  'x, y, z'

loop_
  _atom_site_type_symbol
  _atom_site_label
  _atom_site_symmetry_multiplicity
  _atom_site_fract_x
  _atom_site_fract_y
  _atom_site_fract_z
  _atom_site_occupancy
  _atom_site_charge
Zr  Zr1       1.0  0.98107  0.45457  0.45457  1.0000 2.4197073216
Zr  Zr2       1.0  0.45457  0.98107  0.10979  1.0000 2.4197073216
Zr  Zr3       1.0  0.45457  0.10979  0.98107  1.0000 2.4197073216
Zr  Zr4       1.0  0.10979  0.45457  0.45457  1.0000 2.4197073216
Zr  Zr5       1.0  0.45457  0.98107  0.45457  1.0000 2.4197073216
Zr  Zr6       1.0  0.10979  0.45457  0.98107  1.0000 2.4197073216
Zr  Zr7       1.0  0.98107  0.45457  0.10979  1.0000 2.4197073216
Zr  Zr8       1.0  0.45457  0.10979  0.45457  1.0000 2.4197073216
Zr  Zr9       1.0  0.45457  0.45457  0.98107  1.0000 2.4197073216
Zr  Zr10      1.0  0.98107  0.10979  0.45457  1.0000 2.4197073216
Zr  Zr11      1.0  0.10979  0.98107  0.45457  1.0000 2.4197073216
Zr  Zr12      1.0  0.45457  0.45457  0.10979  1.0000 2.4197073216
Zr  Zr13      1.0  0.01893  0.54543  0.89021  1.0000 2.4197073216
Zr  Zr14      1.0  0.54543  0.01893  0.54543  1.0000 2.4197073216
Zr  Zr15      1.0  0.54543  0.89021  0.54543  1.0000 2.4197073216
Zr  Zr16      1.0  0.89021  0.54543  0.01893  1.0000 2.4197073216
Zr  Zr17      1.0  0.54543  0.01893  0.89021  1.0000 2.4197073216
Zr  Zr18      1.0  0.89021  0.54543  0.54543  1.0000 2.4197073216
Zr  Zr19      1.0  0.01893  0.54543  0.54543  1.0000 2.4197073216
Zr  Zr20      1.0  0.54543  0.89021  0.01893  1.0000 2.4197073216
Zr  Zr21      1.0  0.54543  0.54543  0.89021  1.0000 2.4197073216
Zr  Zr22      1.0  0.01893  0.89021  0.54543  1.0000 2.4197073216
Zr  Zr23      1.0  0.89021  0.01893  0.54543  1.0000 2.4197073216
Zr  Zr24      1.0  0.54543  0.54543  0.01893  1.0000 2.4197073216
Zr  Zr25      1.0  0.00000  0.41018  0.58982  1.0000 2.2968685842
Zr  Zr26      1.0  0.41018  0.00000  0.00000  1.0000 2.2968685842
Zr  Zr27      1.0  0.58982  0.00000  0.00000  1.0000 2.2968685842
Zr  Zr28      1.0  0.00000  0.58982  0.41018  1.0000 2.2968685842
Zr  Zr29      1.0  0.58982  0.00000  0.41018  1.0000 2.2968685842
Zr  Zr30      1.0  0.00000  0.41018  0.00000  1.0000 2.2968685842
Zr  Zr31      1.0  0.00000  0.58982  0.00000  1.0000 2.2968685842
Zr  Zr32      1.0  0.41018  0.00000  0.58982  1.0000 2.2949533895
Zr  Zr33      1.0  0.41018  0.58982  0.00000  1.0000 2.2968685842
Zr  Zr34      1.0  0.00000  0.00000  0.41018  1.0000 2.2968685842
Zr  Zr35      1.0  0.00000  0.00000  0.58982  1.0000 2.2968685842
Zr  Zr36      1.0  0.58982  0.41018  0.00000  1.0000 2.2968685842
H   H1        1.0  0.98770  0.22170  0.65830  1.0000 0.1180067289
H   H2        1.0  0.22170  0.98770  0.13230  1.0000 0.1180067289
H   H3        1.0  0.65830  0.13230  0.98770  1.0000 0.1180067289
H   H4        1.0  0.13230  0.65830  0.22170  1.0000 0.1180067289
H   H5        1.0  0.65830  0.98770  0.22170  1.0000 0.1180067289
H   H6        1.0  0.13230  0.22170  0.98770  1.0000 0.1180067289
H   H7        1.0  0.98770  0.65830  0.13230  1.0000 0.1180067289
H   H8        1.0  0.22170  0.13230  0.65830  1.0000 0.1180067289
H   H9        1.0  0.22170  0.65830  0.98770  1.0000 0.1180067289
H   H10       1.0  0.98770  0.13230  0.22170  1.0000 0.1180067289
H   H11       1.0  0.13230  0.98770  0.65830  1.0000 0.1180067289
H   H12       1.0  0.65830  0.22170  0.13230  1.0000 0.1180067289
H   H13       1.0  0.01230  0.77830  0.86770  1.0000 0.1180067289
H   H14       1.0  0.77830  0.01230  0.34170  1.0000 0.1180067289
H   H15       1.0  0.34170  0.86770  0.77830  1.0000 0.1180067289
H   H16       1.0  0.86770  0.34170  0.01230  1.0000 0.1180067289
H   H17       1.0  0.34170  0.01230  0.86770  1.0000 0.1180067289
H   H18       1.0  0.86770  0.77830  0.34170  1.0000 0.1180067289
H   H19       1.0  0.01230  0.34170  0.77830  1.0000 0.1180067289
H   H20       1.0  0.77830  0.86770  0.01230  1.0000 0.1180067289
H   H21       1.0  0.77830  0.34170  0.86770  1.0000 0.1180067289
H   H22       1.0  0.01230  0.86770  0.34170  1.0000 0.1180067289
H   H23       1.0  0.86770  0.01230  0.77830  1.0000 0.1180067289
H   H24       1.0  0.34170  0.77830  0.01230  1.0000 0.1180067289
H   H25       1.0  0.01230  0.77830  0.34170  1.0000 0.1180067289
H   H26       1.0  0.77830  0.01230  0.86770  1.0000 0.1180067289
H   H27       1.0  0.34170  0.86770  0.01230  1.0000 0.1180067289
H   H28       1.0  0.86770  0.34170  0.77830  1.0000 0.1180067289
H   H29       1.0  0.34170  0.01230  0.77830  1.0000 0.1180067289
H   H30       1.0  0.86770  0.77830  0.01230  1.0000 0.1180067289
H   H31       1.0  0.01230  0.34170  0.86770  1.0000 0.1180067289
H   H32       1.0  0.77830  0.86770  0.34170  1.0000 0.1180067289
H   H33       1.0  0.77830  0.34170  0.01230  1.0000 0.1180067289
H   H34       1.0  0.01230  0.86770  0.77830  1.0000 0.1180067289
H   H35       1.0  0.86770  0.01230  0.34170  1.0000 0.1180067289
H   H36       1.0  0.34170  0.77830  0.86770  1.0000 0.1180067289
H   H37       1.0  0.98770  0.22170  0.13230  1.0000 0.1180067289
H   H38       1.0  0.22170  0.98770  0.65830  1.0000 0.1180067289
H   H39       1.0  0.65830  0.13230  0.22170  1.0000 0.1180067289
H   H40       1.0  0.13230  0.65830  0.98770  1.0000 0.1180067289
H   H41       1.0  0.65830  0.98770  0.13230  1.0000 0.1180067289
H   H42       1.0  0.13230  0.22170  0.65830  1.0000 0.1180067289
H   H43       1.0  0.98770  0.65830  0.22170  1.0000 0.1180067289
H   H44       1.0  0.22170  0.13230  0.98770  1.0000 0.1180067289
H   H45       1.0  0.22170  0.65830  0.13230  1.0000 0.1180067289
H   H46       1.0  0.98770  0.13230  0.65830  1.0000 0.1180067289
H   H47       1.0  0.13230  0.98770  0.22170  1.0000 0.1180067289
H   H48       1.0  0.65830  0.22170  0.98770  1.0000 0.1180067289
C   C1        1.0  0.97960  0.32580  0.56000  1.0000 0.6320918808
C   C2        1.0  0.32580  0.97960  0.13460  1.0000 0.6320918808
C   C3        1.0  0.56000  0.13460  0.97960  1.0000 0.6320918808
C   C4        1.0  0.13460  0.56000  0.32580  1.0000 0.6320918808
C   C5        1.0  0.56000  0.97960  0.32580  1.0000 0.6320918808
C   C6        1.0  0.13460  0.32580  0.97960  1.0000 0.6320918808
C   C7        1.0  0.97960  0.56000  0.13460  1.0000 0.6320918808
C   C8        1.0  0.32580  0.13460  0.56000  1.0000 0.6320918808
C   C9        1.0  0.32580  0.56000  0.97960  1.0000 0.6320918808
C   C10       1.0  0.97960  0.13460  0.32580  1.0000 0.6320918808
C   C11       1.0  0.13460  0.97960  0.56000  1.0000 0.6320918808
C   C12       1.0  0.56000  0.32580  0.13460  1.0000 0.6320918808
C   C13       1.0  0.02040  0.67420  0.86540  1.0000 0.6320918808
C   C14       1.0  0.67420  0.02040  0.44000  1.0000 0.6320918808
C   C15       1.0  0.44000  0.86540  0.67420  1.0000 0.6320918808
C   C16       1.0  0.86540  0.44000  0.02040  1.0000 0.6320918808
C   C17       1.0  0.44000  0.02040  0.86540  1.0000 0.6320918808
C   C18       1.0  0.86540  0.67420  0.44000  1.0000 0.6320918808
C   C19       1.0  0.02040  0.44000  0.67420  1.0000 0.6320918808
C   C20       1.0  0.67420  0.86540  0.02040  1.0000 0.6320918808
C   C21       1.0  0.67420  0.44000  0.86540  1.0000 0.6320918808
C   C22       1.0  0.02040  0.86540  0.44000  1.0000 0.6320918808
C   C23       1.0  0.86540  0.02040  0.67420  1.0000 0.6320918808
C   C24       1.0  0.44000  0.67420  0.02040  1.0000 0.6320918808
C   C25       1.0  0.02040  0.67420  0.44000  1.0000 0.6320918808
C   C26       1.0  0.67420  0.02040  0.86540  1.0000 0.6320918808
C   C27       1.0  0.44000  0.86540  0.02040  1.0000 0.6320918808
C   C28       1.0  0.86540  0.44000  0.67420  1.0000 0.6320918808
C   C29       1.0  0.44000  0.02040  0.67420  1.0000 0.6320918808
C   C30       1.0  0.86540  0.67420  0.02040  1.0000 0.6320918808
C   C31       1.0  0.02040  0.44000  0.86540  1.0000 0.6320918808
C   C32       1.0  0.67420  0.86540  0.44000  1.0000 0.6320918808
C   C33       1.0  0.67420  0.44000  0.02040  1.0000 0.6320918808
C   C34       1.0  0.02040  0.86540  0.67420  1.0000 0.6320918808
C   C35       1.0  0.86540  0.02040  0.44000  1.0000 0.6320918808
C   C36       1.0  0.44000  0.67420  0.86540  1.0000 0.6320918808
C   C37       1.0  0.97960  0.32580  0.13460  1.0000 0.6320918808
C   C38       1.0  0.32580  0.97960  0.56000  1.0000 0.6320918808
C   C39       1.0  0.56000  0.13460  0.32580  1.0000 0.6320918808
C   C40       1.0  0.13460  0.56000  0.97960  1.0000 0.6320918808
C   C41       1.0  0.56000  0.97960  0.13460  1.0000 0.6320918808
C   C42       1.0  0.13460  0.32580  0.56000  1.0000 0.6320918808
C   C43       1.0  0.97960  0.56000  0.32580  1.0000 0.6320918808
C   C44       1.0  0.32580  0.13460  0.97960  1.0000 0.6320918808
C   C45       1.0  0.32580  0.56000  0.13460  1.0000 0.6320918808
C   C46       1.0  0.97960  0.13460  0.56000  1.0000 0.6320918808
C   C47       1.0  0.13460  0.97960  0.32580  1.0000 0.6320918808
C   C48       1.0  0.56000  0.32580  0.97960  1.0000 0.6320918808
C   C49       1.0  0.98040  0.26680  0.57560  1.0000 -0.1934698477
C   C50       1.0  0.26680  0.98040  0.17720  1.0000 -0.1934698477
C   C51       1.0  0.57560  0.17720  0.98040  1.0000 -0.1934698477
C   C52       1.0  0.17720  0.57560  0.26680  1.0000 -0.1934698477
C   C53       1.0  0.57560  0.98040  0.26680  1.0000 -0.1934698477
C   C54       1.0  0.17720  0.26680  0.98040  1.0000 -0.1934698477
C   C55       1.0  0.98040  0.57560  0.17720  1.0000 -0.1934698477
C   C56       1.0  0.26680  0.17720  0.57560  1.0000 -0.1934698477
C   C57       1.0  0.26680  0.57560  0.98040  1.0000 -0.1934698477
C   C58       1.0  0.98040  0.17720  0.26680  1.0000 -0.1934698477
C   C59       1.0  0.17720  0.98040  0.57560  1.0000 -0.1934698477
C   C60       1.0  0.57560  0.26680  0.17720  1.0000 -0.1934698477
C   C61       1.0  0.01960  0.73320  0.82280  1.0000 -0.1934698477
C   C62       1.0  0.73320  0.01960  0.42440  1.0000 -0.1934698477
C   C63       1.0  0.42440  0.82280  0.73320  1.0000 -0.1934698477
C   C64       1.0  0.82280  0.42440  0.01960  1.0000 -0.1934698477
C   C65       1.0  0.42440  0.01960  0.82280  1.0000 -0.1934698477
C   C66       1.0  0.82280  0.73320  0.42440  1.0000 -0.1934698477
C   C67       1.0  0.01960  0.42440  0.73320  1.0000 -0.1934698477
C   C68       1.0  0.73320  0.82280  0.01960  1.0000 -0.1934698477
C   C69       1.0  0.73320  0.42440  0.82280  1.0000 -0.1934698477
C   C70       1.0  0.01960  0.82280  0.42440  1.0000 -0.1934698477
C   C71       1.0  0.82280  0.01960  0.73320  1.0000 -0.1934698477
C   C72       1.0  0.42440  0.73320  0.01960  1.0000 -0.1934698477
C   C73       1.0  0.01960  0.73320  0.42440  1.0000 -0.1934698477
C   C74       1.0  0.73320  0.01960  0.82280  1.0000 -0.1934698477
C   C75       1.0  0.42440  0.82280  0.01960  1.0000 -0.1934698477
C   C76       1.0  0.82280  0.42440  0.73320  1.0000 -0.1934698477
C   C77       1.0  0.42440  0.01960  0.73320  1.0000 -0.1934698477
C   C78       1.0  0.82280  0.73320  0.01960  1.0000 -0.1934698477
C   C79       1.0  0.01960  0.42440  0.82280  1.0000 -0.1934698477
C   C80       1.0  0.73320  0.82280  0.42440  1.0000 -0.1934698477
C   C81       1.0  0.73320  0.42440  0.01960  1.0000 -0.1934698477
C   C82       1.0  0.01960  0.82280  0.73320  1.0000 -0.1934698477
C   C83       1.0  0.82280  0.01960  0.42440  1.0000 -0.1934698477
C   C84       1.0  0.42440  0.73320  0.82280  1.0000 -0.1934698477
C   C85       1.0  0.98040  0.26680  0.17720  1.0000 -0.1934698477
C   C86       1.0  0.26680  0.98040  0.57560  1.0000 -0.1934698477
C   C87       1.0  0.57560  0.17720  0.26680  1.0000 -0.1934698477
C   C88       1.0  0.17720  0.57560  0.98040  1.0000 -0.1934698477
C   C89       1.0  0.57560  0.98040  0.17720  1.0000 -0.1934698477
C   C90       1.0  0.17720  0.26680  0.57560  1.0000 -0.1934698477
C   C91       1.0  0.98040  0.57560  0.26680  1.0000 -0.1934698477
C   C92       1.0  0.26680  0.17720  0.98040  1.0000 -0.1934698477
C   C93       1.0  0.26680  0.57560  0.17720  1.0000 -0.1934698477
C   C94       1.0  0.98040  0.17720  0.57560  1.0000 -0.1952463553
C   C95       1.0  0.17720  0.98040  0.26680  1.0000 -0.1934698477
C   C96       1.0  0.57560  0.26680  0.98040  1.0000 -0.1934698477
C   C97       1.0  0.98490  0.21990  0.62690  1.0000 -0.1012393214
C   C98       1.0  0.21990  0.98490  0.16830  1.0000 -0.1012393214
C   C99       1.0  0.62690  0.16830  0.98490  1.0000 -0.1012393214
C   C100      1.0  0.16830  0.62690  0.21990  1.0000 -0.1012393214
C   C101      1.0  0.62690  0.98490  0.21990  1.0000 -0.1012393214
C   C102      1.0  0.16830  0.21990  0.98490  1.0000 -0.1012393214
C   C103      1.0  0.98490  0.62690  0.16830  1.0000 -0.1012393214
C   C104      1.0  0.21990  0.16830  0.62690  1.0000 -0.1012393214
C   C105      1.0  0.21990  0.62690  0.98490  1.0000 -0.1012393214
C   C106      1.0  0.98490  0.16830  0.21990  1.0000 -0.1012393214
C   C107      1.0  0.16830  0.98490  0.62690  1.0000 -0.1012393214
C   C108      1.0  0.62690  0.21990  0.16830  1.0000 -0.1012393214
C   C109      1.0  0.01510  0.78010  0.83170  1.0000 -0.1012393214
C   C110      1.0  0.78010  0.01510  0.37310  1.0000 -0.1012393214
C   C111      1.0  0.37310  0.83170  0.78010  1.0000 -0.1012393214
C   C112      1.0  0.83170  0.37310  0.01510  1.0000 -0.1012393214
C   C113      1.0  0.37310  0.01510  0.83170  1.0000 -0.1012393214
C   C114      1.0  0.83170  0.78010  0.37310  1.0000 -0.1012393214
C   C115      1.0  0.01510  0.37310  0.78010  1.0000 -0.1012393214
C   C116      1.0  0.78010  0.83170  0.01510  1.0000 -0.1012393214
C   C117      1.0  0.78010  0.37310  0.83170  1.0000 -0.1012393214
C   C118      1.0  0.01510  0.83170  0.37310  1.0000 -0.1012393214
C   C119      1.0  0.83170  0.01510  0.78010  1.0000 -0.1012393214
C   C120      1.0  0.37310  0.78010  0.01510  1.0000 -0.1012393214
C   C121      1.0  0.01510  0.78010  0.37310  1.0000 -0.1012393214
C   C122      1.0  0.78010  0.01510  0.83170  1.0000 -0.1012393214
C   C123      1.0  0.37310  0.83170  0.01510  1.0000 -0.1012393214
C   C124      1.0  0.83170  0.37310  0.78010  1.0000 -0.1012393214
C   C125      1.0  0.37310  0.01510  0.78010  1.0000 -0.1012393214
C   C126      1.0  0.83170  0.78010  0.01510  1.0000 -0.1012393214
C   C127      1.0  0.01510  0.37310  0.83170  1.0000 -0.1012393214
C   C128      1.0  0.78010  0.83170  0.37310  1.0000 -0.1012393214
C   C129      1.0  0.78010  0.37310  0.01510  1.0000 -0.1012393214
C   C130      1.0  0.01510  0.83170  0.78010  1.0000 -0.1012393214
C   C131      1.0  0.83170  0.01510  0.37310  1.0000 -0.1012393214
C   C132      1.0  0.37310  0.78010  0.83170  1.0000 -0.1012393214
C   C133      1.0  0.98490  0.21990  0.16830  1.0000 -0.1012393214
C   C134      1.0  0.21990  0.98490  0.62690  1.0000 -0.1012393214
C   C135      1.0  0.62690  0.16830  0.21990  1.0000 -0.1012393214
C   C136      1.0  0.16830  0.62690  0.98490  1.0000 -0.1012393214
C   C137      1.0  0.62690  0.98490  0.16830  1.0000 -0.1012393214
C   C138      1.0  0.16830  0.21990  0.62690  1.0000 -0.1012393214
C   C139      1.0  0.98490  0.62690  0.21990  1.0000 -0.1012393214
C   C140      1.0  0.21990  0.16830  0.98490  1.0000 -0.1012393214
C   C141      1.0  0.21990  0.62690  0.16830  1.0000 -0.1012393214
C   C142      1.0  0.98490  0.16830  0.62690  1.0000 -0.1012393214
C   C143      1.0  0.16830  0.98490  0.21990  1.0000 -0.1012393214
C   C144      1.0  0.62690  0.21990  0.98490  1.0000 -0.1012393214
S   S1        1.0  0.97433  0.24905  0.52757  1.0000 0.2396771202
S   S2        1.0  0.24905  0.97433  0.24905  1.0000 0.2396771202
S   S3        1.0  0.52757  0.24905  0.97433  1.0000 0.2396771202
S   S4        1.0  0.24905  0.52757  0.24905  1.0000 0.2396771202
S   S5        1.0  0.52757  0.97433  0.24905  1.0000 0.2396771202
S   S6        1.0  0.24905  0.24905  0.97433  1.0000 0.2396771202
S   S7        1.0  0.97433  0.52757  0.24905  1.0000 0.2396771202
S   S8        1.0  0.24905  0.24905  0.52757  1.0000 0.2396771202
S   S9        1.0  0.24905  0.52757  0.97433  1.0000 0.2396771202
S   S10       1.0  0.97433  0.24905  0.24905  1.0000 0.2396771202
S   S11       1.0  0.24905  0.97433  0.52757  1.0000 0.2396771202
S   S12       1.0  0.52757  0.24905  0.24905  1.0000 0.2396771202
S   S13       1.0  0.02567  0.75095  0.75095  1.0000 0.2396771202
S   S14       1.0  0.75095  0.02567  0.47243  1.0000 0.2396771202
S   S15       1.0  0.47243  0.75095  0.75095  1.0000 0.2396771202
S   S16       1.0  0.75095  0.47243  0.02567  1.0000 0.2396771202
S   S17       1.0  0.47243  0.02567  0.75095  1.0000 0.2396771202
S   S18       1.0  0.75095  0.75095  0.47243  1.0000 0.2396771202
S   S19       1.0  0.02567  0.47243  0.75095  1.0000 0.2396771202
S   S20       1.0  0.75095  0.75095  0.02567  1.0000 0.2557419672
S   S21       1.0  0.75095  0.47243  0.75095  1.0000 0.251902087
S   S22       1.0  0.02567  0.75095  0.47243  1.0000 0.2396771202
S   S23       1.0  0.75095  0.02567  0.75095  1.0000 0.2396771202
S   S24       1.0  0.47243  0.75095  0.02567  1.0000 0.2396771202
O   O1        1.0  0.93580  0.45640  0.54360  1.0000 -1.1682736442
O   O2        1.0  0.45640  0.93580  0.06420  1.0000 -1.1639049575
O   O3        1.0  0.54360  0.06420  0.93580  1.0000 -1.1639049575
O   O4        1.0  0.06420  0.54360  0.45640  1.0000 -1.1682736442
O   O5        1.0  0.54360  0.93580  0.45640  1.0000 -1.1682736442
O   O6        1.0  0.06420  0.45640  0.93580  1.0000 -1.1682736442
O   O7        1.0  0.93580  0.54360  0.06420  1.0000 -1.1682736442
O   O8        1.0  0.45640  0.06420  0.54360  1.0000 -1.1639049575
O   O9        1.0  0.45640  0.54360  0.93580  1.0000 -1.1682736442
O   O10       1.0  0.93580  0.06420  0.45640  1.0000 -1.1682736442
O   O11       1.0  0.06420  0.93580  0.54360  1.0000 -1.1639049575
O   O12       1.0  0.54360  0.45640  0.06420  1.0000 -1.1682736442
O   O13       1.0  0.06420  0.54360  0.93580  1.0000 -1.1682736442
O   O14       1.0  0.54360  0.06420  0.45640  1.0000 -1.1682736442
O   O15       1.0  0.45640  0.93580  0.54360  1.0000 -1.1639049575
O   O16       1.0  0.93580  0.45640  0.06420  1.0000 -1.1682736442
O   O17       1.0  0.45640  0.06420  0.93580  1.0000 -1.1639049575
O   O18       1.0  0.93580  0.54360  0.45640  1.0000 -1.1682736442
O   O19       1.0  0.06420  0.45640  0.54360  1.0000 -1.1639049575
O   O20       1.0  0.54360  0.93580  0.06420  1.0000 -1.1639049575
O   O21       1.0  0.54360  0.45640  0.93580  1.0000 -1.1639049575
O   O22       1.0  0.06420  0.93580  0.45640  1.0000 -1.1682736442
O   O23       1.0  0.93580  0.06420  0.54360  1.0000 -1.1639049575
O   O24       1.0  0.45640  0.54360  0.06420  1.0000 -1.1682736442
O   O25       1.0  0.95520  0.50100  0.58860  1.0000 -1.1682736442
O   O26       1.0  0.50100  0.95520  0.95520  1.0000 -1.1682736442
O   O27       1.0  0.58860  0.95520  0.95520  1.0000 -1.1682736442
O   O28       1.0  0.95520  0.58860  0.50100  1.0000 -1.1682736442
O   O29       1.0  0.58860  0.95520  0.50100  1.0000 -1.1682736442
O   O30       1.0  0.95520  0.50100  0.95520  1.0000 -1.1682736442
O   O31       1.0  0.95520  0.58860  0.95520  1.0000 -1.1682736442
O   O32       1.0  0.50100  0.95520  0.58860  1.0000 -1.1763990685
O   O33       1.0  0.50100  0.58860  0.95520  1.0000 -1.1682736442
O   O34       1.0  0.95520  0.95520  0.50100  1.0000 -1.1682736442
O   O35       1.0  0.95520  0.95520  0.58860  1.0000 -1.1763990685
O   O36       1.0  0.58860  0.50100  0.95520  1.0000 -1.1682736442
O   O37       1.0  0.04480  0.49900  0.04480  1.0000 -1.1682736442
O   O38       1.0  0.49900  0.04480  0.41140  1.0000 -1.1682736442
O   O39       1.0  0.41140  0.04480  0.49900  1.0000 -1.1682736442
O   O40       1.0  0.04480  0.41140  0.04480  1.0000 -1.1682736442
O   O41       1.0  0.41140  0.04480  0.04480  1.0000 -1.1682736442
O   O42       1.0  0.04480  0.49900  0.41140  1.0000 -1.1682736442
O   O43       1.0  0.04480  0.41140  0.49900  1.0000 -1.1682736442
O   O44       1.0  0.49900  0.04480  0.04480  1.0000 -1.1682736442
O   O45       1.0  0.49900  0.41140  0.04480  1.0000 -1.1682736442
O   O46       1.0  0.04480  0.04480  0.41140  1.0000 -1.1682736442
O   O47       1.0  0.04480  0.04480  0.49900  1.0000 -1.1682736442
O   O48       1.0  0.41140  0.49900  0.04480  1.0000 -1.1682736442
O   O49       1.0  0.97450  0.36290  0.50930  1.0000 -0.6219662668
O   O50       1.0  0.36290  0.97450  0.15330  1.0000 -0.6219662668
O   O51       1.0  0.50930  0.15330  0.97450  1.0000 -0.6219662668
O   O52       1.0  0.15330  0.50930  0.36290  1.0000 -0.6219662668
O   O53       1.0  0.50930  0.97450  0.36290  1.0000 -0.6219662668
O   O54       1.0  0.15330  0.36290  0.97450  1.0000 -0.6219662668
O   O55       1.0  0.97450  0.50930  0.15330  1.0000 -0.6219662668
O   O56       1.0  0.36290  0.15330  0.50930  1.0000 -0.6219662668
O   O57       1.0  0.36290  0.50930  0.97450  1.0000 -0.6219662668
O   O58       1.0  0.97450  0.15330  0.36290  1.0000 -0.6219662668
O   O59       1.0  0.15330  0.97450  0.50930  1.0000 -0.6219662668
O   O60       1.0  0.50930  0.36290  0.15330  1.0000 -0.6219662668
O   O61       1.0  0.02550  0.63710  0.84670  1.0000 -0.6219662668
O   O62       1.0  0.63710  0.02550  0.49070  1.0000 -0.6219662668
O   O63       1.0  0.49070  0.84670  0.63710  1.0000 -0.6219662668
O   O64       1.0  0.84670  0.49070  0.02550  1.0000 -0.6219662668
O   O65       1.0  0.49070  0.02550  0.84670  1.0000 -0.6219662668
O   O66       1.0  0.84670  0.63710  0.49070  1.0000 -0.6219662668
O   O67       1.0  0.02550  0.49070  0.63710  1.0000 -0.6219662668
O   O68       1.0  0.63710  0.84670  0.02550  1.0000 -0.6219662668
O   O69       1.0  0.63710  0.49070  0.84670  1.0000 -0.6219662668
O   O70       1.0  0.02550  0.84670  0.49070  1.0000 -0.6219662668
O   O71       1.0  0.84670  0.02550  0.63710  1.0000 -0.6219662668
O   O72       1.0  0.49070  0.63710  0.02550  1.0000 -0.6219662668
O   O73       1.0  0.02550  0.63710  0.49070  1.0000 -0.6219662668
O   O74       1.0  0.63710  0.02550  0.84670  1.0000 -0.6219662668
O   O75       1.0  0.49070  0.84670  0.02550  1.0000 -0.6258225009
O   O76       1.0  0.84670  0.49070  0.63710  1.0000 -0.6219662668
O   O77       1.0  0.49070  0.02550  0.63710  1.0000 -0.6219662668
O   O78       1.0  0.84670  0.63710  0.02550  1.0000 -0.6219662668
O   O79       1.0  0.02550  0.49070  0.84670  1.0000 -0.6219662668
O   O80       1.0  0.63710  0.84670  0.49070  1.0000 -0.6219662668
O   O81       1.0  0.63710  0.49070  0.02550  1.0000 -0.6219662668
O   O82       1.0  0.02550  0.84670  0.63710  1.0000 -0.6219662668
O   O83       1.0  0.84670  0.02550  0.49070  1.0000 -0.6219662668
O   O84       1.0  0.49070  0.63710  0.84670  1.0000 -0.6219662668
O   O85       1.0  0.97450  0.36290  0.15330  1.0000 -0.6219662668
O   O86       1.0  0.36290  0.97450  0.50930  1.0000 -0.6219662668
O   O87       1.0  0.50930  0.15330  0.36290  1.0000 -0.6219662668
O   O88       1.0  0.15330  0.50930  0.97450  1.0000 -0.6219662668
O   O89       1.0  0.50930  0.97450  0.15330  1.0000 -0.6219662668
O   O90       1.0  0.15330  0.36290  0.50930  1.0000 -0.6219662668
O   O91       1.0  0.97450  0.50930  0.36290  1.0000 -0.6219662668
O   O92       1.0  0.36290  0.15330  0.97450  1.0000 -0.6219662668
O   O93       1.0  0.36290  0.50930  0.15330  1.0000 -0.6219662668
O   O94       1.0  0.97450  0.15330  0.50930  1.0000 -0.6219662668
O   O95       1.0  0.15330  0.97450  0.36290  1.0000 -0.6219662668
O   O96       1.0  0.50930  0.36290  0.97450  1.0000 -0.6219662668
O   O97       1.0  0.98574  0.33562  0.59600  1.0000 -0.5700626028
O   O98       1.0  0.33562  0.98574  0.08264  1.0000 -0.5700626028
O   O99       1.0  0.59600  0.08264  0.98574  1.0000 -0.5700626028
O   O100      1.0  0.08264  0.59600  0.33562  1.0000 -0.5700626028
O   O101      1.0  0.59600  0.98574  0.33562  1.0000 -0.5700626028
O   O102      1.0  0.08264  0.33562  0.98574  1.0000 -0.5700626028
O   O103      1.0  0.98574  0.59600  0.08264  1.0000 -0.5700626028
O   O104      1.0  0.33562  0.08264  0.59600  1.0000 -0.5700626028
O   O105      1.0  0.33562  0.59600  0.98574  1.0000 -0.5700626028
O   O106      1.0  0.98574  0.08264  0.33562  1.0000 -0.5700626028
O   O107      1.0  0.08264  0.98574  0.59600  1.0000 -0.5700626028
O   O108      1.0  0.59600  0.33562  0.08264  1.0000 -0.5700626028
O   O109      1.0  0.01426  0.66438  0.91736  1.0000 -0.5700626028
O   O110      1.0  0.66438  0.01426  0.40400  1.0000 -0.5700626028
O   O111      1.0  0.40400  0.91736  0.66438  1.0000 -0.5700626028
O   O112      1.0  0.91736  0.40400  0.01426  1.0000 -0.5700626028
O   O113      1.0  0.40400  0.01426  0.91736  1.0000 -0.5700626028
O   O114      1.0  0.91736  0.66438  0.40400  1.0000 -0.5700626028
O   O115      1.0  0.01426  0.40400  0.66438  1.0000 -0.5700626028
O   O116      1.0  0.66438  0.91736  0.01426  1.0000 -0.5700626028
O   O117      1.0  0.66438  0.40400  0.91736  1.0000 -0.5700626028
O   O118      1.0  0.01426  0.91736  0.40400  1.0000 -0.5700626028
O   O119      1.0  0.91736  0.01426  0.66438  1.0000 -0.5700626028
O   O120      1.0  0.40400  0.66438  0.01426  1.0000 -0.5700626028
O   O121      1.0  0.01426  0.66438  0.40400  1.0000 -0.5700626028
O   O122      1.0  0.66438  0.01426  0.91736  1.0000 -0.5700626028
O   O123      1.0  0.40400  0.91736  0.01426  1.0000 -0.5700626028
O   O124      1.0  0.91736  0.40400  0.66438  1.0000 -0.5700626028
O   O125      1.0  0.40400  0.01426  0.66438  1.0000 -0.5700626028
O   O126      1.0  0.91736  0.66438  0.01426  1.0000 -0.5700626028
O   O127      1.0  0.01426  0.40400  0.91736  1.0000 -0.5700626028
O   O128      1.0  0.66438  0.91736  0.40400  1.0000 -0.5700626028
O   O129      1.0  0.66438  0.40400  0.01426  1.0000 -0.5700626028
O   O130      1.0  0.01426  0.91736  0.66438  1.0000 -0.5700626028
O   O131      1.0  0.91736  0.01426  0.40400  1.0000 -0.5700626028
O   O132      1.0  0.40400  0.66438  0.91736  1.0000 -0.5700626028
O   O133      1.0  0.98574  0.33562  0.08264  1.0000 -0.5700626028
O   O134      1.0  0.33562  0.98574  0.59600  1.0000 -0.5700626028
O   O135      1.0  0.59600  0.08264  0.33562  1.0000 -0.5700626028
O   O136      1.0  0.08264  0.59600  0.98574  1.0000 -0.5700626028
O   O137      1.0  0.59600  0.98574  0.08264  1.0000 -0.5700626028
O   O138      1.0  0.08264  0.33562  0.59600  1.0000 -0.5700626028
O   O139      1.0  0.98574  0.59600  0.33562  1.0000 -0.5700626028
O   O140      1.0  0.33562  0.08264  0.98574  1.0000 -0.5700626028
O   O141      1.0  0.33562  0.59600  0.08264  1.0000 -0.5700626028
O   O142      1.0  0.98574  0.08264  0.59600  1.0000 -0.5700626028
O   O143      1.0  0.08264  0.98574  0.33562  1.0000 -0.5700626028
O   O144      1.0  0.59600  0.33562  0.98574  1.0000 -0.5700626028
