# DDEC6 charges by PACMAN v1.1 (https://github.com/mtap-research/PACMAN-charge/)
data_2023[Cd][dia]3[ASR]1
_chemical_formula_sum              "Cd2 H80 C88 N8 O16"
_cell_length_a       18.4677
_cell_length_b       15.1907
_cell_length_c       14.3918
_cell_angle_alpha    77.206
_cell_angle_beta     53.3342
_cell_angle_gamma    49.4599

_symmetry_space_group_name_H-M    "P 1"
_symmetry_Int_Tables_number       1

loop_
  _symmetry_equiv_pos_as_xyz
  'x, y, z'

loop_
  _atom_site_type_symbol
  _atom_site_label
  _atom_site_symmetry_multiplicity
  _atom_site_fract_x
  _atom_site_fract_y
  _atom_site_fract_z
  _atom_site_occupancy
  _atom_site_charge
Cd  Cd1       1.0  0.25000  0.25000  0.25000  1.0000 0.9328526773
Cd  Cd2       1.0  0.00000  0.00000  0.00000  1.0000 0.9328526773
H   H1        1.0  0.10616  0.23630  0.66952  1.0000 0.138225276
H   H2        1.0  0.23630  0.10616  0.98802  1.0000 0.138225276
H   H3        1.0  0.98802  0.66952  0.23630  1.0000 0.138225276
H   H4        1.0  0.66952  0.98802  0.10616  1.0000 0.138225276
H   H5        1.0  0.14384  0.01370  0.58048  1.0000 0.138225276
H   H6        1.0  0.01370  0.14384  0.26198  1.0000 0.138225276
H   H7        1.0  0.26198  0.58048  0.01370  1.0000 0.138225276
H   H8        1.0  0.58048  0.26198  0.14384  1.0000 0.138225276
H   H9        1.0  0.96110  0.28362  0.87342  1.0000 0.1323840414
H   H10       1.0  0.28362  0.96110  0.88186  1.0000 0.1323840414
H   H11       1.0  0.88186  0.87342  0.28362  1.0000 0.1323840414
H   H12       1.0  0.87342  0.88186  0.96110  1.0000 0.1323840414
H   H13       1.0  0.28890  0.96638  0.37658  1.0000 0.1323840414
H   H14       1.0  0.96638  0.28890  0.36814  1.0000 0.1323840414
H   H15       1.0  0.36814  0.37658  0.96638  1.0000 0.1323840414
H   H16       1.0  0.37658  0.36814  0.28890  1.0000 0.1323840414
H   H17       1.0  0.71581  0.44157  0.82761  1.0000 0.1205220638
H   H18       1.0  0.44157  0.71581  0.01501  1.0000 0.1205220638
H   H19       1.0  0.01501  0.82761  0.44157  1.0000 0.1205220638
H   H20       1.0  0.82761  0.01501  0.71581  1.0000 0.1205220638
H   H21       1.0  0.53419  0.80843  0.42239  1.0000 0.1205220638
H   H22       1.0  0.80843  0.53419  0.23499  1.0000 0.1205220638
H   H23       1.0  0.23499  0.42239  0.80843  1.0000 0.1205220638
H   H24       1.0  0.42239  0.23499  0.53419  1.0000 0.1205220638
H   H25       1.0  0.85424  0.39734  0.62296  1.0000 0.138225276
H   H26       1.0  0.39734  0.85424  0.12546  1.0000 0.138225276
H   H27       1.0  0.12546  0.62296  0.39734  1.0000 0.138225276
H   H28       1.0  0.62296  0.12546  0.85424  1.0000 0.1323840414
H   H29       1.0  0.39576  0.85266  0.62704  1.0000 0.138225276
H   H30       1.0  0.85266  0.39576  0.12454  1.0000 0.138225276
H   H31       1.0  0.12454  0.62704  0.85266  1.0000 0.138225276
H   H32       1.0  0.62704  0.12454  0.39576  1.0000 0.138225276
H   H33       1.0  0.77434  0.33462  0.02976  1.0000 0.138225276
H   H34       1.0  0.33462  0.77434  0.86128  1.0000 0.138225276
H   H35       1.0  0.86128  0.02976  0.33462  1.0000 0.138225276
H   H36       1.0  0.02976  0.86128  0.77434  1.0000 0.138225276
H   H37       1.0  0.47566  0.91538  0.22024  1.0000 0.138225276
H   H38       1.0  0.91538  0.47566  0.38872  1.0000 0.138225276
H   H39       1.0  0.38872  0.22024  0.91538  1.0000 0.138225276
H   H40       1.0  0.22024  0.38872  0.47566  1.0000 0.138225276
H   H41       1.0  0.67383  0.40573  0.01373  1.0000 0.1205220638
H   H42       1.0  0.40573  0.67383  0.90671  1.0000 0.1205220638
H   H43       1.0  0.90671  0.01373  0.40573  1.0000 0.1205220638
H   H44       1.0  0.01373  0.90671  0.67383  1.0000 0.1205220638
H   H45       1.0  0.57617  0.84427  0.23627  1.0000 0.1205220638
H   H46       1.0  0.84427  0.57617  0.34329  1.0000 0.1205220638
H   H47       1.0  0.34329  0.23627  0.84427  1.0000 0.1205220638
H   H48       1.0  0.23627  0.34329  0.57617  1.0000 0.1205220638
H   H49       1.0  0.55387  0.45165  0.24325  1.0000 0.1323840414
H   H50       1.0  0.45165  0.55387  0.75123  1.0000 0.1323840414
H   H51       1.0  0.75123  0.24325  0.45165  1.0000 0.1323840414
H   H52       1.0  0.24325  0.75123  0.55387  1.0000 0.1323840414
H   H53       1.0  0.69613  0.79835  0.00675  1.0000 0.1323840414
H   H54       1.0  0.79835  0.69613  0.49877  1.0000 0.1323840414
H   H55       1.0  0.49877  0.00675  0.79835  1.0000 0.1323840414
H   H56       1.0  0.00675  0.49877  0.69613  1.0000 0.1323840414
H   H57       1.0  0.54024  0.50010  0.34290  1.0000 0.138225276
H   H58       1.0  0.50010  0.54024  0.61676  1.0000 0.138225276
H   H59       1.0  0.61676  0.34290  0.50010  1.0000 0.138225276
H   H60       1.0  0.34290  0.61676  0.54024  1.0000 0.138225276
H   H61       1.0  0.70976  0.74990  0.90710  1.0000 0.138225276
H   H62       1.0  0.74990  0.70976  0.63324  1.0000 0.138225276
H   H63       1.0  0.63324  0.90710  0.74990  1.0000 0.138225276
H   H64       1.0  0.90710  0.63324  0.70976  1.0000 0.138225276
H   H65       1.0  0.66765  0.38799  0.23429  1.0000 0.138225276
H   H66       1.0  0.38799  0.66765  0.71007  1.0000 0.138225276
H   H67       1.0  0.71007  0.23429  0.38799  1.0000 0.138225276
H   H68       1.0  0.23429  0.71007  0.66765  1.0000 0.138225276
H   H69       1.0  0.58235  0.86201  0.01571  1.0000 0.138225276
H   H70       1.0  0.86201  0.58235  0.53993  1.0000 0.138225276
H   H71       1.0  0.53993  0.01571  0.86201  1.0000 0.138225276
H   H72       1.0  0.01571  0.53993  0.58235  1.0000 0.138225276
H   H73       1.0  0.74260  0.57362  0.91850  1.0000 0.1144680597
H   H74       1.0  0.57362  0.74260  0.76528  1.0000 0.1144680597
H   H75       1.0  0.76528  0.91850  0.57362  1.0000 0.1144680597
H   H76       1.0  0.91850  0.76528  0.74260  1.0000 0.1144680597
H   H77       1.0  0.50740  0.67638  0.33150  1.0000 0.1144680597
H   H78       1.0  0.67638  0.50740  0.48472  1.0000 0.1144680597
H   H79       1.0  0.48472  0.33150  0.67638  1.0000 0.1144680597
H   H80       1.0  0.33150  0.48472  0.50740  1.0000 0.1144680597
C   C1        1.0  0.08870  0.28358  0.48922  1.0000 0.5147810198
C   C2        1.0  0.28358  0.08870  0.13850  1.0000 0.5147810198
C   C3        1.0  0.13850  0.48922  0.28358  1.0000 0.5147810198
C   C4        1.0  0.48922  0.13850  0.08870  1.0000 0.5147810198
C   C5        1.0  0.16130  0.96642  0.76078  1.0000 0.5147810198
C   C6        1.0  0.96642  0.16130  0.11150  1.0000 0.5147810198
C   C7        1.0  0.11150  0.76078  0.96642  1.0000 0.5147810198
C   C8        1.0  0.76078  0.11150  0.16130  1.0000 0.5147810198
C   C9        1.0  0.99677  0.31123  0.62337  1.0000 0.0336394657
C   C10       1.0  0.31123  0.99677  0.06863  1.0000 0.0336394657
C   C11       1.0  0.06863  0.62337  0.31123  1.0000 0.0336394657
C   C12       1.0  0.62337  0.06863  0.99677  1.0000 0.0336394657
C   C13       1.0  0.25323  0.93877  0.62663  1.0000 0.0336394657
C   C14       1.0  0.93877  0.25323  0.18137  1.0000 0.0336394657
C   C15       1.0  0.18137  0.62663  0.93877  1.0000 0.0336394657
C   C16       1.0  0.62663  0.18137  0.25323  1.0000 0.0336394657
C   C17       1.0  0.02774  0.27768  0.69992  1.0000 -0.1714099066
C   C18       1.0  0.27768  0.02774  0.99466  1.0000 -0.1714099066
C   C19       1.0  0.99466  0.69992  0.27768  1.0000 -0.1714099066
C   C20       1.0  0.69992  0.99466  0.02774  1.0000 -0.1714099066
C   C21       1.0  0.22226  0.97232  0.55008  1.0000 -0.1714099066
C   C22       1.0  0.97232  0.22226  0.25534  1.0000 -0.1714099066
C   C23       1.0  0.25534  0.55008  0.97232  1.0000 -0.1714099066
C   C24       1.0  0.55008  0.25534  0.22226  1.0000 -0.1714099066
C   C25       1.0  0.94083  0.30631  0.82169  1.0000 0.0375668744
C   C26       1.0  0.30631  0.94083  0.93117  1.0000 0.0375668744
C   C27       1.0  0.93117  0.82169  0.30631  1.0000 0.0375668744
C   C28       1.0  0.82169  0.93117  0.94083  1.0000 0.0375668744
C   C29       1.0  0.30917  0.94369  0.42831  1.0000 0.0375668744
C   C30       1.0  0.94369  0.30917  0.31883  1.0000 0.0375668744
C   C31       1.0  0.31883  0.42831  0.94369  1.0000 0.0375668744
C   C32       1.0  0.42831  0.31883  0.30917  1.0000 0.0375668744
C   C33       1.0  0.79501  0.40009  0.79431  1.0000 -0.0129254105
C   C34       1.0  0.40009  0.79501  0.01059  1.0000 -0.0129254105
C   C35       1.0  0.01059  0.79431  0.40009  1.0000 -0.0129254105
C   C36       1.0  0.79431  0.01059  0.79501  1.0000 -0.0129254105
C   C37       1.0  0.45499  0.84991  0.45569  1.0000 -0.0129254105
C   C38       1.0  0.84991  0.45499  0.23941  1.0000 -0.0129254105
C   C39       1.0  0.23941  0.45569  0.84991  1.0000 -0.0129254105
C   C40       1.0  0.45569  0.23941  0.45499  1.0000 -0.0129254105
C   C41       1.0  0.87717  0.37397  0.67243  1.0000 -0.1714099066
C   C42       1.0  0.37397  0.87717  0.07643  1.0000 -0.1714099066
C   C43       1.0  0.07643  0.67243  0.37397  1.0000 -0.1714099066
C   C44       1.0  0.67243  0.07643  0.87717  1.0000 -0.1714099066
C   C45       1.0  0.37283  0.87603  0.57757  1.0000 -0.1714099066
C   C46       1.0  0.87603  0.37283  0.17357  1.0000 -0.1714099066
C   C47       1.0  0.17357  0.57757  0.87603  1.0000 -0.1714099066
C   C48       1.0  0.57757  0.17357  0.37283  1.0000 -0.1714099066
C   C49       1.0  0.73661  0.39855  0.99805  1.0000 -0.190934275
C   C50       1.0  0.39855  0.73661  0.86679  1.0000 -0.190934275
C   C51       1.0  0.86679  0.99805  0.39855  1.0000 -0.190934275
C   C52       1.0  0.99805  0.86679  0.73661  1.0000 -0.190934275
C   C53       1.0  0.51339  0.85145  0.25195  1.0000 -0.190934275
C   C54       1.0  0.85145  0.51339  0.38321  1.0000 -0.190934275
C   C55       1.0  0.38321  0.25195  0.85145  1.0000 -0.190934275
C   C56       1.0  0.25195  0.38321  0.51339  1.0000 -0.190934275
C   C57       1.0  0.68073  0.51541  0.06239  1.0000 0.0166533229
C   C58       1.0  0.51541  0.68073  0.74147  1.0000 0.0166533229
C   C59       1.0  0.74147  0.06239  0.51541  1.0000 0.0166533229
C   C60       1.0  0.06239  0.74147  0.68073  1.0000 0.0166533229
C   C61       1.0  0.56927  0.73459  0.18761  1.0000 0.0166533229
C   C62       1.0  0.73459  0.56927  0.50853  1.0000 0.0166533229
C   C63       1.0  0.50853  0.18761  0.73459  1.0000 0.0166533229
C   C64       1.0  0.18761  0.50853  0.56927  1.0000 0.0166533229
C   C65       1.0  0.60922  0.54654  0.18746  1.0000 0.1205220638
C   C66       1.0  0.54654  0.60922  0.65678  1.0000 0.1205220638
C   C67       1.0  0.65678  0.18746  0.54654  1.0000 0.1205220638
C   C68       1.0  0.18746  0.65678  0.60922  1.0000 0.1205220638
C   C69       1.0  0.64078  0.70346  0.06254  1.0000 0.1205220638
C   C70       1.0  0.70346  0.64078  0.59322  1.0000 0.1205220638
C   C71       1.0  0.59322  0.06254  0.70346  1.0000 0.1205220638
C   C72       1.0  0.06254  0.59322  0.64078  1.0000 0.1205220638
C   C73       1.0  0.59114  0.46394  0.25846  1.0000 -0.4718378566
C   C74       1.0  0.46394  0.59114  0.68646  1.0000 -0.4718378566
C   C75       1.0  0.68646  0.25846  0.46394  1.0000 -0.4718378566
C   C76       1.0  0.25846  0.68646  0.59114  1.0000 -0.4718378566
C   C77       1.0  0.65886  0.78606  0.99154  1.0000 -0.4718378566
C   C78       1.0  0.78606  0.65886  0.56354  1.0000 -0.4718378566
C   C79       1.0  0.56354  0.99154  0.78606  1.0000 -0.4718378566
C   C80       1.0  0.99154  0.56354  0.65886  1.0000 -0.4718378566
C   C81       1.0  0.69502  0.59444  0.00216  1.0000 -0.2539813246
C   C82       1.0  0.59444  0.69502  0.70838  1.0000 -0.2539813246
C   C83       1.0  0.70838  0.00216  0.59444  1.0000 -0.2539813246
C   C84       1.0  0.00216  0.70838  0.69502  1.0000 -0.2539813246
C   C85       1.0  0.55498  0.65556  0.24784  1.0000 -0.2539813246
C   C86       1.0  0.65556  0.55498  0.54162  1.0000 -0.2539813246
C   C87       1.0  0.54162  0.24784  0.65556  1.0000 -0.2539813246
C   C88       1.0  0.24784  0.54162  0.55498  1.0000 -0.2539813246
N   N1        1.0  0.82802  0.36624  0.86576  1.0000 0.0958849259
N   N2        1.0  0.36624  0.82802  0.93998  1.0000 0.0958849259
N   N3        1.0  0.93998  0.86576  0.36624  1.0000 0.0958849259
N   N4        1.0  0.86576  0.93998  0.82802  1.0000 0.0958849259
N   N5        1.0  0.42198  0.88376  0.38424  1.0000 0.0958849259
N   N6        1.0  0.88376  0.42198  0.31002  1.0000 0.0958849259
N   N7        1.0  0.31002  0.38424  0.88376  1.0000 0.0958849259
N   N8        1.0  0.38424  0.31002  0.42198  1.0000 0.0958849259
O   O1        1.0  0.19384  0.22568  0.44892  1.0000 -0.5355389051
O   O2        1.0  0.22568  0.19384  0.13156  1.0000 -0.5355389051
O   O3        1.0  0.13156  0.44892  0.22568  1.0000 -0.5355389051
O   O4        1.0  0.44892  0.13156  0.19384  1.0000 -0.5355389051
O   O5        1.0  0.05616  0.02432  0.80108  1.0000 -0.5355389051
O   O6        1.0  0.02432  0.05616  0.11844  1.0000 -0.5355389051
O   O7        1.0  0.11844  0.80108  0.02432  1.0000 -0.5355389051
O   O8        1.0  0.80108  0.11844  0.05616  1.0000 -0.5355389051
O   O9        1.0  0.05302  0.32256  0.42684  1.0000 -0.5548371754
O   O10       1.0  0.32256  0.05302  0.19758  1.0000 -0.5548371754
O   O11       1.0  0.19758  0.42684  0.32256  1.0000 -0.5548371754
O   O12       1.0  0.42684  0.19758  0.05302  1.0000 -0.5548371754
O   O13       1.0  0.19698  0.92744  0.82316  1.0000 -0.5548371754
O   O14       1.0  0.92744  0.19698  0.05242  1.0000 -0.5553377948
O   O15       1.0  0.05242  0.82316  0.92744  1.0000 -0.5548371754
O   O16       1.0  0.82316  0.05242  0.19698  1.0000 -0.5548371754
