# DDEC6 charges by PACMAN v1.1 (https://github.com/mtap-research/PACMAN-charge/)
data_2023[Sm][bey]2[ASR]1
_chemical_formula_sum              "Sm4 H84 C128 O32"
_cell_length_a       9.6562
_cell_length_b       11.6905
_cell_length_c       35.064
_cell_angle_alpha    91.265
_cell_angle_beta     93.965
_cell_angle_gamma    93.603

_symmetry_space_group_name_H-M    "P 1"
_symmetry_Int_Tables_number       1

loop_
  _symmetry_equiv_pos_as_xyz
  'x, y, z'

loop_
  _atom_site_type_symbol
  _atom_site_label
  _atom_site_symmetry_multiplicity
  _atom_site_fract_x
  _atom_site_fract_y
  _atom_site_fract_z
  _atom_site_occupancy
  _atom_site_charge
Sm  Sm1       1.0  0.97511  0.52030  0.73819  1.0000 2.1204545233
Sm  Sm2       1.0  0.47605  0.48482  0.75441  1.0000 2.1204545233
Sm  Sm3       1.0  0.02489  0.47970  0.26181  1.0000 2.1134361956
Sm  Sm4       1.0  0.52395  0.51518  0.24559  1.0000 2.1204545233
H   H1        1.0  0.77595  0.71070  0.01608  1.0000 0.3538189713
H   H2        1.0  0.80679  0.30796  0.47802  1.0000 0.3538189713
H   H3        1.0  0.15342  0.90980  0.76756  1.0000 0.119706849
H   H4        1.0  0.23000  0.07579  0.80231  1.0000 0.119706849
H   H5        1.0  0.50726  0.89752  0.86481  1.0000 0.1101013769
H   H6        1.0  0.43854  0.73344  0.82812  1.0000 0.119706849
H   H7        1.0  0.39775  0.17978  0.84677  1.0000 0.119706849
H   H8        1.0  0.48954  0.20536  0.90439  1.0000 0.119706849
H   H9        1.0  0.69535  0.11213  0.94115  1.0000 0.119706849
H   H10       1.0  0.31518  0.94643  0.92101  1.0000 0.119706849
H   H11       1.0  0.75981  0.97202  0.98366  1.0000 0.1101013769
H   H12       1.0  0.37766  0.80935  0.96496  1.0000 0.119706849
H   H13       1.0  0.33275  0.10473  0.72077  1.0000 0.119706849
H   H14       1.0  0.25870  0.93024  0.69060  1.0000 0.119706849
H   H15       1.0  0.91410  0.07144  0.64495  1.0000 0.1101013769
H   H16       1.0  0.98012  0.24234  0.67847  1.0000 0.119706849
H   H17       1.0  0.04733  0.80557  0.65700  1.0000 0.1255120569
H   H18       1.0  0.96792  0.78372  0.59674  1.0000 0.119706849
H   H19       1.0  0.79096  0.90009  0.55460  1.0000 0.119706849
H   H20       1.0  0.76553  0.05285  0.51377  1.0000 0.1101013769
H   H21       1.0  0.15679  0.17728  0.54678  1.0000 0.119706849
H   H22       1.0  0.17934  0.02923  0.58921  1.0000 0.1101013769
H   H23       1.0  0.64964  0.66706  0.87200  1.0000 0.119706849
H   H24       1.0  0.74261  0.79156  0.92120  1.0000 0.1101013769
H   H25       1.0  0.06463  0.88494  0.85781  1.0000 0.1101013769
H   H26       1.0  0.97847  0.75354  0.81004  1.0000 0.119706849
H   H27       1.0  0.97880  0.89979  0.95049  1.0000 0.119706849
H   H28       1.0  0.05980  0.07503  0.94720  1.0000 0.1101013769
H   H29       1.0  0.17529  0.22245  0.91050  1.0000 0.1101013769
H   H30       1.0  0.16275  0.35541  0.86222  1.0000 0.119706849
H   H31       1.0  0.81621  0.18107  0.81442  1.0000 0.1255120569
H   H32       1.0  0.82811  0.04831  0.86280  1.0000 0.1101013769
H   H33       1.0  0.81225  0.33907  0.62108  1.0000 0.119706849
H   H34       1.0  0.72344  0.21917  0.57010  1.0000 0.1101013769
H   H35       1.0  0.40175  0.11263  0.63193  1.0000 0.1101013769
H   H36       1.0  0.48209  0.24252  0.68113  1.0000 0.119706849
H   H37       1.0  0.50001  0.10154  0.53946  1.0000 0.119706849
H   H38       1.0  0.42321  0.92429  0.54325  1.0000 0.1101013769
H   H39       1.0  0.63476  0.96016  0.63135  1.0000 0.1101013769
H   H40       1.0  0.63261  0.83396  0.68182  1.0000 0.1255120569
H   H41       1.0  0.29301  0.65885  0.63030  1.0000 0.119706849
H   H42       1.0  0.29400  0.78526  0.58032  1.0000 0.1028903905
H   H43       1.0  0.22405  0.28930  0.98392  1.0000 0.3538189713
H   H44       1.0  0.19321  0.69204  0.52198  1.0000 0.3538189713
H   H45       1.0  0.84658  0.09020  0.23244  1.0000 0.119706849
H   H46       1.0  0.77000  0.92421  0.19769  1.0000 0.119706849
H   H47       1.0  0.49274  0.10248  0.13519  1.0000 0.1101013769
H   H48       1.0  0.56146  0.26656  0.17188  1.0000 0.119706849
H   H49       1.0  0.60225  0.82022  0.15323  1.0000 0.119706849
H   H50       1.0  0.51046  0.79464  0.09561  1.0000 0.119706849
H   H51       1.0  0.30465  0.88787  0.05885  1.0000 0.119706849
H   H52       1.0  0.68482  0.05357  0.07899  1.0000 0.119706849
H   H53       1.0  0.24019  0.02798  0.01634  1.0000 0.1101013769
H   H54       1.0  0.62234  0.19065  0.03504  1.0000 0.119706849
H   H55       1.0  0.66725  0.89527  0.27923  1.0000 0.119706849
H   H56       1.0  0.74130  0.06976  0.30940  1.0000 0.119706849
H   H57       1.0  0.08590  0.92856  0.35505  1.0000 0.1101013769
H   H58       1.0  0.01988  0.75766  0.32153  1.0000 0.119706849
H   H59       1.0  0.95267  0.19443  0.34300  1.0000 0.1255120569
H   H60       1.0  0.03208  0.21628  0.40326  1.0000 0.119706849
H   H61       1.0  0.20904  0.09991  0.44540  1.0000 0.119706849
H   H62       1.0  0.23447  0.94715  0.48623  1.0000 0.1101013769
H   H63       1.0  0.84321  0.82272  0.45322  1.0000 0.119706849
H   H64       1.0  0.82066  0.97077  0.41079  1.0000 0.1101013769
H   H65       1.0  0.35036  0.33294  0.12800  1.0000 0.119706849
H   H66       1.0  0.25739  0.20844  0.07880  1.0000 0.1101013769
H   H67       1.0  0.93537  0.11506  0.14219  1.0000 0.1101013769
H   H68       1.0  0.02153  0.24646  0.18996  1.0000 0.119706849
H   H69       1.0  0.02120  0.10021  0.04951  1.0000 0.119706849
H   H70       1.0  0.94020  0.92497  0.05280  1.0000 0.1101013769
H   H71       1.0  0.82471  0.77755  0.08950  1.0000 0.1101013769
H   H72       1.0  0.83725  0.64459  0.13778  1.0000 0.119706849
H   H73       1.0  0.18379  0.81893  0.18558  1.0000 0.1255120569
H   H74       1.0  0.17189  0.95169  0.13720  1.0000 0.1101013769
H   H75       1.0  0.18775  0.66093  0.37892  1.0000 0.119706849
H   H76       1.0  0.27656  0.78083  0.42990  1.0000 0.1101013769
H   H77       1.0  0.59825  0.88737  0.36807  1.0000 0.1101013769
H   H78       1.0  0.51791  0.75748  0.31887  1.0000 0.119706849
H   H79       1.0  0.49999  0.89846  0.46054  1.0000 0.119706849
H   H80       1.0  0.57679  0.07571  0.45675  1.0000 0.1101013769
H   H81       1.0  0.36524  0.03984  0.36865  1.0000 0.1101013769
H   H82       1.0  0.36739  0.16604  0.31818  1.0000 0.1255120569
H   H83       1.0  0.70699  0.34115  0.36970  1.0000 0.119706849
H   H84       1.0  0.70600  0.21474  0.41968  1.0000 0.1028903905
C   C1        1.0  0.23630  0.69705  0.77222  1.0000 0.6620823924
C   C2        1.0  0.28640  0.80415  0.79470  1.0000 -0.0393274927
C   C3        1.0  0.22570  0.90720  0.78727  1.0000 -0.0984595574
C   C4        1.0  0.27010  0.00570  0.80838  1.0000 -0.1606179549
C   C5        1.0  0.37280  0.00408  0.83847  1.0000 0.119706849
C   C6        1.0  0.43510  0.90038  0.84507  1.0000 -0.149771889
C   C7        1.0  0.39370  0.80232  0.82343  1.0000 -0.0914818151
C   C8        1.0  0.41330  0.11160  0.86026  1.0000 -0.1426756823
C   C9        1.0  0.46860  0.12780  0.89620  1.0000 -0.149771889
C   C10       1.0  0.50150  0.04040  0.92483  1.0000 0.119706849
C   C11       1.0  0.63190  0.04870  0.94507  1.0000 -0.1426756823
C   C12       1.0  0.40630  0.95110  0.93329  1.0000 -0.149771889
C   C13       1.0  0.66990  0.96620  0.97068  1.0000 -0.1073268506
C   C14       1.0  0.44360  0.86940  0.95939  1.0000 -0.0984595574
C   C15       1.0  0.57650  0.87430  0.97753  1.0000 -0.0511594884
C   C16       1.0  0.61860  0.77770  0.00223  1.0000 0.5414522622
C   C17       1.0  0.21530  0.30510  0.72081  1.0000 0.6620823924
C   C18       1.0  0.16500  0.19168  0.70234  1.0000 -0.0393274927
C   C19       1.0  0.24690  0.09778  0.70567  1.0000 -0.0984595574
C   C20       1.0  0.20410  0.99449  0.68711  1.0000 -0.1606179549
C   C21       1.0  0.08110  0.98348  0.66326  1.0000 0.119706849
C   C22       1.0  0.99890  0.07772  0.66053  1.0000 -0.1426756823
C   C23       1.0  0.03870  0.18005  0.68013  1.0000 -0.0914818151
C   C24       1.0  0.04070  0.87320  0.64264  1.0000 -0.1426756823
C   C25       1.0  0.99560  0.85950  0.60572  1.0000 -0.149771889
C   C26       1.0  0.98520  0.95170  0.57769  1.0000 0.119706849
C   C27       1.0  0.86410  0.95810  0.55388  1.0000 -0.149771889
C   C28       1.0  0.84970  0.04820  0.52922  1.0000 -0.1073268506
C   C29       1.0  0.95700  0.13170  0.52691  1.0000 -0.0511594884
C   C30       1.0  0.08110  0.12250  0.54902  1.0000 -0.0984595574
C   C31       1.0  0.09450  0.03420  0.57410  1.0000 -0.1426756823
C   C32       1.0  0.94090  0.23410  0.50292  1.0000 0.5450883839
C   C33       1.0  0.74290  0.61903  0.80394  1.0000 0.6620823924
C   C34       1.0  0.80350  0.69818  0.83588  1.0000 -0.0393274927
C   C35       1.0  0.73460  0.71057  0.86921  1.0000 -0.0984595574
C   C36       1.0  0.78900  0.78573  0.89828  1.0000 -0.1606179549
C   C37       1.0  0.91230  0.85352  0.89417  1.0000 0.119706849
C   C38       1.0  0.98080  0.84017  0.86090  1.0000 -0.1426756823
C   C39       1.0  0.92890  0.76289  0.83227  1.0000 -0.0914818151
C   C40       1.0  0.97130  0.93208  0.92586  1.0000 -0.149771889
C   C41       1.0  0.01520  0.04225  0.92416  1.0000 -0.1426756823
C   C42       1.0  0.00490  0.12101  0.89182  1.0000 0.1101013769
C   C43       1.0  0.10210  0.21339  0.89092  1.0000 -0.1606179549
C   C44       1.0  0.09500  0.29290  0.86214  1.0000 -0.0984595574
C   C45       1.0  0.98830  0.28099  0.83308  1.0000 -0.0107972555
C   C46       1.0  0.88970  0.18949  0.83392  1.0000 -0.0984595574
C   C47       1.0  0.89670  0.11020  0.86272  1.0000 -0.149771889
C   C48       1.0  0.97990  0.36807  0.80220  1.0000 0.5797433887
C   C49       1.0  0.71330  0.38367  0.68793  1.0000 0.6620823924
C   C50       1.0  0.65630  0.30286  0.65592  1.0000 -0.0333763085
C   C51       1.0  0.72750  0.29437  0.62301  1.0000 -0.0984595574
C   C52       1.0  0.67630  0.22139  0.59297  1.0000 -0.1606179549
C   C53       1.0  0.55510  0.15082  0.59618  1.0000 0.1101013769
C   C54       1.0  0.48440  0.15966  0.62948  1.0000 -0.1426756823
C   C55       1.0  0.53270  0.23587  0.65898  1.0000 -0.0984595574
C   C56       1.0  0.50330  0.07080  0.56434  1.0000 -0.149771889
C   C57       1.0  0.46060  0.96050  0.56656  1.0000 -0.149771889
C   C58       1.0  0.46340  0.88689  0.60030  1.0000 0.1101013769
C   C59       1.0  0.56470  0.89925  0.63105  1.0000 -0.1606179549
C   C60       1.0  0.56400  0.82354  0.66108  1.0000 -0.0984595574
C   C61       1.0  0.46370  0.73264  0.66107  1.0000 -0.0107972555
C   C62       1.0  0.36280  0.72000  0.63062  1.0000 -0.0984595574
C   C63       1.0  0.36340  0.79570  0.60087  1.0000 -0.1606179549
C   C64       1.0  0.46530  0.64709  0.69248  1.0000 0.5797433887
C   C65       1.0  0.76370  0.30295  0.22778  1.0000 0.6620823924
C   C66       1.0  0.71360  0.19585  0.20530  1.0000 -0.0393274927
C   C67       1.0  0.77430  0.09280  0.21273  1.0000 -0.0984595574
C   C68       1.0  0.72990  0.99430  0.19162  1.0000 -0.1606179549
C   C69       1.0  0.62720  0.99592  0.16153  1.0000 0.119706849
C   C70       1.0  0.56490  0.09962  0.15493  1.0000 -0.1426756823
C   C71       1.0  0.60630  0.19768  0.17657  1.0000 -0.0914818151
C   C72       1.0  0.58670  0.88840  0.13974  1.0000 -0.1426756823
C   C73       1.0  0.53140  0.87220  0.10380  1.0000 -0.149771889
C   C74       1.0  0.49850  0.95960  0.07517  1.0000 0.119706849
C   C75       1.0  0.36810  0.95130  0.05493  1.0000 -0.1426756823
C   C76       1.0  0.59370  0.04890  0.06671  1.0000 -0.149771889
C   C77       1.0  0.33010  0.03380  0.02932  1.0000 -0.1073268506
C   C78       1.0  0.55640  0.13060  0.04061  1.0000 -0.0984595574
C   C79       1.0  0.42350  0.12570  0.02247  1.0000 -0.0511594884
C   C80       1.0  0.38140  0.22230  0.99777  1.0000 0.5414522622
C   C81       1.0  0.78470  0.69490  0.27919  1.0000 0.6620823924
C   C82       1.0  0.83500  0.80832  0.29766  1.0000 -0.0393274927
C   C83       1.0  0.75310  0.90222  0.29433  1.0000 -0.0984595574
C   C84       1.0  0.79590  0.00551  0.31289  1.0000 -0.1606179549
C   C85       1.0  0.91890  0.01652  0.33674  1.0000 0.119706849
C   C86       1.0  0.00110  0.92228  0.33947  1.0000 -0.149771889
C   C87       1.0  0.96130  0.81995  0.31987  1.0000 -0.0914818151
C   C88       1.0  0.95930  0.12680  0.35736  1.0000 -0.1426756823
C   C89       1.0  0.00440  0.14050  0.39428  1.0000 -0.149771889
C   C90       1.0  0.01480  0.04830  0.42231  1.0000 0.119706849
C   C91       1.0  0.13590  0.04190  0.44612  1.0000 -0.149771889
C   C92       1.0  0.15030  0.95180  0.47078  1.0000 -0.1073268506
C   C93       1.0  0.04300  0.86830  0.47309  1.0000 -0.0511594884
C   C94       1.0  0.91890  0.87750  0.45098  1.0000 -0.0984595574
C   C95       1.0  0.90550  0.96580  0.42590  1.0000 -0.1426756823
C   C96       1.0  0.05910  0.76590  0.49708  1.0000 0.5450883839
C   C97       1.0  0.25710  0.38097  0.19606  1.0000 0.6620823924
C   C98       1.0  0.19650  0.30182  0.16412  1.0000 -0.0393274927
C   C99       1.0  0.26540  0.28943  0.13079  1.0000 -0.0984595574
C   C100      1.0  0.21100  0.21427  0.10172  1.0000 -0.1606179549
C   C101      1.0  0.08770  0.14648  0.10583  1.0000 0.119706849
C   C102      1.0  0.01920  0.15983  0.13910  1.0000 -0.1426756823
C   C103      1.0  0.07110  0.23711  0.16773  1.0000 -0.0914818151
C   C104      1.0  0.02870  0.06792  0.07414  1.0000 -0.149771889
C   C105      1.0  0.98480  0.95775  0.07584  1.0000 -0.1426756823
C   C106      1.0  0.99510  0.87899  0.10818  1.0000 0.1101013769
C   C107      1.0  0.89790  0.78661  0.10908  1.0000 -0.1606179549
C   C108      1.0  0.90500  0.70710  0.13786  1.0000 -0.0984595574
C   C109      1.0  0.01170  0.71901  0.16692  1.0000 -0.0107972555
C   C110      1.0  0.11030  0.81051  0.16608  1.0000 -0.0984595574
C   C111      1.0  0.10330  0.88980  0.13728  1.0000 -0.149771889
C   C112      1.0  0.02010  0.63193  0.19780  1.0000 0.5797433887
C   C113      1.0  0.28670  0.61633  0.31207  1.0000 0.6620823924
C   C114      1.0  0.34370  0.69714  0.34408  1.0000 -0.0333763085
C   C115      1.0  0.27250  0.70563  0.37699  1.0000 -0.0984595574
C   C116      1.0  0.32370  0.77861  0.40703  1.0000 -0.1606179549
C   C117      1.0  0.44490  0.84918  0.40382  1.0000 0.1101013769
C   C118      1.0  0.51560  0.84034  0.37052  1.0000 -0.1426756823
C   C119      1.0  0.46730  0.76413  0.34102  1.0000 -0.0984595574
C   C120      1.0  0.49670  0.92920  0.43566  1.0000 -0.149771889
C   C121      1.0  0.53940  0.03950  0.43344  1.0000 -0.149771889
C   C122      1.0  0.53660  0.11311  0.39970  1.0000 0.1101013769
C   C123      1.0  0.43530  0.10075  0.36895  1.0000 -0.1606179549
C   C124      1.0  0.43600  0.17646  0.33892  1.0000 -0.0984595574
C   C125      1.0  0.53630  0.26736  0.33893  1.0000 -0.0107972555
C   C126      1.0  0.63720  0.28000  0.36938  1.0000 -0.0984595574
C   C127      1.0  0.63660  0.20430  0.39913  1.0000 -0.1606179549
C   C128      1.0  0.53470  0.35291  0.30752  1.0000 0.5797433887
O   O1        1.0  0.11380  0.69100  0.75679  1.0000 -0.6831083563
O   O2        1.0  0.31664  0.61671  0.77059  1.0000 -0.6976166632
O   O3        1.0  0.34333  0.31906  0.73064  1.0000 -0.6886599328
O   O4        1.0  0.13096  0.38174  0.72459  1.0000 -0.6976166632
O   O5        1.0  0.63189  0.42196  0.71066  1.0000 -0.6886599328
O   O6        1.0  0.81602  0.59875  0.77649  1.0000 -0.7063908245
O   O7        1.0  0.84273  0.40856  0.68989  1.0000 -0.6831083563
O   O8        1.0  0.61958  0.57808  0.80581  1.0000 -0.6831083563
O   O9        1.0  0.53700  0.70764  0.01434  1.0000 -0.4711306956
O   O10       1.0  0.75600  0.77536  0.00817  1.0000 -0.4711306956
O   O11       1.0  0.03610  0.30170  0.49657  1.0000 -0.4758278992
O   O12       1.0  0.81120  0.24562  0.48937  1.0000 -0.4711306956
O   O13       1.0  0.06781  0.45327  0.80289  1.0000 -0.6390605337
O   O14       1.0  0.88428  0.35403  0.77533  1.0000 -0.6390605337
O   O15       1.0  0.55891  0.65877  0.71962  1.0000 -0.6300070252
O   O16       1.0  0.37346  0.56399  0.69130  1.0000 -0.6390605337
O   O17       1.0  0.88620  0.30900  0.24321  1.0000 -0.6831083563
O   O18       1.0  0.68336  0.38329  0.22941  1.0000 -0.6976166632
O   O19       1.0  0.65667  0.68094  0.26936  1.0000 -0.6886599328
O   O20       1.0  0.86904  0.61826  0.27541  1.0000 -0.6976166632
O   O21       1.0  0.36811  0.57804  0.28934  1.0000 -0.6886599328
O   O22       1.0  0.18398  0.40125  0.22351  1.0000 -0.7063908245
O   O23       1.0  0.15727  0.59144  0.31011  1.0000 -0.6831083563
O   O24       1.0  0.38042  0.42192  0.19419  1.0000 -0.6831083563
O   O25       1.0  0.46300  0.29236  0.98566  1.0000 -0.4758278992
O   O26       1.0  0.24400  0.22464  0.99183  1.0000 -0.4711306956
O   O27       1.0  0.96390  0.69830  0.50343  1.0000 -0.4711306956
O   O28       1.0  0.18880  0.75438  0.51063  1.0000 -0.4648253288
O   O29       1.0  0.93219  0.54673  0.19711  1.0000 -0.6390605337
O   O30       1.0  0.11572  0.64597  0.22467  1.0000 -0.6390605337
O   O31       1.0  0.44109  0.34123  0.28038  1.0000 -0.6300070252
O   O32       1.0  0.62654  0.43601  0.30870  1.0000 -0.6390605337
