# DDEC6 charges by PACMAN v1.1 (https://github.com/mtap-research/PACMAN-charge/)
data_2023[Zn][sql]2[ASR]11
_chemical_formula_sum              "Zn2 H36 C60 N8 O8"
_cell_length_a       6.7736
_cell_length_b       12.7686
_cell_length_c       17.1744
_cell_angle_alpha    110.663
_cell_angle_beta     97.582
_cell_angle_gamma    89.165

_symmetry_space_group_name_H-M    "P 1"
_symmetry_Int_Tables_number       1

loop_
  _symmetry_equiv_pos_as_xyz
  'x, y, z'

loop_
  _atom_site_type_symbol
  _atom_site_label
  _atom_site_symmetry_multiplicity
  _atom_site_fract_x
  _atom_site_fract_y
  _atom_site_fract_z
  _atom_site_occupancy
  _atom_site_charge
Zn  Zn1       1.0  0.19857  0.00554  0.19970  1.0000 0.7473907016
Zn  Zn2       1.0  0.80143  0.99446  0.80030  1.0000 0.7473907016
H   H1        1.0  0.20140  0.19712  0.14146  1.0000 0.1191048733
H   H2        1.0  0.79860  0.80288  0.85854  1.0000 0.1191048733
H   H3        1.0  0.97274  0.41367  0.32531  1.0000 0.1306799543
H   H4        1.0  0.02726  0.58633  0.67469  1.0000 0.1306799543
H   H5        1.0  0.34302  0.03662  0.51149  1.0000 0.1119022742
H   H6        1.0  0.65698  0.96338  0.48851  1.0000 0.1191048733
H   H7        1.0  0.76195  0.13408  0.04935  1.0000 0.1191048733
H   H8        1.0  0.23805  0.86592  0.95065  1.0000 0.1191048733
H   H9        1.0  0.94180  0.72523  0.31639  1.0000 0.1191048733
H   H10       1.0  0.05820  0.27477  0.68361  1.0000 0.1191048733
H   H11       1.0  0.79518  0.97547  0.37362  1.0000 0.1191048733
H   H12       1.0  0.20482  0.02453  0.62638  1.0000 0.1191048733
H   H13       1.0  0.31141  0.62381  0.20168  1.0000 0.1306799543
H   H14       1.0  0.68859  0.37619  0.79832  1.0000 0.1306799543
H   H15       1.0  0.54536  0.82443  0.01065  1.0000 0.1119022742
H   H16       1.0  0.45464  0.17557  0.98935  1.0000 0.1119022742
H   H17       1.0  0.62756  0.93906  0.19665  1.0000 0.1119022742
H   H18       1.0  0.37244  0.06094  0.80335  1.0000 0.1119022742
H   H19       1.0  0.81613  0.80676  0.22912  1.0000 0.1384953501
H   H20       1.0  0.18387  0.19324  0.77088  1.0000 0.1384953501
H   H21       1.0  0.79107  0.27454  0.32040  1.0000 0.1384953501
H   H22       1.0  0.20893  0.72546  0.67960  1.0000 0.1384953501
H   H23       1.0  0.37994  0.35688  0.16047  1.0000 0.1384953501
H   H24       1.0  0.62006  0.64312  0.83953  1.0000 0.1384953501
H   H25       1.0  0.30380  0.45047  0.34420  1.0000 0.1119022742
H   H26       1.0  0.69620  0.54953  0.65580  1.0000 0.1119022742
H   H27       1.0  0.13556  0.76165  0.16739  1.0000 0.1191048733
H   H28       1.0  0.86444  0.23835  0.83261  1.0000 0.1191048733
H   H29       1.0  0.59735  0.11952  0.30036  1.0000 0.1191048733
H   H30       1.0  0.40265  0.88048  0.69964  1.0000 0.1191048733
H   H31       1.0  0.44307  0.82103  0.52726  1.0000 0.1306799543
H   H32       1.0  0.55693  0.17897  0.47274  1.0000 0.1306799543
H   H33       1.0  0.13709  0.77267  0.44303  1.0000 0.1191048733
H   H34       1.0  0.86291  0.22733  0.55697  1.0000 0.1191048733
H   H35       1.0  0.61179  0.49969  0.42786  1.0000 0.1119022742
H   H36       1.0  0.38821  0.50031  0.57214  1.0000 0.1119022742
C   C1        1.0  0.70190  0.61880  0.25220  1.0000 0.2185303338
C   C2        1.0  0.29810  0.38120  0.74780  1.0000 0.2185303338
C   C3        1.0  0.32240  0.21390  0.17900  1.0000 0.0890731121
C   C4        1.0  0.67760  0.78610  0.82100  1.0000 0.0890731121
C   C5        1.0  0.60780  0.33660  0.24330  1.0000 0.0890731121
C   C6        1.0  0.39220  0.66340  0.75670  1.0000 0.0890731121
C   C7        1.0  0.90450  0.46900  0.30810  1.0000 -0.2195940845
C   C8        1.0  0.09550  0.53100  0.69190  1.0000 -0.2195940845
C   C9        1.0  0.71790  0.44290  0.26060  1.0000 0.1890729658
C   C10       1.0  0.28210  0.55710  0.73940  1.0000 0.1890729658
C   C11       1.0  0.99250  0.57420  0.33080  1.0000 0.1191048733
C   C12       1.0  0.00750  0.42580  0.66920  1.0000 0.1191048733
C   C13       1.0  0.17320  0.01500  0.35790  1.0000 0.550966575
C   C14       1.0  0.82680  0.98500  0.64210  1.0000 0.550966575
C   C15       1.0  0.68010  0.97650  0.03800  1.0000 -0.0197132163
C   C16       1.0  0.31990  0.02350  0.96200  1.0000 -0.0197132163
C   C17       1.0  0.20390  0.02230  0.50670  1.0000 -0.1185299157
C   C18       1.0  0.79610  0.97770  0.49330  1.0000 -0.1185299157
C   C19       1.0  0.58820  0.70240  0.22360  1.0000 0.104095339
C   C20       1.0  0.41180  0.29760  0.77640  1.0000 0.104095339
C   C21       1.0  0.08100  0.00960  0.43130  1.0000 -0.0257270195
C   C22       1.0  0.91900  0.99040  0.56870  1.0000 -0.0257270195
C   C23       1.0  0.87580  0.94990  0.08130  1.0000 0.5439900301
C   C24       1.0  0.12420  0.05010  0.91870  1.0000 0.5439900301
C   C25       1.0  0.65540  0.07970  0.02990  1.0000 -0.1026782625
C   C26       1.0  0.34460  0.92030  0.97010  1.0000 -0.1026782625
C   C27       1.0  0.55600  0.66420  0.48500  1.0000 0.0490349076
C   C28       1.0  0.44400  0.33580  0.51500  1.0000 0.0490349076
C   C29       1.0  0.88800  0.65150  0.30220  1.0000 -0.2309222676
C   C30       1.0  0.11200  0.34850  0.69780  1.0000 -0.2309222676
C   C31       1.0  0.87870  0.98600  0.42500  1.0000 -0.1185299157
C   C32       1.0  0.12130  0.01400  0.57500  1.0000 -0.1185299157
C   C33       1.0  0.37930  0.68880  0.20240  1.0000 -0.1795506634
C   C34       1.0  0.62070  0.31120  0.79760  1.0000 -0.1795506634
C   C35       1.0  0.52640  0.89640  0.00680  1.0000 -0.1185299157
C   C36       1.0  0.47360  0.10360  0.99320  1.0000 -0.1185299157
C   C37       1.0  0.56240  0.87530  0.19930  1.0000 0.0890731121
C   C38       1.0  0.43760  0.12470  0.80070  1.0000 0.0890731121
C   C39       1.0  0.67520  0.79670  0.21870  1.0000 -0.1631812312
C   C40       1.0  0.32480  0.20330  0.78130  1.0000 -0.1631812312
C   C41       1.0  0.66860  0.26090  0.28380  1.0000 -0.1795506634
C   C42       1.0  0.33140  0.73910  0.71620  1.0000 -0.1795506634
C   C43       1.0  0.42870  0.30910  0.18980  1.0000 -0.1795506634
C   C44       1.0  0.57130  0.69090  0.81020  1.0000 -0.1795506634
C   C45       1.0  0.33230  0.52560  0.38110  1.0000 -0.1518765994
C   C46       1.0  0.66770  0.47440  0.61890  1.0000 -0.1518765994
C   C47       1.0  0.18910  0.60740  0.38540  1.0000 0.0890731121
C   C48       1.0  0.81090  0.39260  0.61460  1.0000 0.0890731121
C   C49       1.0  0.27590  0.77190  0.18260  1.0000 0.0890731121
C   C50       1.0  0.72410  0.22810  0.81740  1.0000 0.0890731121
C   C51       1.0  0.55350  0.16820  0.27110  1.0000 0.0890731121
C   C52       1.0  0.44650  0.83180  0.72890  1.0000 0.0890731121
C   C53       1.0  0.41440  0.74620  0.48990  1.0000 -0.1185299157
C   C54       1.0  0.58560  0.25380  0.51010  1.0000 -0.1185299157
C   C55       1.0  0.23360  0.71720  0.44020  1.0000 -0.132906691
C   C56       1.0  0.76640  0.28280  0.55980  1.0000 -0.132906691
C   C57       1.0  0.74530  0.69130  0.53880  1.0000 0.2598580263
C   C58       1.0  0.25470  0.30870  0.46120  1.0000 0.2598580263
C   C59       1.0  0.51440  0.55470  0.43080  1.0000 -0.132906691
C   C60       1.0  0.48560  0.44530  0.56920  1.0000 -0.132906691
N   N1        1.0  0.61950  0.51930  0.23300  1.0000 -0.3242737509
N   N2        1.0  0.38050  0.48070  0.76700  1.0000 -0.3242737509
N   N3        1.0  0.38040  0.14260  0.21900  1.0000 -0.2309222676
N   N4        1.0  0.61960  0.85740  0.78100  1.0000 -0.2309222676
N   N5        1.0  0.36200  0.86640  0.18370  1.0000 -0.2309222676
N   N6        1.0  0.63800  0.13360  0.81630  1.0000 -0.2309222676
N   N7        1.0  0.89540  0.70720  0.58010  1.0000 -0.3595299282
N   N8        1.0  0.10460  0.29280  0.41990  1.0000 -0.3595299282
O   O1        1.0  0.99680  0.03370  0.11830  1.0000 -0.5486778178
O   O2        1.0  0.00320  0.96630  0.88170  1.0000 -0.5486778178
O   O3        1.0  0.05090  0.00330  0.29090  1.0000 -0.5486778178
O   O4        1.0  0.94910  0.99670  0.70910  1.0000 -0.5486778178
O   O5        1.0  0.35340  0.03270  0.36420  1.0000 -0.5486778178
O   O6        1.0  0.64660  0.96730  0.63580  1.0000 -0.5486778178
O   O7        1.0  0.90480  0.85610  0.08270  1.0000 -0.5368957378
O   O8        1.0  0.09520  0.14390  0.91730  1.0000 -0.5368957378
