# DDEC6 charges by PACMAN v1.1 (https://github.com/mtap-research/PACMAN-charge/)
data_2023[Al][nan]3[ASR]4
_chemical_formula_sum              "Al8 H24 C48 O48"
_cell_length_a       15.8116
_cell_length_b       15.8116
_cell_length_c       15.8116
_cell_angle_alpha    96.458
_cell_angle_beta     96.458
_cell_angle_gamma    140.81

_symmetry_space_group_name_H-M    "P 1"
_symmetry_Int_Tables_number       1

loop_
  _symmetry_equiv_pos_as_xyz
  'x, y, z'

loop_
  _atom_site_type_symbol
  _atom_site_label
  _atom_site_symmetry_multiplicity
  _atom_site_fract_x
  _atom_site_fract_y
  _atom_site_fract_z
  _atom_site_occupancy
  _atom_site_charge
Al  Al1       1.0  0.44470  0.87500  0.06970  1.0000 1.6538343739
Al  Al2       1.0  0.80530  0.37500  0.93030  1.0000 1.6538343739
Al  Al3       1.0  0.12500  0.55530  0.93030  1.0000 1.6538343739
Al  Al4       1.0  0.62500  0.19470  0.06970  1.0000 1.6538343739
Al  Al5       1.0  0.80530  0.87500  0.43030  1.0000 1.6538343739
Al  Al6       1.0  0.44470  0.37500  0.56970  1.0000 1.6538343739
Al  Al7       1.0  0.12500  0.19470  0.56970  1.0000 1.6538343739
Al  Al8       1.0  0.62500  0.55530  0.43030  1.0000 1.6538343739
H   H1        1.0  0.47660  0.97660  0.95320  1.0000 0.4338641774
H   H2        1.0  0.02340  0.52340  0.04680  1.0000 0.4338641774
H   H3        1.0  0.77340  0.22660  0.00000  1.0000 0.4338641774
H   H4        1.0  0.22660  0.77340  0.00000  1.0000 0.4338641774
H   H5        1.0  0.77340  0.77340  0.54680  1.0000 0.4338641774
H   H6        1.0  0.22660  0.22660  0.45320  1.0000 0.4338641774
H   H7        1.0  0.47660  0.52340  0.50000  1.0000 0.4338641774
H   H8        1.0  0.02340  0.97660  0.50000  1.0000 0.4338641774
H   H9        1.0  0.01610  0.43670  0.28880  1.0000 0.1509067968
H   H10       1.0  0.14790  0.72730  0.71120  1.0000 0.1509067968
H   H11       1.0  0.23390  0.02270  0.92060  1.0000 0.1509067968
H   H12       1.0  0.56330  0.98390  0.71120  1.0000 0.1509067968
H   H13       1.0  0.97730  0.76610  0.07940  1.0000 0.1509067968
H   H14       1.0  0.68670  0.89790  0.92060  1.0000 0.1509067968
H   H15       1.0  0.27270  0.85210  0.28880  1.0000 0.1509067968
H   H16       1.0  0.10210  0.31330  0.07940  1.0000 0.1509067968
H   H17       1.0  0.23390  0.31330  0.21120  1.0000 0.1509067968
H   H18       1.0  0.10210  0.02270  0.78880  1.0000 0.1509067968
H   H19       1.0  0.01610  0.72730  0.57940  1.0000 0.1509067968
H   H20       1.0  0.68670  0.76610  0.78880  1.0000 0.1509067968
H   H21       1.0  0.27270  0.98390  0.42060  1.0000 0.1509067968
H   H22       1.0  0.56330  0.85210  0.57940  1.0000 0.1509067968
H   H23       1.0  0.97730  0.89790  0.21120  1.0000 0.1509067968
H   H24       1.0  0.14790  0.43670  0.42060  1.0000 0.1509067968
C   C1        1.0  0.73170  0.13840  0.18030  1.0000 0.591743679
C   C2        1.0  0.95810  0.55140  0.81970  1.0000 0.591743679
C   C3        1.0  0.51830  0.19860  0.90670  1.0000 0.591743679
C   C4        1.0  0.86160  0.26830  0.81970  1.0000 0.591743679
C   C5        1.0  0.80140  0.48170  0.09330  1.0000 0.591743679
C   C6        1.0  0.38840  0.70810  0.90670  1.0000 0.591743679
C   C7        1.0  0.44860  0.04190  0.18030  1.0000 0.591743679
C   C8        1.0  0.29190  0.61160  0.09330  1.0000 0.591743679
C   C9        1.0  0.51830  0.61160  0.31970  1.0000 0.591743679
C   C10       1.0  0.29190  0.19860  0.68030  1.0000 0.591743679
C   C11       1.0  0.73170  0.55140  0.59330  1.0000 0.591743679
C   C12       1.0  0.38840  0.48170  0.68030  1.0000 0.591743679
C   C13       1.0  0.44860  0.26830  0.40670  1.0000 0.591743679
C   C14       1.0  0.86160  0.04190  0.59330  1.0000 0.591743679
C   C15       1.0  0.80140  0.70810  0.31970  1.0000 0.591743679
C   C16       1.0  0.95810  0.13840  0.40670  1.0000 0.591743679
C   C17       1.0  0.84710  0.20306  0.25756  1.0000 0.1159095957
C   C18       1.0  0.94550  0.58954  0.74244  1.0000 0.1159095957
C   C19       1.0  0.40290  0.16046  0.85596  1.0000 0.1159095957
C   C20       1.0  0.79694  0.15290  0.74244  1.0000 0.1159095957
C   C21       1.0  0.83954  0.59710  0.14404  1.0000 0.1159095957
C   C22       1.0  0.45306  0.69550  0.85596  1.0000 0.1159095957
C   C23       1.0  0.41046  0.05450  0.25756  1.0000 0.1159095957
C   C24       1.0  0.30450  0.54694  0.14404  1.0000 0.1159095957
C   C25       1.0  0.40290  0.54694  0.24244  1.0000 0.1159095957
C   C26       1.0  0.30450  0.16046  0.75756  1.0000 0.1159095957
C   C27       1.0  0.84710  0.58954  0.64404  1.0000 0.1159095957
C   C28       1.0  0.45306  0.59710  0.75756  1.0000 0.1159095957
C   C29       1.0  0.41046  0.15290  0.35596  1.0000 0.1159095957
C   C30       1.0  0.79694  0.05450  0.64404  1.0000 0.1159095957
C   C31       1.0  0.83954  0.69550  0.24244  1.0000 0.1159095957
C   C32       1.0  0.94550  0.20306  0.35596  1.0000 0.1159095957
C   C33       1.0  0.97280  0.34290  0.30070  1.0000 -0.193763418
C   C34       1.0  0.04220  0.67210  0.69930  1.0000 -0.193763418
C   C35       1.0  0.27720  0.07790  0.87010  1.0000 -0.193763418
C   C36       1.0  0.65710  0.02720  0.69930  1.0000 -0.193763418
C   C37       1.0  0.92210  0.72280  0.12990  1.0000 -0.193763418
C   C38       1.0  0.59290  0.79220  0.87010  1.0000 -0.193763418
C   C39       1.0  0.32790  0.95780  0.30070  1.0000 -0.193763418
C   C40       1.0  0.20780  0.40710  0.12990  1.0000 -0.193763418
C   C41       1.0  0.27720  0.40710  0.19930  1.0000 -0.193763418
C   C42       1.0  0.20780  0.07790  0.80070  1.0000 -0.193763418
C   C43       1.0  0.97280  0.67210  0.62990  1.0000 -0.193763418
C   C44       1.0  0.59290  0.72280  0.80070  1.0000 -0.193763418
C   C45       1.0  0.32790  0.02720  0.37010  1.0000 -0.193763418
C   C46       1.0  0.65710  0.95780  0.62990  1.0000 -0.193763418
C   C47       1.0  0.92210  0.79220  0.19930  1.0000 -0.193763418
C   C48       1.0  0.04220  0.34290  0.37010  1.0000 -0.193763418
O   O1        1.0  0.50749  0.00749  0.01498  1.0000 -1.0186178375
O   O2        1.0  0.99251  0.49251  0.98502  1.0000 -1.0186178375
O   O3        1.0  0.74251  0.25749  0.00000  1.0000 -1.0186178375
O   O4        1.0  0.25749  0.74251  0.00000  1.0000 -1.0186178375
O   O5        1.0  0.74251  0.74251  0.48502  1.0000 -1.0186178375
O   O6        1.0  0.25749  0.25749  0.51498  1.0000 -1.0186178375
O   O7        1.0  0.50749  0.49251  0.50000  1.0000 -1.0186178375
O   O8        1.0  0.99251  0.00749  0.50000  1.0000 -1.0186178375
O   O9        1.0  0.62910  0.00350  0.13920  1.0000 -0.575641035
O   O10       1.0  0.86430  0.48990  0.86080  1.0000 -0.575641035
O   O11       1.0  0.62090  0.26010  0.87440  1.0000 -0.575641035
O   O12       1.0  0.99650  0.37090  0.86080  1.0000 -0.575641035
O   O13       1.0  0.73990  0.37910  0.12560  1.0000 -0.575641035
O   O14       1.0  0.25350  0.61430  0.87440  1.0000 -0.575641035
O   O15       1.0  0.51010  0.13570  0.13920  1.0000 -0.575641035
O   O16       1.0  0.38570  0.74650  0.12560  1.0000 -0.575641035
O   O17       1.0  0.62090  0.74650  0.36080  1.0000 -0.575641035
O   O18       1.0  0.38570  0.26010  0.63920  1.0000 -0.575641035
O   O19       1.0  0.62910  0.48990  0.62560  1.0000 -0.575641035
O   O20       1.0  0.25350  0.37910  0.63920  1.0000 -0.575641035
O   O21       1.0  0.51010  0.37090  0.37440  1.0000 -0.575641035
O   O22       1.0  0.99650  0.13570  0.62560  1.0000 -0.575641035
O   O23       1.0  0.73990  0.61430  0.36080  1.0000 -0.575641035
O   O24       1.0  0.86430  0.00350  0.37440  1.0000 -0.575641035
O   O25       1.0  0.74150  0.21960  0.15310  1.0000 -0.5865149785
O   O26       1.0  0.06650  0.58840  0.84690  1.0000 -0.5865149785
O   O27       1.0  0.50850  0.16160  0.97810  1.0000 -0.5865149785
O   O28       1.0  0.78040  0.25850  0.84690  1.0000 -0.5865149785
O   O29       1.0  0.83840  0.49150  0.02190  1.0000 -0.5865149785
O   O30       1.0  0.46960  0.81650  0.97810  1.0000 -0.5865149785
O   O31       1.0  0.41160  0.93350  0.15310  1.0000 -0.5865149785
O   O32       1.0  0.18350  0.53040  0.02190  1.0000 -0.5865149785
O   O33       1.0  0.50850  0.53040  0.34690  1.0000 -0.5865149785
O   O34       1.0  0.18350  0.16160  0.65310  1.0000 -0.5865149785
O   O35       1.0  0.74150  0.58840  0.52190  1.0000 -0.5865149785
O   O36       1.0  0.46960  0.49150  0.65310  1.0000 -0.5865149785
O   O37       1.0  0.41160  0.25850  0.47810  1.0000 -0.5865149785
O   O38       1.0  0.78040  0.93350  0.52190  1.0000 -0.5865149785
O   O39       1.0  0.83840  0.81650  0.34690  1.0000 -0.5865149785
O   O40       1.0  0.06650  0.21960  0.47810  1.0000 -0.5865149785
O   O41       1.0  0.83424  0.12500  0.29076  1.0000 -0.0743619938
O   O42       1.0  0.83424  0.54348  0.70924  1.0000 -0.0743619938
O   O43       1.0  0.41576  0.20652  0.79076  1.0000 -0.0743619938
O   O44       1.0  0.87500  0.16576  0.70924  1.0000 -0.0743619938
O   O45       1.0  0.79348  0.58424  0.20924  1.0000 -0.0743619938
O   O46       1.0  0.37500  0.58424  0.79076  1.0000 -0.0743619938
O   O47       1.0  0.45652  0.16576  0.29076  1.0000 -0.0743619938
O   O48       1.0  0.41576  0.62500  0.20924  1.0000 -0.0743619938
