# DDEC6 charges by PACMAN v1.1 (https://github.com/mtap-research/PACMAN-charge/)
data_2023[Hf][flu]3[ASR]3
_chemical_formula_sum              "Hf6 H42 C74 N4 O24"
_cell_length_a       18.8521
_cell_length_b       18.8521
_cell_length_c       16.27
_cell_angle_alpha    86.4214
_cell_angle_beta     93.5786
_cell_angle_gamma    45.4518

_symmetry_space_group_name_H-M    "P 1"
_symmetry_Int_Tables_number       1

loop_
  _symmetry_equiv_pos_as_xyz
  'x, y, z'

loop_
  _atom_site_type_symbol
  _atom_site_label
  _atom_site_symmetry_multiplicity
  _atom_site_fract_x
  _atom_site_fract_y
  _atom_site_fract_z
  _atom_site_occupancy
  _atom_site_charge
Hf  Hf1       1.0  0.93378  0.16768  0.01642  1.0000 1.5077971045
Hf  Hf2       1.0  0.16768  0.93378  0.98358  1.0000 1.5152960443
Hf  Hf3       1.0  0.06622  0.83232  0.98358  1.0000 1.4969657087
Hf  Hf4       1.0  0.83232  0.06622  0.01642  1.0000 1.5077971045
Hf  Hf5       1.0  0.05237  0.94763  0.15050  1.0000 1.4969657087
Hf  Hf6       1.0  0.94763  0.05237  0.84950  1.0000 1.5077971045
H   H1        1.0  0.79970  0.95490  0.54650  1.0000 0.1187375235
H   H2        1.0  0.87230  0.98210  0.64190  1.0000 0.1187375235
H   H3        1.0  0.95220  0.68260  0.68200  1.0000 0.1187375235
H   H4        1.0  0.02530  0.71030  0.77810  1.0000 0.1005754476
H   H5        1.0  0.61240  0.79180  0.38960  1.0000 0.1187375235
H   H6        1.0  0.29960  0.80520  0.33910  1.0000 0.1252141172
H   H7        1.0  0.57340  0.74600  0.27040  1.0000 0.1112470117
H   H8        1.0  0.43550  0.73610  0.44310  1.0000 0.1112470117
H   H9        1.0  0.44250  0.80510  0.16300  1.0000 0.1112470117
H   H10       1.0  0.80020  0.72860  0.61860  1.0000 0.3004434803
H   H11       1.0  0.95490  0.79970  0.45350  1.0000 0.1187375235
H   H12       1.0  0.98210  0.87230  0.35810  1.0000 0.1187375235
H   H13       1.0  0.68260  0.95220  0.31800  1.0000 0.1187375235
H   H14       1.0  0.71030  0.02530  0.22190  1.0000 0.1005754476
H   H15       1.0  0.79180  0.61240  0.61040  1.0000 0.1187375235
H   H16       1.0  0.80520  0.29960  0.66090  1.0000 0.1252141172
H   H17       1.0  0.74600  0.57340  0.72960  1.0000 0.1112470117
H   H18       1.0  0.73610  0.43550  0.55690  1.0000 0.1112470117
H   H19       1.0  0.80510  0.44250  0.83700  1.0000 0.1112470117
H   H20       1.0  0.72860  0.80020  0.38140  1.0000 0.3004434803
H   H21       1.0  0.20030  0.04510  0.45350  1.0000 0.1187375235
H   H22       1.0  0.12770  0.01790  0.35810  1.0000 0.1187375235
H   H23       1.0  0.04780  0.31740  0.31800  1.0000 0.1187375235
H   H24       1.0  0.97470  0.28970  0.22190  1.0000 0.1005754476
H   H25       1.0  0.38760  0.20820  0.61040  1.0000 0.1187375235
H   H26       1.0  0.70040  0.19480  0.66090  1.0000 0.1252141172
H   H27       1.0  0.42660  0.25400  0.72960  1.0000 0.1112470117
H   H28       1.0  0.56450  0.26390  0.55690  1.0000 0.1112470117
H   H29       1.0  0.55750  0.19490  0.83700  1.0000 0.1112470117
H   H30       1.0  0.19980  0.27140  0.38140  1.0000 0.3004434803
H   H31       1.0  0.04510  0.20030  0.54650  1.0000 0.1187375235
H   H32       1.0  0.01790  0.12770  0.64190  1.0000 0.1187375235
H   H33       1.0  0.31740  0.04780  0.68200  1.0000 0.1187375235
H   H34       1.0  0.28970  0.97470  0.77810  1.0000 0.1005754476
H   H35       1.0  0.20820  0.38760  0.38960  1.0000 0.1187375235
H   H36       1.0  0.19480  0.70040  0.33910  1.0000 0.1187375235
H   H37       1.0  0.25400  0.42660  0.27040  1.0000 0.1112470117
H   H38       1.0  0.26390  0.56450  0.44310  1.0000 0.1112470117
H   H39       1.0  0.19490  0.55750  0.16300  1.0000 0.1112470117
H   H40       1.0  0.27140  0.19980  0.61860  1.0000 0.3004434803
H   H41       1.0  0.60150  0.60150  0.50000  1.0000 0.1187375235
H   H42       1.0  0.39850  0.39850  0.50000  1.0000 0.1187375235
C   C1        1.0  0.99690  0.86890  0.78540  1.0000 0.5710744434
C   C2        1.0  0.27380  0.85120  0.17500  1.0000 0.5754260892
C   C3        1.0  0.95670  0.84790  0.72210  1.0000 -0.0442239432
C   C4        1.0  0.86850  0.81670  0.60190  1.0000 0.0638467991
C   C5        1.0  0.82370  0.79870  0.54190  1.0000 0.030630224
C   C6        1.0  0.84590  0.90470  0.59320  1.0000 -0.1700111728
C   C7        1.0  0.59600  0.70100  0.43360  1.0000 0.0941776583
C   C8        1.0  0.88840  0.92160  0.65030  1.0000 -0.067752195
C   C9        1.0  0.93630  0.74310  0.67360  1.0000 -0.1902755351
C   C10       1.0  0.97930  0.76030  0.73130  1.0000 -0.067752195
C   C11       1.0  0.63520  0.74180  0.43390  1.0000 -0.2127078301
C   C12       1.0  0.35940  0.81240  0.24120  1.0000 -0.0192589876
C   C13       1.0  0.51510  0.73870  0.36690  1.0000 0.0654449915
C   C14       1.0  0.35530  0.79250  0.32460  1.0000 -0.0902137751
C   C15       1.0  0.51820  0.75740  0.28470  1.0000 -0.1700111728
C   C16       1.0  0.43590  0.75290  0.38700  1.0000 -0.1700111728
C   C17       1.0  0.43900  0.79400  0.21970  1.0000 -0.0902137751
C   C18       1.0  0.86890  0.99690  0.21460  1.0000 0.5710744434
C   C19       1.0  0.85120  0.27380  0.82500  1.0000 0.5754260892
C   C20       1.0  0.84790  0.95670  0.27790  1.0000 -0.0442239432
C   C21       1.0  0.81670  0.86850  0.39810  1.0000 0.0638467991
C   C22       1.0  0.79870  0.82370  0.45810  1.0000 0.030630224
C   C23       1.0  0.90470  0.84590  0.40680  1.0000 -0.1700111728
C   C24       1.0  0.70100  0.59600  0.56640  1.0000 0.0941776583
C   C25       1.0  0.92160  0.88840  0.34970  1.0000 -0.067752195
C   C26       1.0  0.74310  0.93630  0.32640  1.0000 -0.1902755351
C   C27       1.0  0.76030  0.97930  0.26870  1.0000 -0.067752195
C   C28       1.0  0.74180  0.63520  0.56610  1.0000 -0.2127078301
C   C29       1.0  0.81240  0.35940  0.75880  1.0000 -0.0192589876
C   C30       1.0  0.73870  0.51510  0.63310  1.0000 0.0654449915
C   C31       1.0  0.79250  0.35530  0.67540  1.0000 -0.0902137751
C   C32       1.0  0.75740  0.51820  0.71530  1.0000 -0.1700111728
C   C33       1.0  0.75290  0.43590  0.61300  1.0000 -0.1700111728
C   C34       1.0  0.79400  0.43900  0.78030  1.0000 -0.0902137751
C   C35       1.0  0.00310  0.13110  0.21460  1.0000 0.5710744434
C   C36       1.0  0.72620  0.14880  0.82500  1.0000 0.5754260892
C   C37       1.0  0.04330  0.15210  0.27790  1.0000 -0.0442239432
C   C38       1.0  0.13150  0.18330  0.39810  1.0000 0.0638467991
C   C39       1.0  0.17630  0.20130  0.45810  1.0000 0.030630224
C   C40       1.0  0.15410  0.09530  0.40680  1.0000 -0.1700111728
C   C41       1.0  0.40400  0.29900  0.56640  1.0000 0.0941776583
C   C42       1.0  0.11160  0.07840  0.34970  1.0000 -0.067752195
C   C43       1.0  0.06370  0.25690  0.32640  1.0000 -0.1902755351
C   C44       1.0  0.02070  0.23970  0.26870  1.0000 -0.067752195
C   C45       1.0  0.36480  0.25820  0.56610  1.0000 -0.2127078301
C   C46       1.0  0.64060  0.18760  0.75880  1.0000 -0.0192589876
C   C47       1.0  0.48490  0.26130  0.63310  1.0000 0.0654449915
C   C48       1.0  0.64470  0.20750  0.67540  1.0000 -0.0902137751
C   C49       1.0  0.48180  0.24260  0.71530  1.0000 -0.1700111728
C   C50       1.0  0.56410  0.24710  0.61300  1.0000 -0.1700111728
C   C51       1.0  0.56100  0.20600  0.78030  1.0000 -0.0902137751
C   C52       1.0  0.13110  0.00310  0.78540  1.0000 0.5710744434
C   C53       1.0  0.14880  0.72620  0.17500  1.0000 0.5754260892
C   C54       1.0  0.15210  0.04330  0.72210  1.0000 -0.0442239432
C   C55       1.0  0.18330  0.13150  0.60190  1.0000 0.0638467991
C   C56       1.0  0.20130  0.17630  0.54190  1.0000 0.030630224
C   C57       1.0  0.09530  0.15410  0.59320  1.0000 -0.1700111728
C   C58       1.0  0.29900  0.40400  0.43360  1.0000 0.0941776583
C   C59       1.0  0.07840  0.11160  0.65030  1.0000 -0.067752195
C   C60       1.0  0.25690  0.06370  0.67360  1.0000 -0.1902755351
C   C61       1.0  0.23970  0.02070  0.73130  1.0000 -0.067752195
C   C62       1.0  0.25820  0.36480  0.43390  1.0000 -0.2127078301
C   C63       1.0  0.18760  0.64060  0.24120  1.0000 -0.0192589876
C   C64       1.0  0.26130  0.48490  0.36690  1.0000 0.0654449915
C   C65       1.0  0.20750  0.64470  0.32460  1.0000 -0.0902137751
C   C66       1.0  0.24260  0.48180  0.28470  1.0000 -0.1700111728
C   C67       1.0  0.24710  0.56410  0.38700  1.0000 -0.1700111728
C   C68       1.0  0.20600  0.56100  0.21970  1.0000 -0.0902137751
C   C69       1.0  0.75060  0.75060  0.50000  1.0000 0.1645121449
C   C70       1.0  0.70880  0.70880  0.50000  1.0000 0.0151324845
C   C71       1.0  0.62880  0.62880  0.50000  1.0000 -0.1902755351
C   C72       1.0  0.24940  0.24940  0.50000  1.0000 0.1666119718
C   C73       1.0  0.29120  0.29120  0.50000  1.0000 0.0138721601
C   C74       1.0  0.37120  0.37120  0.50000  1.0000 -0.1902755351
N   N1        1.0  0.79280  0.75240  0.56710  1.0000 -0.2908616266
N   N2        1.0  0.75240  0.79280  0.43290  1.0000 -0.2908616266
N   N3        1.0  0.20720  0.24760  0.43290  1.0000 -0.2908616266
N   N4        1.0  0.24760  0.20720  0.56710  1.0000 -0.2908616266
O   O1        1.0  0.04318  0.81138  0.85210  1.0000 -0.5269696987
O   O2        1.0  0.97128  0.95108  0.76600  1.0000 -0.5070398724
O   O3        1.0  0.20027  0.87447  0.20500  1.0000 -0.4835974451
O   O4        1.0  0.27930  0.86350  0.10030  1.0000 -0.5217623687
O   O5        1.0  0.07480  0.02700  0.07140  1.0000 -0.7090296722
O   O6        1.0  0.81138  0.04318  0.14790  1.0000 -0.5269696987
O   O7        1.0  0.95108  0.97128  0.23400  1.0000 -0.5032612657
O   O8        1.0  0.87447  0.20027  0.79500  1.0000 -0.4854756272
O   O9        1.0  0.86350  0.27930  0.89970  1.0000 -0.5217623687
O   O10       1.0  0.02700  0.07480  0.92860  1.0000 -0.7090296722
O   O11       1.0  0.95682  0.18862  0.14790  1.0000 -0.5269696987
O   O12       1.0  0.02872  0.04892  0.23400  1.0000 -0.5032612657
O   O13       1.0  0.79973  0.12553  0.79500  1.0000 -0.4835974451
O   O14       1.0  0.72070  0.13650  0.89970  1.0000 -0.5217623687
O   O15       1.0  0.92520  0.97300  0.92860  1.0000 -0.7090296722
O   O16       1.0  0.18862  0.95682  0.85210  1.0000 -0.5269696987
O   O17       1.0  0.04892  0.02872  0.76600  1.0000 -0.5070398724
O   O18       1.0  0.12553  0.79973  0.20500  1.0000 -0.4835974451
O   O19       1.0  0.13650  0.72070  0.10030  1.0000 -0.5217623687
O   O20       1.0  0.97300  0.92520  0.07140  1.0000 -0.7090296722
O   O21       1.0  0.14340  0.85660  0.05730  1.0000 -0.7090296722
O   O22       1.0  0.91280  0.08720  0.08730  1.0000 -0.7230711853
O   O23       1.0  0.85660  0.14340  0.94270  1.0000 -0.7090296722
O   O24       1.0  0.08720  0.91280  0.91270  1.0000 -0.7230711853
