# DDEC6 charges by PACMAN v1.1 (https://github.com/mtap-research/PACMAN-charge/)
data_2023[Hf][flu]3[ASR]1
_chemical_formula_sum              "Hf6 H42 C74 N4 O24"
_cell_length_a       18.9403
_cell_length_b       18.9403
_cell_length_c       16.473
_cell_angle_alpha    85.7033
_cell_angle_beta     94.2967
_cell_angle_gamma    46.2264

_symmetry_space_group_name_H-M    "P 1"
_symmetry_Int_Tables_number       1

loop_
  _symmetry_equiv_pos_as_xyz
  'x, y, z'

loop_
  _atom_site_type_symbol
  _atom_site_label
  _atom_site_symmetry_multiplicity
  _atom_site_fract_x
  _atom_site_fract_y
  _atom_site_fract_z
  _atom_site_occupancy
  _atom_site_charge
Hf  Hf1       1.0  0.56459  0.33375  0.48583  1.0000 1.4790103955
Hf  Hf2       1.0  0.33375  0.56459  0.51417  1.0000 1.4790103955
Hf  Hf3       1.0  0.43541  0.66625  0.51417  1.0000 1.4790103955
Hf  Hf4       1.0  0.66625  0.43541  0.48583  1.0000 1.4790103955
Hf  Hf5       1.0  0.55214  0.44786  0.65003  1.0000 1.4987128599
Hf  Hf6       1.0  0.44786  0.55214  0.34997  1.0000 1.4987128599
H   H1        1.0  0.47890  0.78650  0.72020  1.0000 0.1000775023
H   H2        1.0  0.54890  0.81310  0.82060  1.0000 0.1173920213
H   H3        1.0  0.69650  0.54390  0.95590  1.0000 0.1173920213
H   H4        1.0  0.62660  0.51720  0.85550  1.0000 0.1290699018
H   H5        1.0  0.71250  0.87970  0.88550  1.0000 0.1173920213
H   H6        1.0  0.68910  0.20290  0.83850  1.0000 0.1290699018
H   H7        1.0  0.75280  0.07220  0.94310  1.0000 0.1173920213
H   H8        1.0  0.74790  0.93190  0.77200  1.0000 0.1173920213
H   H9        1.0  0.68430  0.06270  0.66740  1.0000 0.1101878954
H   H10       1.0  0.70030  0.76450  0.87740  1.0000 0.3027066214
H   H11       1.0  0.78650  0.47890  0.27980  1.0000 0.1000775023
H   H12       1.0  0.81310  0.54890  0.17940  1.0000 0.1173920213
H   H13       1.0  0.54390  0.69650  0.04410  1.0000 0.1173920213
H   H14       1.0  0.51720  0.62660  0.14450  1.0000 0.1290699018
H   H15       1.0  0.87970  0.71250  0.11450  1.0000 0.1173920213
H   H16       1.0  0.20290  0.68910  0.16150  1.0000 0.1290699018
H   H17       1.0  0.07220  0.75280  0.05690  1.0000 0.1173920213
H   H18       1.0  0.93190  0.74790  0.22800  1.0000 0.1173920213
H   H19       1.0  0.06270  0.68430  0.33260  1.0000 0.1101878954
H   H20       1.0  0.76450  0.70030  0.12260  1.0000 0.3027066214
H   H21       1.0  0.52110  0.21350  0.27980  1.0000 0.1000775023
H   H22       1.0  0.45110  0.18690  0.17940  1.0000 0.1173920213
H   H23       1.0  0.30350  0.45610  0.04410  1.0000 0.1173920213
H   H24       1.0  0.37340  0.48280  0.14450  1.0000 0.1290699018
H   H25       1.0  0.28750  0.12030  0.11450  1.0000 0.1173920213
H   H26       1.0  0.31090  0.79710  0.16150  1.0000 0.1290699018
H   H27       1.0  0.24720  0.92780  0.05690  1.0000 0.1173920213
H   H28       1.0  0.25210  0.06810  0.22800  1.0000 0.1173920213
H   H29       1.0  0.31570  0.93730  0.33260  1.0000 0.1101878954
H   H30       1.0  0.29970  0.23550  0.12260  1.0000 0.3027066214
H   H31       1.0  0.21350  0.52110  0.72020  1.0000 0.1000775023
H   H32       1.0  0.18690  0.45110  0.82060  1.0000 0.1173920213
H   H33       1.0  0.45610  0.30350  0.95590  1.0000 0.1173920213
H   H34       1.0  0.48280  0.37340  0.85550  1.0000 0.1290699018
H   H35       1.0  0.12030  0.28750  0.88550  1.0000 0.1173920213
H   H36       1.0  0.79710  0.31090  0.83850  1.0000 0.1290699018
H   H37       1.0  0.92780  0.24720  0.94310  1.0000 0.1173920213
H   H38       1.0  0.06810  0.25210  0.77200  1.0000 0.1173920213
H   H39       1.0  0.93730  0.31570  0.66740  1.0000 0.1101878954
H   H40       1.0  0.23550  0.29970  0.87740  1.0000 0.3027066214
H   H41       1.0  0.89610  0.89610  0.00000  1.0000 0.1173920213
H   H42       1.0  0.10390  0.10390  0.00000  1.0000 0.1173920213
C   C1        1.0  0.54610  0.64930  0.77840  1.0000 -0.0108438159
C   C2        1.0  0.52310  0.73730  0.76800  1.0000 -0.0814419221
C   C3        1.0  0.56470  0.75310  0.82770  1.0000 -0.1755640583
C   C4        1.0  0.62930  0.68110  0.89770  1.0000 0.0548041237
C   C5        1.0  0.65240  0.59320  0.90800  1.0000 -0.1731975155
C   C6        1.0  0.61080  0.57720  0.84840  1.0000 -0.0814419221
C   C7        1.0  0.79580  0.90380  0.93420  1.0000 0.1000775023
C   C8        1.0  0.67270  0.69910  0.95850  1.0000 0.0548041237
C   C9        1.0  0.75850  0.86050  0.93200  1.0000 -0.2229055802
C   C10       1.0  0.70100  0.14800  0.82500  1.0000 -0.0914476561
C   C11       1.0  0.73890  0.07030  0.88710  1.0000 -0.1603473371
C   C12       1.0  0.75620  0.98980  0.86740  1.0000 0.0763783602
C   C13       1.0  0.73600  0.98700  0.78550  1.0000 -0.1603473371
C   C14       1.0  0.69810  0.06470  0.72340  1.0000 -0.0814419221
C   C15       1.0  0.68070  0.14510  0.74310  1.0000 -0.0108438159
C   C16       1.0  0.49580  0.63440  0.71520  1.0000 0.5725456698
C   C17       1.0  0.64920  0.22520  0.67430  1.0000 0.5725456698
C   C18       1.0  0.64930  0.54610  0.22160  1.0000 -0.0108438159
C   C19       1.0  0.73730  0.52310  0.23200  1.0000 -0.0814419221
C   C20       1.0  0.75310  0.56470  0.17230  1.0000 -0.1755640583
C   C21       1.0  0.68110  0.62930  0.10230  1.0000 0.0553056037
C   C22       1.0  0.59320  0.65240  0.09200  1.0000 -0.1731975155
C   C23       1.0  0.57720  0.61080  0.15160  1.0000 -0.0814419221
C   C24       1.0  0.90380  0.79580  0.06580  1.0000 0.1000775023
C   C25       1.0  0.69910  0.67270  0.04150  1.0000 0.0548041237
C   C26       1.0  0.86050  0.75850  0.06800  1.0000 -0.2229055802
C   C27       1.0  0.14800  0.70100  0.17500  1.0000 -0.0914476561
C   C28       1.0  0.07030  0.73890  0.11290  1.0000 -0.1603473371
C   C29       1.0  0.98980  0.75620  0.13260  1.0000 0.0763783602
C   C30       1.0  0.98700  0.73600  0.21450  1.0000 -0.1603473371
C   C31       1.0  0.06470  0.69810  0.27660  1.0000 -0.0814419221
C   C32       1.0  0.14510  0.68070  0.25690  1.0000 -0.0159576705
C   C33       1.0  0.63440  0.49580  0.28480  1.0000 0.5725456698
C   C34       1.0  0.22520  0.64920  0.32570  1.0000 0.5725456698
C   C35       1.0  0.45390  0.35070  0.22160  1.0000 -0.0108438159
C   C36       1.0  0.47690  0.26270  0.23200  1.0000 -0.0814419221
C   C37       1.0  0.43530  0.24690  0.17230  1.0000 -0.1755640583
C   C38       1.0  0.37070  0.31890  0.10230  1.0000 0.0553056037
C   C39       1.0  0.34760  0.40680  0.09200  1.0000 -0.1731975155
C   C40       1.0  0.38920  0.42280  0.15160  1.0000 -0.0814419221
C   C41       1.0  0.20420  0.09620  0.06580  1.0000 0.1000775023
C   C42       1.0  0.32730  0.30090  0.04150  1.0000 0.0548041237
C   C43       1.0  0.24150  0.13950  0.06800  1.0000 -0.2229055802
C   C44       1.0  0.29900  0.85200  0.17500  1.0000 -0.0914476561
C   C45       1.0  0.26110  0.92970  0.11290  1.0000 -0.1603473371
C   C46       1.0  0.24380  0.01020  0.13260  1.0000 0.0763783602
C   C47       1.0  0.26400  0.01300  0.21450  1.0000 -0.1603473371
C   C48       1.0  0.30190  0.93530  0.27660  1.0000 -0.0914476561
C   C49       1.0  0.31930  0.85490  0.25690  1.0000 -0.0108438159
C   C50       1.0  0.50420  0.36560  0.28480  1.0000 0.5725456698
C   C51       1.0  0.35080  0.77480  0.32570  1.0000 0.5725456698
C   C52       1.0  0.35070  0.45390  0.77840  1.0000 -0.0108438159
C   C53       1.0  0.26270  0.47690  0.76800  1.0000 -0.0814419221
C   C54       1.0  0.24690  0.43530  0.82770  1.0000 -0.1731975155
C   C55       1.0  0.31890  0.37070  0.89770  1.0000 0.0553056037
C   C56       1.0  0.40680  0.34760  0.90800  1.0000 -0.1731975155
C   C57       1.0  0.42280  0.38920  0.84840  1.0000 -0.0814419221
C   C58       1.0  0.09620  0.20420  0.93420  1.0000 0.1000775023
C   C59       1.0  0.30090  0.32730  0.95850  1.0000 0.0548041237
C   C60       1.0  0.13950  0.24150  0.93200  1.0000 -0.2229055802
C   C61       1.0  0.85200  0.29900  0.82500  1.0000 -0.0914476561
C   C62       1.0  0.92970  0.26110  0.88710  1.0000 -0.1603473371
C   C63       1.0  0.01020  0.24380  0.86740  1.0000 0.0763783602
C   C64       1.0  0.01300  0.26400  0.78550  1.0000 -0.1603473371
C   C65       1.0  0.93530  0.30190  0.72340  1.0000 -0.0814419221
C   C66       1.0  0.85490  0.31930  0.74310  1.0000 -0.0108438159
C   C67       1.0  0.36560  0.50420  0.71520  1.0000 0.5725456698
C   C68       1.0  0.77480  0.35080  0.67430  1.0000 0.5725456698
C   C69       1.0  0.78830  0.78830  0.00000  1.0000 0.0068564963
C   C70       1.0  0.86890  0.86890  0.00000  1.0000 -0.193471037
C   C71       1.0  0.74830  0.74830  0.00000  1.0000 0.2045989258
C   C72       1.0  0.21170  0.21170  0.00000  1.0000 0.0068564963
C   C73       1.0  0.13110  0.13110  0.00000  1.0000 -0.193471037
C   C74       1.0  0.25170  0.25170  0.00000  1.0000 0.205123402
N   N1        1.0  0.70560  0.74380  0.92930  1.0000 -0.3444241362
N   N2        1.0  0.74380  0.70560  0.07070  1.0000 -0.3444241362
N   N3        1.0  0.29440  0.25620  0.07070  1.0000 -0.3444241362
N   N4        1.0  0.25620  0.29440  0.92930  1.0000 -0.3444241362
O   O1        1.0  0.62940  0.22760  0.60250  1.0000 -0.5382212626
O   O2        1.0  0.62330  0.30490  0.70900  1.0000 -0.5382212626
O   O3        1.0  0.45910  0.68830  0.64460  1.0000 -0.5481843876
O   O4        1.0  0.53110  0.54610  0.73280  1.0000 -0.5161661284
O   O5        1.0  0.48060  0.41800  0.56630  1.0000 -0.6570752757
O   O6        1.0  0.22760  0.62940  0.39750  1.0000 -0.5382212626
O   O7        1.0  0.30490  0.62330  0.29100  1.0000 -0.5382212626
O   O8        1.0  0.68830  0.45910  0.35540  1.0000 -0.5481843876
O   O9        1.0  0.54610  0.53110  0.26720  1.0000 -0.5161661284
O   O10       1.0  0.41800  0.48060  0.43370  1.0000 -0.6570752757
O   O11       1.0  0.37060  0.77240  0.39750  1.0000 -0.5382212626
O   O12       1.0  0.37670  0.69510  0.29100  1.0000 -0.5382212626
O   O13       1.0  0.54090  0.31170  0.35540  1.0000 -0.5481843876
O   O14       1.0  0.46890  0.45390  0.26720  1.0000 -0.5161661284
O   O15       1.0  0.51940  0.58200  0.43370  1.0000 -0.6570752757
O   O16       1.0  0.77240  0.37060  0.60250  1.0000 -0.5382212626
O   O17       1.0  0.69510  0.37670  0.70900  1.0000 -0.5382212626
O   O18       1.0  0.31170  0.54090  0.64460  1.0000 -0.5481843876
O   O19       1.0  0.45390  0.46890  0.73280  1.0000 -0.5161661284
O   O20       1.0  0.58200  0.51940  0.56630  1.0000 -0.6570752757
O   O21       1.0  0.63700  0.36300  0.55660  1.0000 -0.6570752757
O   O22       1.0  0.41400  0.58600  0.58310  1.0000 -0.7262062805
O   O23       1.0  0.36300  0.63700  0.44340  1.0000 -0.652456321
O   O24       1.0  0.58600  0.41400  0.41690  1.0000 -0.7262062805
