# DDEC6 charges by PACMAN v1.1 (https://github.com/mtap-research/PACMAN-charge/)
data_2023[Zn][sql]2[ASR]8
_chemical_formula_sum              "Zn2 H36 C60 N8 O8"
_cell_length_a       6.911
_cell_length_b       12.807
_cell_length_c       17.08
_cell_angle_alpha    107.871
_cell_angle_beta     98.535
_cell_angle_gamma    91.076

_symmetry_space_group_name_H-M    "P 1"
_symmetry_Int_Tables_number       1

loop_
  _symmetry_equiv_pos_as_xyz
  'x, y, z'

loop_
  _atom_site_type_symbol
  _atom_site_label
  _atom_site_symmetry_multiplicity
  _atom_site_fract_x
  _atom_site_fract_y
  _atom_site_fract_z
  _atom_site_occupancy
  _atom_site_charge
Zn  Zn1       1.0  0.80224  0.99247  0.80223  1.0000 0.7547569945
Zn  Zn2       1.0  0.19776  0.00753  0.19777  1.0000 0.7547569945
H   H1        1.0  0.33893  0.03201  0.51378  1.0000 0.1193846256
H   H2        1.0  0.66107  0.96799  0.48622  1.0000 0.1193846256
H   H3        1.0  0.20140  0.01512  0.62669  1.0000 0.1193846256
H   H4        1.0  0.79860  0.98488  0.37331  1.0000 0.1193846256
H   H5        1.0  0.79251  0.80167  0.86521  1.0000 0.1193846256
H   H6        1.0  0.20749  0.19833  0.13479  1.0000 0.1193846256
H   H7        1.0  0.05811  0.26828  0.68302  1.0000 0.1297742848
H   H8        1.0  0.94189  0.73172  0.31698  1.0000 0.1297742848
H   H9        1.0  0.38045  0.05056  0.80099  1.0000 0.1107594122
H   H10       1.0  0.61955  0.94944  0.19901  1.0000 0.1107594122
H   H11       1.0  0.18937  0.18247  0.77063  1.0000 0.1393518501
H   H12       1.0  0.81063  0.81753  0.22937  1.0000 0.1393518501
H   H13       1.0  0.39448  0.49345  0.57414  1.0000 0.1193846256
H   H14       1.0  0.60552  0.50655  0.42586  1.0000 0.1193846256
H   H15       1.0  0.54491  0.82436  0.01326  1.0000 0.1193846256
H   H16       1.0  0.45509  0.17564  0.98674  1.0000 0.1107594122
H   H17       1.0  0.70429  0.53860  0.65706  1.0000 0.1193846256
H   H18       1.0  0.29571  0.46140  0.34294  1.0000 0.1193846256
H   H19       1.0  0.24050  0.86387  0.95462  1.0000 0.1193846256
H   H20       1.0  0.75950  0.13613  0.04538  1.0000 0.1193846256
H   H21       1.0  0.41319  0.87573  0.69623  1.0000 0.1193846256
H   H22       1.0  0.58681  0.12427  0.30377  1.0000 0.1193846256
H   H23       1.0  0.85878  0.22807  0.55556  1.0000 0.1193846256
H   H24       1.0  0.14122  0.77193  0.44444  1.0000 0.1193846256
H   H25       1.0  0.61226  0.63730  0.84362  1.0000 0.1393518501
H   H26       1.0  0.38774  0.36270  0.15638  1.0000 0.1393518501
H   H27       1.0  0.03120  0.58118  0.67305  1.0000 0.1297742848
H   H28       1.0  0.96880  0.41882  0.32695  1.0000 0.1297742848
H   H29       1.0  0.68708  0.36973  0.79367  1.0000 0.1297742848
H   H30       1.0  0.31292  0.63027  0.20633  1.0000 0.1393518501
H   H31       1.0  0.21978  0.71646  0.67325  1.0000 0.1393518501
H   H32       1.0  0.78022  0.28354  0.32675  1.0000 0.1393518501
H   H33       1.0  0.86448  0.23305  0.82660  1.0000 0.1193846256
H   H34       1.0  0.13552  0.76695  0.17340  1.0000 0.1193846256
H   H35       1.0  0.54754  0.18080  0.47371  1.0000 0.1297742848
H   H36       1.0  0.45246  0.81920  0.52629  1.0000 0.1297742848
C   C1        1.0  0.91640  0.99150  0.56880  1.0000 -0.0276486679
C   C2        1.0  0.08360  0.00850  0.43120  1.0000 -0.0276486679
C   C3        1.0  0.29950  0.37090  0.74460  1.0000 0.2068247273
C   C4        1.0  0.70050  0.62910  0.25540  1.0000 0.2068247273
C   C5        1.0  0.20100  0.01860  0.50780  1.0000 -0.1103210884
C   C6        1.0  0.79900  0.98140  0.49220  1.0000 -0.1103210884
C   C7        1.0  0.80970  0.38840  0.61560  1.0000 0.0794214829
C   C8        1.0  0.19030  0.61160  0.38440  1.0000 0.0794214829
C   C9        1.0  0.28500  0.54890  0.73740  1.0000 0.2068247273
C   C10       1.0  0.71500  0.45110  0.26260  1.0000 0.2068247273
C   C11       1.0  0.12500  0.04680  0.91990  1.0000 0.5507804825
C   C12       1.0  0.87500  0.95320  0.08010  1.0000 0.5507804825
C   C13       1.0  0.82420  0.98360  0.64130  1.0000 0.5587590411
C   C14       1.0  0.17580  0.01640  0.35870  1.0000 0.5587590411
C   C15       1.0  0.41680  0.28940  0.77340  1.0000 0.0990040848
C   C16       1.0  0.58320  0.71060  0.22660  1.0000 0.0990040848
C   C17       1.0  0.11880  0.00930  0.57560  1.0000 -0.1103210884
C   C18       1.0  0.88120  0.99070  0.42440  1.0000 -0.1103210884
C   C19       1.0  0.39580  0.65740  0.75490  1.0000 0.0912715909
C   C20       1.0  0.60420  0.34260  0.24510  1.0000 0.0912715909
C   C21       1.0  0.67580  0.78350  0.82520  1.0000 0.0990040848
C   C22       1.0  0.32420  0.21650  0.17480  1.0000 0.0912715909
C   C23       1.0  0.31760  0.02230  0.96290  1.0000 -0.0205868222
C   C24       1.0  0.68240  0.97770  0.03710  1.0000 -0.0205868222
C   C25       1.0  0.11340  0.34130  0.69660  1.0000 -0.2327121385
C   C26       1.0  0.88660  0.65870  0.30340  1.0000 -0.2327121385
C   C27       1.0  0.44350  0.11580  0.79850  1.0000 0.0912715909
C   C28       1.0  0.55650  0.88420  0.20150  1.0000 0.0912715909
C   C29       1.0  0.00770  0.41840  0.66840  1.0000 0.1297742848
C   C30       1.0  0.99230  0.58160  0.33160  1.0000 0.1297742848
C   C31       1.0  0.32820  0.19350  0.77950  1.0000 -0.1699991748
C   C32       1.0  0.67180  0.80650  0.22050  1.0000 -0.1699991748
C   C33       1.0  0.48860  0.43980  0.57040  1.0000 -0.1284086817
C   C34       1.0  0.51140  0.56020  0.42960  1.0000 -0.1284086817
C   C35       1.0  0.52610  0.89540  0.00820  1.0000 -0.1284086817
C   C36       1.0  0.47390  0.10460  0.99180  1.0000 -0.1284086817
C   C37       1.0  0.67260  0.46610  0.61980  1.0000 -0.1425214634
C   C38       1.0  0.32740  0.53390  0.38020  1.0000 -0.1425214634
C   C39       1.0  0.34620  0.91870  0.97270  1.0000 -0.1103210884
C   C40       1.0  0.65380  0.08130  0.02730  1.0000 -0.1103210884
C   C41       1.0  0.44370  0.33280  0.51470  1.0000 0.0491966474
C   C42       1.0  0.55630  0.66720  0.48530  1.0000 0.0491966474
C   C43       1.0  0.45330  0.82700  0.72680  1.0000 0.0794214829
C   C44       1.0  0.54670  0.17300  0.27320  1.0000 0.0794214829
C   C45       1.0  0.76390  0.28140  0.55960  1.0000 -0.1186409314
C   C46       1.0  0.23610  0.71860  0.44040  1.0000 -0.1186409314
C   C47       1.0  0.56840  0.68520  0.81280  1.0000 -0.1792558991
C   C48       1.0  0.43160  0.31480  0.18720  1.0000 -0.1792558991
C   C49       1.0  0.09750  0.52570  0.69030  1.0000 -0.2385645099
C   C50       1.0  0.90250  0.47430  0.30970  1.0000 -0.2385645099
C   C51       1.0  0.62070  0.30400  0.79340  1.0000 -0.1699991748
C   C52       1.0  0.37930  0.69600  0.20660  1.0000 -0.1699991748
C   C53       1.0  0.33810  0.73150  0.71220  1.0000 -0.1792558991
C   C54       1.0  0.66190  0.26850  0.28780  1.0000 -0.1792558991
C   C55       1.0  0.72570  0.22180  0.81300  1.0000 0.0912715909
C   C56       1.0  0.27430  0.77820  0.18700  1.0000 0.0912715909
C   C57       1.0  0.25000  0.30820  0.46250  1.0000 0.2711973264
C   C58       1.0  0.75000  0.69180  0.53750  1.0000 0.2711973264
C   C59       1.0  0.57990  0.25360  0.51030  1.0000 -0.1186409314
C   C60       1.0  0.42010  0.74640  0.48970  1.0000 -0.1186409314
N   N1        1.0  0.62080  0.85400  0.78280  1.0000 -0.2385645099
N   N2        1.0  0.37920  0.14600  0.21720  1.0000 -0.2385645099
N   N3        1.0  0.38520  0.47350  0.76490  1.0000 -0.3506934867
N   N4        1.0  0.61480  0.52650  0.23510  1.0000 -0.3506934867
N   N5        1.0  0.64080  0.12660  0.81380  1.0000 -0.2327121385
N   N6        1.0  0.35920  0.87340  0.18620  1.0000 -0.2327121385
N   N7        1.0  0.10550  0.29160  0.42070  1.0000 -0.3568049447
N   N8        1.0  0.89450  0.70840  0.57930  1.0000 -0.3568049447
O   O1        1.0  0.99960  0.96450  0.88580  1.0000 -0.5518706665
O   O2        1.0  0.00040  0.03550  0.11420  1.0000 -0.5518706665
O   O3        1.0  0.94310  0.99750  0.71120  1.0000 -0.560298813
O   O4        1.0  0.05690  0.00250  0.28880  1.0000 -0.560298813
O   O5        1.0  0.09810  0.14060  0.91480  1.0000 -0.560298813
O   O6        1.0  0.90190  0.85940  0.08520  1.0000 -0.560298813
O   O7        1.0  0.64380  0.96800  0.63410  1.0000 -0.560298813
O   O8        1.0  0.35620  0.03200  0.36590  1.0000 -0.560298813
