# DDEC6 charges by PACMAN v1.1 (https://github.com/mtap-research/PACMAN-charge/)
data_2023[Zn][sql]2[ASR]22
_chemical_formula_sum              "Zn2 H36 C60 N8 O8"
_cell_length_a       6.764
_cell_length_b       12.708
_cell_length_c       17.38
_cell_angle_alpha    109.059
_cell_angle_beta     97.523
_cell_angle_gamma    89.474

_symmetry_space_group_name_H-M    "P 1"
_symmetry_Int_Tables_number       1

loop_
  _symmetry_equiv_pos_as_xyz
  'x, y, z'

loop_
  _atom_site_type_symbol
  _atom_site_label
  _atom_site_symmetry_multiplicity
  _atom_site_fract_x
  _atom_site_fract_y
  _atom_site_fract_z
  _atom_site_occupancy
  _atom_site_charge
Zn  Zn1       1.0  0.80792  0.98725  0.79671  1.0000 0.7424121435
Zn  Zn2       1.0  0.19208  0.01275  0.20329  1.0000 0.7424121435
H   H1        1.0  0.33905  0.03604  0.51142  1.0000 0.1192189186
H   H2        1.0  0.66095  0.96396  0.48858  1.0000 0.1192189186
H   H3        1.0  0.38707  0.49805  0.57037  1.0000 0.1192189186
H   H4        1.0  0.61293  0.50195  0.42963  1.0000 0.1192189186
H   H5        1.0  0.20491  0.02119  0.62267  1.0000 0.1192189186
H   H6        1.0  0.79509  0.97881  0.37733  1.0000 0.1192189186
H   H7        1.0  0.01843  0.58331  0.67473  1.0000 0.1313316708
H   H8        1.0  0.98157  0.41669  0.32527  1.0000 0.1313316708
H   H9        1.0  0.68928  0.54418  0.65570  1.0000 0.1119226551
H   H10       1.0  0.31072  0.45582  0.34430  1.0000 0.1119226551
H   H11       1.0  0.77847  0.80188  0.86141  1.0000 0.1192189186
H   H12       1.0  0.22153  0.19812  0.13859  1.0000 0.1192189186
H   H13       1.0  0.86315  0.23279  0.82398  1.0000 0.1192189186
H   H14       1.0  0.13685  0.76721  0.17602  1.0000 0.1192189186
H   H15       1.0  0.68508  0.36908  0.79386  1.0000 0.1313316708
H   H16       1.0  0.31492  0.63092  0.20614  1.0000 0.1313316708
H   H17       1.0  0.18641  0.18325  0.76413  1.0000 0.1403467368
H   H18       1.0  0.81359  0.81675  0.23587  1.0000 0.1403467368
H   H19       1.0  0.75093  0.13812  0.04638  1.0000 0.1192189186
H   H20       1.0  0.24907  0.86188  0.95362  1.0000 0.1192189186
H   H21       1.0  0.45174  0.16846  0.97534  1.0000 0.1119226551
H   H22       1.0  0.54826  0.83154  0.02466  1.0000 0.1119226551
H   H23       1.0  0.37928  0.05100  0.79524  1.0000 0.1119226551
H   H24       1.0  0.62072  0.94900  0.20476  1.0000 0.1119226551
H   H25       1.0  0.59604  0.64380  0.84343  1.0000 0.1403467368
H   H26       1.0  0.40396  0.35620  0.15657  1.0000 0.1403467368
H   H27       1.0  0.41810  0.87249  0.69255  1.0000 0.1192189186
H   H28       1.0  0.58190  0.12751  0.30745  1.0000 0.1192189186
H   H29       1.0  0.21684  0.71866  0.67171  1.0000 0.1403467368
H   H30       1.0  0.78316  0.28134  0.32829  1.0000 0.1403467368
H   H31       1.0  0.85713  0.22874  0.55900  1.0000 0.1192189186
H   H32       1.0  0.14287  0.77126  0.44100  1.0000 0.1192189186
H   H33       1.0  0.55416  0.18320  0.47469  1.0000 0.1313316708
H   H34       1.0  0.44584  0.81680  0.52531  1.0000 0.1313316708
H   H35       1.0  0.05625  0.27018  0.68075  1.0000 0.1192189186
H   H36       1.0  0.94375  0.72982  0.31925  1.0000 0.1192189186
C   C1        1.0  0.29340  0.37330  0.74310  1.0000 0.2071115907
C   C2        1.0  0.70660  0.62670  0.25690  1.0000 0.2071115907
C   C3        1.0  0.20250  0.02210  0.50680  1.0000 -0.1105429287
C   C4        1.0  0.79750  0.97790  0.49320  1.0000 -0.1105429287
C   C5        1.0  0.41210  0.29070  0.77180  1.0000 0.0985709104
C   C6        1.0  0.58790  0.70930  0.22820  1.0000 0.0985709104
C   C7        1.0  0.82990  0.97990  0.63920  1.0000 0.5604113277
C   C8        1.0  0.17010  0.02010  0.36080  1.0000 0.5604113277
C   C9        1.0  0.31880  0.01690  0.95790  1.0000 -0.0187894747
C   C10       1.0  0.68120  0.98310  0.04210  1.0000 -0.0187894747
C   C11       1.0  0.48120  0.44390  0.56900  1.0000 -0.128715149
C   C12       1.0  0.51880  0.55610  0.43100  1.0000 -0.128715149
C   C13       1.0  0.38560  0.65880  0.75300  1.0000 0.0904190501
C   C14       1.0  0.61440  0.34120  0.24700  1.0000 0.0904190501
C   C15       1.0  0.12230  0.01210  0.57360  1.0000 -0.1105429287
C   C16       1.0  0.87770  0.98790  0.42640  1.0000 -0.1105429287
C   C17       1.0  0.12440  0.03600  0.91060  1.0000 0.5433152254
C   C18       1.0  0.87560  0.96400  0.08940  1.0000 0.5433152254
C   C19       1.0  0.27820  0.55200  0.73670  1.0000 0.2023538138
C   C20       1.0  0.72180  0.44800  0.26330  1.0000 0.2023538138
C   C21       1.0  0.08750  0.52820  0.69020  1.0000 -0.2313390364
C   C22       1.0  0.91250  0.47180  0.30980  1.0000 -0.2313390364
C   C23       1.0  0.66330  0.47210  0.61940  1.0000 -0.1469870869
C   C24       1.0  0.33670  0.52790  0.38060  1.0000 -0.1469870869
C   C25       1.0  0.66580  0.78400  0.82210  1.0000 0.0904190501
C   C26       1.0  0.33420  0.21600  0.17790  1.0000 0.0904190501
C   C27       1.0  0.00370  0.42040  0.66760  1.0000 0.1192189186
C   C28       1.0  0.99630  0.57960  0.33240  1.0000 0.1192189186
C   C29       1.0  0.72550  0.22210  0.81070  1.0000 0.0806437257
C   C30       1.0  0.27450  0.77790  0.18930  1.0000 0.0806437257
C   C31       1.0  0.62000  0.30420  0.79250  1.0000 -0.1666263108
C   C32       1.0  0.38000  0.69580  0.20750  1.0000 -0.1666263108
C   C33       1.0  0.32440  0.19430  0.77490  1.0000 -0.1666263108
C   C34       1.0  0.67560  0.80570  0.22510  1.0000 -0.1666263108
C   C35       1.0  0.65060  0.08260  0.02770  1.0000 -0.1105429287
C   C36       1.0  0.34940  0.91740  0.97230  1.0000 -0.1105429287
C   C37       1.0  0.91860  0.98850  0.56790  1.0000 -0.0387569655
C   C38       1.0  0.08140  0.01150  0.43210  1.0000 -0.0387569655
C   C39       1.0  0.47100  0.10130  0.98530  1.0000 -0.1218426161
C   C40       1.0  0.52900  0.89870  0.01470  1.0000 -0.1218426161
C   C41       1.0  0.44170  0.11510  0.79380  1.0000 0.0985709104
C   C42       1.0  0.55830  0.88490  0.20620  1.0000 0.0985709104
C   C43       1.0  0.80700  0.39140  0.61510  1.0000 0.0806437257
C   C44       1.0  0.19300  0.60860  0.38490  1.0000 0.0806437257
C   C45       1.0  0.55660  0.68860  0.81170  1.0000 -0.1788587038
C   C46       1.0  0.44340  0.31140  0.18830  1.0000 -0.1788587038
C   C47       1.0  0.45330  0.82580  0.72330  1.0000 0.0904190501
C   C48       1.0  0.54670  0.17420  0.27670  1.0000 0.0904190501
C   C49       1.0  0.33230  0.73240  0.70950  1.0000 -0.1788587038
C   C50       1.0  0.66770  0.26760  0.29050  1.0000 -0.1788587038
C   C51       1.0  0.76280  0.28300  0.56130  1.0000 -0.1218426161
C   C52       1.0  0.23720  0.71700  0.43870  1.0000 -0.1218426161
C   C53       1.0  0.58080  0.25500  0.51130  1.0000 -0.1105429287
C   C54       1.0  0.41920  0.74500  0.48870  1.0000 -0.1105429287
C   C55       1.0  0.10850  0.34240  0.69470  1.0000 -0.2221950431
C   C56       1.0  0.89150  0.65760  0.30530  1.0000 -0.2221950431
C   C57       1.0  0.43880  0.33590  0.51680  1.0000 0.046841913
C   C58       1.0  0.56120  0.66410  0.48320  1.0000 0.046841913
C   C59       1.0  0.24770  0.31210  0.46460  1.0000 0.2613832291
C   C60       1.0  0.75230  0.68790  0.53540  1.0000 0.2613832291
N   N1        1.0  0.61850  0.85280  0.77860  1.0000 -0.2364587848
N   N2        1.0  0.38150  0.14720  0.22140  1.0000 -0.2364587848
N   N3        1.0  0.37790  0.47600  0.76360  1.0000 -0.3449755971
N   N4        1.0  0.62210  0.52400  0.23640  1.0000 -0.3449755971
N   N5        1.0  0.64240  0.12510  0.81060  1.0000 -0.2313390364
N   N6        1.0  0.35760  0.87490  0.18940  1.0000 -0.2313390364
N   N7        1.0  0.09930  0.29510  0.42310  1.0000 -0.3582899485
N   N8        1.0  0.90070  0.70490  0.57690  1.0000 -0.3582899485
O   O1        1.0  0.94930  0.99080  0.70550  1.0000 -0.5464311902
O   O2        1.0  0.05070  0.00920  0.29450  1.0000 -0.5464311902
O   O3        1.0  0.00900  0.95210  0.87630  1.0000 -0.5325043265
O   O4        1.0  0.99100  0.04790  0.12370  1.0000 -0.5325043265
O   O5        1.0  0.64440  0.96400  0.63340  1.0000 -0.5764682357
O   O6        1.0  0.35560  0.03600  0.36660  1.0000 -0.5764682357
O   O7        1.0  0.09630  0.12910  0.90410  1.0000 -0.5464311902
O   O8        1.0  0.90370  0.87090  0.09590  1.0000 -0.5464311902
