# DDEC6 charges by PACMAN v1.1 (https://github.com/mtap-research/PACMAN-charge/)
data_2023[CuTh][sql]2[ASR]1
_chemical_formula_sum              "Th2 Cu2 H48 C96 N8 O16"
_cell_length_a       15.9853
_cell_length_b       15.9853
_cell_length_c       10.8526
_cell_angle_alpha    76.7396
_cell_angle_beta     103.26
_cell_angle_gamma    81.0696

_symmetry_space_group_name_H-M    "P 1"
_symmetry_Int_Tables_number       1

loop_
  _symmetry_equiv_pos_as_xyz
  'x, y, z'

loop_
  _atom_site_type_symbol
  _atom_site_label
  _atom_site_symmetry_multiplicity
  _atom_site_fract_x
  _atom_site_fract_y
  _atom_site_fract_z
  _atom_site_occupancy
  _atom_site_charge
Th  Th1       1.0  0.44057  0.44057  0.75000  1.0000 2.0930626933
Th  Th2       1.0  0.55943  0.55943  0.25000  1.0000 2.0965157096
Cu  Cu1       1.0  0.94188  0.94188  0.75000  1.0000 0.6039333288
Cu  Cu2       1.0  0.05812  0.05812  0.25000  1.0000 0.6055225675
H   H1        1.0  0.61535  0.65115  0.55393  1.0000 0.135309944
H   H2        1.0  0.65115  0.61535  0.94607  1.0000 0.1279452264
H   H3        1.0  0.71747  0.74035  0.55762  1.0000 0.1145906542
H   H4        1.0  0.74035  0.71747  0.94238  1.0000 0.1145906542
H   H5        1.0  0.64000  0.88638  0.55213  1.0000 0.1279452264
H   H6        1.0  0.88638  0.64000  0.94787  1.0000 0.1279452264
H   H7        1.0  0.64288  0.02964  0.40860  1.0000 0.1279452264
H   H8        1.0  0.02964  0.64288  0.09140  1.0000 0.1279452264
H   H9        1.0  0.89719  0.20191  0.34804  1.0000 0.1279452264
H   H10       1.0  0.20191  0.89719  0.15196  1.0000 0.1279452264
H   H11       1.0  0.04088  0.20236  0.49839  1.0000 0.1279452264
H   H12       1.0  0.20236  0.04088  0.00161  1.0000 0.1279452264
H   H13       1.0  0.06493  0.24313  0.78065  1.0000 0.1176203197
H   H14       1.0  0.24313  0.06493  0.71935  1.0000 0.1176203197
H   H15       1.0  0.16167  0.33829  0.78662  1.0000 0.1279452264
H   H16       1.0  0.33829  0.16167  0.71338  1.0000 0.1279452264
H   H17       1.0  0.65978  0.19943  0.42520  1.0000 0.1279452264
H   H18       1.0  0.19944  0.65978  0.07480  1.0000 0.1279452264
H   H19       1.0  0.80632  0.10392  0.20883  1.0000 0.1176203197
H   H20       1.0  0.10392  0.80632  0.29117  1.0000 0.1176203197
H   H21       1.0  0.55971  0.29171  0.23401  1.0000 0.1279452264
H   H22       1.0  0.29171  0.55971  0.26599  1.0000 0.1279452264
H   H23       1.0  0.70649  0.19687  0.01674  1.0000 0.1176203197
H   H24       1.0  0.19687  0.70649  0.48326  1.0000 0.1176203197
H   H25       1.0  0.38465  0.34885  0.44607  1.0000 0.135309944
H   H26       1.0  0.34885  0.38465  0.05393  1.0000 0.135309944
H   H27       1.0  0.28253  0.25965  0.44238  1.0000 0.1145906542
H   H28       1.0  0.25965  0.28253  0.05762  1.0000 0.1145906542
H   H29       1.0  0.36000  0.11362  0.44787  1.0000 0.1279452264
H   H30       1.0  0.11362  0.36000  0.05213  1.0000 0.1279452264
H   H31       1.0  0.35712  0.97036  0.59140  1.0000 0.1279452264
H   H32       1.0  0.97036  0.35712  0.90860  1.0000 0.1279452264
H   H33       1.0  0.10281  0.79809  0.65196  1.0000 0.1279452264
H   H34       1.0  0.79809  0.10281  0.84804  1.0000 0.1279452264
H   H35       1.0  0.95912  0.79764  0.50161  1.0000 0.1279452264
H   H36       1.0  0.79764  0.95912  0.99839  1.0000 0.1279452264
H   H37       1.0  0.93507  0.75687  0.21935  1.0000 0.1176203197
H   H38       1.0  0.75687  0.93507  0.28065  1.0000 0.1176203197
H   H39       1.0  0.83833  0.66171  0.21338  1.0000 0.1279452264
H   H40       1.0  0.66171  0.83833  0.28662  1.0000 0.1279452264
H   H41       1.0  0.34021  0.80056  0.57480  1.0000 0.1279452264
H   H42       1.0  0.80056  0.34022  0.92520  1.0000 0.1279452264
H   H43       1.0  0.19368  0.89608  0.79117  1.0000 0.1176203197
H   H44       1.0  0.89608  0.19368  0.70883  1.0000 0.1145906542
H   H45       1.0  0.44029  0.70829  0.76599  1.0000 0.1279452264
H   H46       1.0  0.70829  0.44029  0.73401  1.0000 0.1279452264
H   H47       1.0  0.29351  0.80313  0.98326  1.0000 0.1176203197
H   H48       1.0  0.80313  0.29351  0.51674  1.0000 0.1176203197
C   C1        1.0  0.56200  0.56200  0.75000  1.0000 0.5479952041
C   C2        1.0  0.62280  0.62280  0.75000  1.0000 -0.0185862726
C   C3        1.0  0.64270  0.66210  0.63440  1.0000 -0.0796480153
C   C4        1.0  0.66210  0.64270  0.86560  1.0000 -0.0796480153
C   C5        1.0  0.70200  0.71720  0.63600  1.0000 -0.1496998704
C   C6        1.0  0.71720  0.70200  0.86400  1.0000 -0.1496998704
C   C7        1.0  0.73920  0.73920  0.75000  1.0000 0.0821045383
C   C8        1.0  0.80090  0.80090  0.75000  1.0000 -0.0796480153
C   C9        1.0  0.77300  0.88240  0.65620  1.0000 0.1877597627
C   C10       1.0  0.88240  0.77300  0.84380  1.0000 0.1877597627
C   C11       1.0  0.68810  0.91490  0.55910  1.0000 -0.1731771826
C   C12       1.0  0.91490  0.68810  0.94090  1.0000 -0.1731771826
C   C13       1.0  0.68980  0.99280  0.48060  1.0000 -0.1837445292
C   C14       1.0  0.99280  0.68980  0.01940  1.0000 -0.1837445292
C   C15       1.0  0.77570  0.00990  0.52570  1.0000 0.1827048958
C   C16       1.0  0.00990  0.77570  0.97430  1.0000 0.1827048958
C   C17       1.0  0.80580  0.07980  0.45860  1.0000 -0.0725718494
C   C18       1.0  0.07980  0.80580  0.04140  1.0000 -0.0725718494
C   C19       1.0  0.88980  0.09420  0.50240  1.0000 0.1877597627
C   C20       1.0  0.09420  0.88980  0.99760  1.0000 0.1877597627
C   C21       1.0  0.92420  0.16360  0.43400  1.0000 -0.1837445292
C   C22       1.0  0.16360  0.92420  0.06600  1.0000 -0.1837445292
C   C23       1.0  0.00270  0.16390  0.51600  1.0000 -0.1731771826
C   C24       1.0  0.16390  0.00270  0.98400  1.0000 -0.1731771826
C   C25       1.0  0.01620  0.09480  0.63440  1.0000 0.1827048958
C   C26       1.0  0.09480  0.01620  0.86560  1.0000 0.1827048958
C   C27       1.0  0.08210  0.08210  0.75000  1.0000 -0.0796480153
C   C28       1.0  0.14490  0.14490  0.75000  1.0000 0.08868091
C   C29       1.0  0.12140  0.22560  0.76870  1.0000 -0.1496998704
C   C30       1.0  0.22560  0.12140  0.73130  1.0000 -0.1496998704
C   C31       1.0  0.17850  0.28290  0.77080  1.0000 -0.0970488507
C   C32       1.0  0.28290  0.17850  0.72920  1.0000 -0.0970488507
C   C33       1.0  0.25930  0.25930  0.75000  1.0000 -0.0185862726
C   C34       1.0  0.32110  0.32110  0.75000  1.0000 0.5650983397
C   C35       1.0  0.74340  0.14220  0.33560  1.0000 0.0821045383
C   C36       1.0  0.14220  0.74340  0.16440  1.0000 0.0821045383
C   C37       1.0  0.66920  0.19880  0.34200  1.0000 -0.1419784371
C   C38       1.0  0.19880  0.66920  0.15800  1.0000 -0.1419784371
C   C39       1.0  0.75620  0.14200  0.21410  1.0000 -0.1574047561
C   C40       1.0  0.14200  0.75620  0.28590  1.0000 -0.1574047561
C   C41       1.0  0.60960  0.25340  0.22850  1.0000 -0.0796480153
C   C42       1.0  0.25340  0.60960  0.27150  1.0000 -0.0796480153
C   C43       1.0  0.69670  0.19710  0.09980  1.0000 -0.0970488507
C   C44       1.0  0.19710  0.69670  0.40020  1.0000 -0.0970488507
C   C45       1.0  0.62180  0.25300  0.10610  1.0000 -0.0102617611
C   C46       1.0  0.25300  0.62180  0.39390  1.0000 -0.0102617611
C   C47       1.0  0.55730  0.31050  0.98190  1.0000 0.564444298
C   C48       1.0  0.31050  0.55730  0.51810  1.0000 0.564444298
C   C49       1.0  0.43800  0.43800  0.25000  1.0000 0.5479952041
C   C50       1.0  0.37720  0.37720  0.25000  1.0000 -0.0185862726
C   C51       1.0  0.35730  0.33790  0.36560  1.0000 -0.0796480153
C   C52       1.0  0.33790  0.35730  0.13440  1.0000 -0.0796480153
C   C53       1.0  0.29800  0.28280  0.36400  1.0000 -0.1496998704
C   C54       1.0  0.28280  0.29800  0.13600  1.0000 -0.1496998704
C   C55       1.0  0.26080  0.26080  0.25000  1.0000 0.0821045383
C   C56       1.0  0.19910  0.19910  0.25000  1.0000 -0.0796480153
C   C57       1.0  0.22700  0.11760  0.34380  1.0000 0.1877597627
C   C58       1.0  0.11760  0.22700  0.15620  1.0000 0.1877597627
C   C59       1.0  0.31190  0.08510  0.44090  1.0000 -0.1731771826
C   C60       1.0  0.08510  0.31190  0.05910  1.0000 -0.1731771826
C   C61       1.0  0.31020  0.00720  0.51940  1.0000 -0.1837445292
C   C62       1.0  0.00720  0.31020  0.98060  1.0000 -0.1837445292
C   C63       1.0  0.22430  0.99010  0.47430  1.0000 0.1827048958
C   C64       1.0  0.99010  0.22430  0.02570  1.0000 0.1827048958
C   C65       1.0  0.19420  0.92020  0.54140  1.0000 -0.0725718494
C   C66       1.0  0.92020  0.19420  0.95860  1.0000 -0.0725718494
C   C67       1.0  0.11020  0.90580  0.49760  1.0000 0.1877597627
C   C68       1.0  0.90580  0.11020  0.00240  1.0000 0.1877597627
C   C69       1.0  0.07580  0.83640  0.56600  1.0000 -0.1837445292
C   C70       1.0  0.83640  0.07580  0.93400  1.0000 -0.1837445292
C   C71       1.0  0.99730  0.83610  0.48400  1.0000 -0.1731771826
C   C72       1.0  0.83610  0.99730  0.01600  1.0000 -0.1731771826
C   C73       1.0  0.98380  0.90520  0.36560  1.0000 0.1827048958
C   C74       1.0  0.90520  0.98380  0.13440  1.0000 0.1827048958
C   C75       1.0  0.91790  0.91790  0.25000  1.0000 -0.0796480153
C   C76       1.0  0.85510  0.85510  0.25000  1.0000 0.08868091
C   C77       1.0  0.87860  0.77440  0.23130  1.0000 -0.1496998704
C   C78       1.0  0.77440  0.87860  0.26870  1.0000 -0.1496998704
C   C79       1.0  0.82150  0.71710  0.22920  1.0000 -0.0970488507
C   C80       1.0  0.71710  0.82150  0.27080  1.0000 -0.0970488507
C   C81       1.0  0.74070  0.74070  0.25000  1.0000 -0.0185862726
C   C82       1.0  0.67890  0.67890  0.25000  1.0000 0.5650983397
C   C83       1.0  0.25660  0.85780  0.66440  1.0000 0.0821045383
C   C84       1.0  0.85780  0.25660  0.83560  1.0000 0.0821045383
C   C85       1.0  0.33080  0.80120  0.65800  1.0000 -0.1419784371
C   C86       1.0  0.80120  0.33080  0.84200  1.0000 -0.1419784371
C   C87       1.0  0.24380  0.85800  0.78590  1.0000 -0.1574047561
C   C88       1.0  0.85800  0.24380  0.71410  1.0000 -0.1574047561
C   C89       1.0  0.39040  0.74660  0.77150  1.0000 -0.0796480153
C   C90       1.0  0.74660  0.39040  0.72850  1.0000 -0.0796480153
C   C91       1.0  0.30330  0.80290  0.90020  1.0000 -0.0970488507
C   C92       1.0  0.80290  0.30330  0.59980  1.0000 -0.0970488507
C   C93       1.0  0.37820  0.74700  0.89390  1.0000 -0.0102617611
C   C94       1.0  0.74700  0.37820  0.60610  1.0000 -0.0102617611
C   C95       1.0  0.44270  0.68950  0.01810  1.0000 0.564444298
C   C96       1.0  0.68950  0.44270  0.48190  1.0000 0.564444298
N   N1        1.0  0.82555  0.94275  0.63510  1.0000 -0.3782492931
N   N2        1.0  0.94275  0.82555  0.86490  1.0000 -0.3782492931
N   N3        1.0  0.94926  0.05106  0.62270  1.0000 -0.3782492931
N   N4        1.0  0.05106  0.94926  0.87730  1.0000 -0.3782492931
N   N5        1.0  0.17445  0.05725  0.36490  1.0000 -0.3782492931
N   N6        1.0  0.05725  0.17445  0.13510  1.0000 -0.3782492931
N   N7        1.0  0.05074  0.94894  0.37730  1.0000 -0.3782492931
N   N8        1.0  0.94894  0.05074  0.12270  1.0000 -0.3782492931
O   O1        1.0  0.50393  0.56633  0.64630  1.0000 -0.5672710444
O   O2        1.0  0.56633  0.50393  0.85370  1.0000 -0.5672710444
O   O3        1.0  0.39476  0.30016  0.72710  1.0000 -0.5601326134
O   O4        1.0  0.30016  0.39476  0.77290  1.0000 -0.5601326134
O   O5        1.0  0.48711  0.35771  0.98760  1.0000 -0.5838329251
O   O6        1.0  0.35771  0.48711  0.51240  1.0000 -0.5838329251
O   O7        1.0  0.57255  0.31415  0.87260  1.0000 -0.5601326134
O   O8        1.0  0.31415  0.57255  0.62740  1.0000 -0.5601326134
O   O9        1.0  0.49607  0.43367  0.35370  1.0000 -0.5672710444
O   O10       1.0  0.43367  0.49607  0.14630  1.0000 -0.5672710444
O   O11       1.0  0.60524  0.69984  0.27290  1.0000 -0.5601326134
O   O12       1.0  0.69984  0.60524  0.22710  1.0000 -0.5601326134
O   O13       1.0  0.51289  0.64229  0.01240  1.0000 -0.5838329251
O   O14       1.0  0.64229  0.51289  0.48760  1.0000 -0.5838329251
O   O15       1.0  0.42745  0.68585  0.12740  1.0000 -0.5601326134
O   O16       1.0  0.68585  0.42745  0.37260  1.0000 -0.5601326134
