# DDEC6 charges by PACMAN v1.1 (https://github.com/mtap-research/PACMAN-charge/)
data_2023[Zn][bex]2[ASR]1
_chemical_formula_sum              "Zn2 H20 C30 S2 N4 O14"
_cell_length_a       7.418
_cell_length_b       9.9826
_cell_length_c       13.8576
_cell_angle_alpha    67.0175
_cell_angle_beta     75.9397
_cell_angle_gamma    72.525

_symmetry_space_group_name_H-M    "P 1"
_symmetry_Int_Tables_number       1

loop_
  _symmetry_equiv_pos_as_xyz
  'x, y, z'

loop_
  _atom_site_type_symbol
  _atom_site_label
  _atom_site_symmetry_multiplicity
  _atom_site_fract_x
  _atom_site_fract_y
  _atom_site_fract_z
  _atom_site_occupancy
  _atom_site_charge
Zn  Zn1       1.0  0.39167  0.93451  0.82252  1.0000 0.9798308601
Zn  Zn2       1.0  0.60833  0.06549  0.17748  1.0000 0.9798308601
H   H1        1.0  0.29820  0.01080  0.51570  1.0000 0.129655064
H   H2        1.0  0.70180  0.98920  0.48430  1.0000 0.129655064
H   H3        1.0  0.48390  0.33420  0.26750  1.0000 0.1529728462
H   H4        1.0  0.51610  0.66580  0.73250  1.0000 0.1529728462
H   H5        1.0  0.72010  0.32000  0.35260  1.0000 0.1580913753
H   H6        1.0  0.27990  0.68000  0.64740  1.0000 0.1580913753
H   H7        1.0  0.17210  0.54250  0.06160  1.0000 0.1580913753
H   H8        1.0  0.82790  0.45750  0.93840  1.0000 0.1580913753
H   H9        1.0  0.38300  0.49800  0.08390  1.0000 0.1411397894
H   H10       1.0  0.61700  0.50200  0.91610  1.0000 0.1411397894
H   H11       1.0  0.07960  0.62310  0.21300  1.0000 0.129655064
H   H12       1.0  0.92040  0.37690  0.78700  1.0000 0.129655064
H   H13       1.0  0.14830  0.44960  0.23920  1.0000 0.129655064
H   H14       1.0  0.85170  0.55040  0.76080  1.0000 0.129655064
H   H15       1.0  0.46720  0.73480  0.35640  1.0000 0.1529728462
H   H16       1.0  0.53280  0.26520  0.64360  1.0000 0.1529728462
H   H17       1.0  0.23660  0.74190  0.26930  1.0000 0.1580913753
H   H18       1.0  0.76340  0.25810  0.73070  1.0000 0.1580913753
H   H19       1.0  0.08660  0.09200  0.88430  1.0000 0.3873743703
H   H20       1.0  0.91340  0.90800  0.11570  1.0000 0.3873743703
C   C1        1.0  0.04080  0.97982  0.59888  1.0000 -0.0356050218
C   C2        1.0  0.95920  0.02018  0.40112  1.0000 -0.0356050218
C   C3        1.0  0.86190  0.97144  0.58896  1.0000 -0.0192984092
C   C4        1.0  0.13810  0.02856  0.41104  1.0000 -0.0192984092
C   C5        1.0  0.08380  0.96895  0.70295  1.0000 0.5547855487
C   C6        1.0  0.91620  0.03105  0.29705  1.0000 0.5547855487
C   C7        1.0  0.17800  0.00704  0.50936  1.0000 -0.1393809924
C   C8        1.0  0.82200  0.99296  0.49064  1.0000 -0.1393809924
C   C9        1.0  0.71440  0.92960  0.68440  1.0000 0.555207788
C   C10       1.0  0.28560  0.07040  0.31560  1.0000 0.5547855487
C   C11       1.0  0.28270  0.72410  0.02300  1.0000 0.6236134162
C   C12       1.0  0.71730  0.27590  0.97700  1.0000 0.6236134162
C   C13       1.0  0.77280  0.52080  0.41710  1.0000 0.0986823926
C   C14       1.0  0.22720  0.47920  0.58290  1.0000 0.0986823926
C   C15       1.0  0.48220  0.41490  0.28580  1.0000 0.0445005474
C   C16       1.0  0.51780  0.58510  0.71420  1.0000 0.0445005474
C   C17       1.0  0.62330  0.40630  0.33620  1.0000 -0.1512761275
C   C18       1.0  0.37670  0.59370  0.66380  1.0000 -0.1512761275
C   C19       1.0  0.97890  0.57130  0.50190  1.0000 0.0532490061
C   C20       1.0  0.02110  0.42870  0.49810  1.0000 0.0532490061
C   C21       1.0  0.26040  0.56710  0.09000  1.0000 -0.3251920948
C   C22       1.0  0.73960  0.43290  0.91000  1.0000 -0.3251920948
C   C23       1.0  0.62240  0.52750  0.36320  1.0000 0.0986823926
C   C24       1.0  0.37760  0.47250  0.63680  1.0000 0.0986823926
C   C25       1.0  0.18920  0.54300  0.20620  1.0000 -0.1002791981
C   C26       1.0  0.81080  0.45700  0.79380  1.0000 -0.1002791981
C   C27       1.0  0.47310  0.65310  0.33820  1.0000 -0.1629589806
C   C28       1.0  0.52690  0.34690  0.66180  1.0000 -0.1629589806
C   C29       1.0  0.33480  0.65680  0.28690  1.0000 0.0684344908
C   C30       1.0  0.66520  0.34320  0.71310  1.0000 0.0684344908
S   S1        1.0  0.78316  0.67818  0.44092  1.0000 0.129655064
S   S2        1.0  0.21684  0.32182  0.55908  1.0000 0.129655064
N   N1        1.0  0.33950  0.53895  0.26175  1.0000 0.0986823926
N   N2        1.0  0.66050  0.46105  0.73825  1.0000 0.0986823926
N   N3        1.0  0.90710  0.39660  0.45050  1.0000 -0.2976695011
N   N4        1.0  0.09290  0.60340  0.54950  1.0000 -0.2976695011
O   O1        1.0  0.56040  0.02384  0.68956  1.0000 -0.5129314969
O   O2        1.0  0.43960  0.97616  0.31044  1.0000 -0.5129314969
O   O3        1.0  0.25220  0.90490  0.72200  1.0000 -0.5340818773
O   O4        1.0  0.74780  0.09510  0.27800  1.0000 -0.5340818773
O   O5        1.0  0.36560  0.73899  0.92871  1.0000 -0.5629709969
O   O6        1.0  0.63440  0.26101  0.07129  1.0000 -0.5629709969
O   O7        1.0  0.74500  0.80320  0.75100  1.0000 -0.5129314969
O   O8        1.0  0.25500  0.19680  0.24900  1.0000 -0.5129314969
O   O9        1.0  0.95380  0.02404  0.76096  1.0000 -0.4608919432
O   O10       1.0  0.04620  0.97596  0.23904  1.0000 -0.4608919432
O   O11       1.0  0.21690  0.82655  0.05875  1.0000 -0.4608919432
O   O12       1.0  0.78310  0.17345  0.94125  1.0000 -0.4545882652
O   O13       1.0  0.19530  0.11560  0.84610  1.0000 -0.7296037088
O   O14       1.0  0.80470  0.88440  0.15390  1.0000 -0.7296037088
