# DDEC6 charges by PACMAN v1.1 (https://github.com/mtap-research/PACMAN-charge/)
data_2023[Zn][nan]3[ASR]7
_chemical_formula_sum              "Zn4 H80 C116 N4 O16"
_cell_length_a       13.9983
_cell_length_b       13.9983
_cell_length_c       28.8378
_cell_angle_alpha    87.7984
_cell_angle_beta     92.2016
_cell_angle_gamma    145.875

_symmetry_space_group_name_H-M    "P 1"
_symmetry_Int_Tables_number       1

loop_
  _symmetry_equiv_pos_as_xyz
  'x, y, z'

loop_
  _atom_site_type_symbol
  _atom_site_label
  _atom_site_symmetry_multiplicity
  _atom_site_fract_x
  _atom_site_fract_y
  _atom_site_fract_z
  _atom_site_occupancy
  _atom_site_charge
Zn  Zn1       1.0  0.40405  0.33279  0.50739  1.0000 0.8145196519
Zn  Zn2       1.0  0.33279  0.40405  0.99261  1.0000 0.8145196519
Zn  Zn3       1.0  0.59595  0.66721  0.49261  1.0000 0.8145196519
Zn  Zn4       1.0  0.66721  0.59595  0.00739  1.0000 0.8145196519
H   H1        1.0  0.44331  0.17519  0.55367  1.0000 0.1132618419
H   H2        1.0  0.17519  0.44331  0.94633  1.0000 0.1132618419
H   H3        1.0  0.55669  0.82481  0.44633  1.0000 0.1132618419
H   H4        1.0  0.82481  0.55669  0.05367  1.0000 0.1132618419
H   H5        1.0  0.33069  0.93161  0.55330  1.0000 0.1294294183
H   H6        1.0  0.93161  0.33069  0.94670  1.0000 0.1294294183
H   H7        1.0  0.66931  0.06839  0.44670  1.0000 0.1294294183
H   H8        1.0  0.06839  0.66931  0.05330  1.0000 0.1294294183
H   H9        1.0  0.97978  0.73960  0.46198  1.0000 0.1294294183
H   H10       1.0  0.73960  0.97978  0.03802  1.0000 0.1294294183
H   H11       1.0  0.02022  0.26040  0.53802  1.0000 0.1294294183
H   H12       1.0  0.26040  0.02022  0.96198  1.0000 0.1294294183
H   H13       1.0  0.09704  0.98594  0.46698  1.0000 0.1192350742
H   H14       1.0  0.98594  0.09704  0.03302  1.0000 0.1192350742
H   H15       1.0  0.90296  0.01406  0.53302  1.0000 0.1192350742
H   H16       1.0  0.01406  0.90296  0.96698  1.0000 0.1192350742
H   H17       1.0  0.82475  0.48639  0.49134  1.0000 0.1294294183
H   H18       1.0  0.48639  0.82475  0.00866  1.0000 0.1294294183
H   H19       1.0  0.17525  0.51361  0.50866  1.0000 0.1294294183
H   H20       1.0  0.51361  0.17525  0.99134  1.0000 0.1192350742
H   H21       1.0  0.71495  0.24535  0.48562  1.0000 0.1192350742
H   H22       1.0  0.24535  0.71495  0.01438  1.0000 0.1192350742
H   H23       1.0  0.28505  0.75465  0.51438  1.0000 0.1192350742
H   H24       1.0  0.75465  0.28505  0.98562  1.0000 0.1192350742
H   H25       1.0  0.99215  0.06129  0.40877  1.0000 0.1192350742
H   H26       1.0  0.06129  0.99215  0.09123  1.0000 0.1192350742
H   H27       1.0  0.00785  0.93871  0.59123  1.0000 0.1192350742
H   H28       1.0  0.93871  0.00785  0.90877  1.0000 0.1192350742
H   H29       1.0  0.80796  0.95964  0.35047  1.0000 0.1192350742
H   H30       1.0  0.95964  0.80796  0.14953  1.0000 0.1192350742
H   H31       1.0  0.19204  0.04036  0.64953  1.0000 0.1192350742
H   H32       1.0  0.04036  0.19204  0.85047  1.0000 0.1192350742
H   H33       1.0  0.02153  0.39569  0.34982  1.0000 0.1192350742
H   H34       1.0  0.39569  0.02153  0.15018  1.0000 0.1192350742
H   H35       1.0  0.97847  0.60431  0.65018  1.0000 0.1192350742
H   H36       1.0  0.60431  0.97847  0.84982  1.0000 0.1192350742
H   H37       1.0  0.21226  0.50088  0.40586  1.0000 0.1192350742
H   H38       1.0  0.50088  0.21226  0.09414  1.0000 0.1192350742
H   H39       1.0  0.78774  0.49912  0.59414  1.0000 0.1192350742
H   H40       1.0  0.49912  0.78774  0.90586  1.0000 0.1192350742
H   H41       1.0  0.59620  0.21562  0.24790  1.0000 0.1451525322
H   H42       1.0  0.21562  0.59620  0.25210  1.0000 0.1451525322
H   H43       1.0  0.40380  0.78438  0.75210  1.0000 0.1451525322
H   H44       1.0  0.78438  0.40380  0.74790  1.0000 0.1451525322
H   H45       1.0  0.41697  0.01803  0.24682  1.0000 0.1294294183
H   H46       1.0  0.01803  0.41697  0.25318  1.0000 0.1294294183
H   H47       1.0  0.58303  0.98197  0.75318  1.0000 0.1294294183
H   H48       1.0  0.98197  0.58303  0.74682  1.0000 0.1294294183
H   H49       1.0  0.50288  0.11224  0.29444  1.0000 0.1394509009
H   H50       1.0  0.11224  0.50288  0.20556  1.0000 0.1394509009
H   H51       1.0  0.49712  0.88776  0.70556  1.0000 0.1394509009
H   H52       1.0  0.88776  0.49712  0.79444  1.0000 0.1394509009
H   H53       1.0  0.72129  0.18325  0.32771  1.0000 0.1192350742
H   H54       1.0  0.18325  0.72129  0.17229  1.0000 0.1192350742
H   H55       1.0  0.27871  0.81675  0.67229  1.0000 0.1192350742
H   H56       1.0  0.81675  0.27871  0.82771  1.0000 0.1192350742
H   H57       1.0  0.80622  0.00756  0.26704  1.0000 0.1192350742
H   H58       1.0  0.00756  0.80622  0.23296  1.0000 0.1192350742
H   H59       1.0  0.19378  0.99244  0.73296  1.0000 0.1192350742
H   H60       1.0  0.99244  0.19378  0.76704  1.0000 0.1192350742
H   H61       1.0  0.52831  0.97989  0.20182  1.0000 0.1192350742
H   H62       1.0  0.97989  0.52831  0.29818  1.0000 0.1192350742
H   H63       1.0  0.47169  0.02011  0.79818  1.0000 0.1192350742
H   H64       1.0  0.02011  0.47169  0.70182  1.0000 0.1192350742
H   H65       1.0  0.82660  0.88504  0.13163  1.0000 0.1192350742
H   H66       1.0  0.88504  0.82660  0.36837  1.0000 0.1192350742
H   H67       1.0  0.17340  0.11496  0.86837  1.0000 0.1192350742
H   H68       1.0  0.11496  0.17340  0.63163  1.0000 0.1192350742
H   H69       1.0  0.86330  0.01142  0.19376  1.0000 0.1192350742
H   H70       1.0  0.01142  0.86330  0.30624  1.0000 0.1192350742
H   H71       1.0  0.13670  0.98858  0.80624  1.0000 0.1192350742
H   H72       1.0  0.98858  0.13670  0.69376  1.0000 0.1192350742
H   H73       1.0  0.41375  0.76293  0.16509  1.0000 0.1132618419
H   H74       1.0  0.76293  0.41375  0.33491  1.0000 0.1132618419
H   H75       1.0  0.58625  0.23707  0.83491  1.0000 0.1132618419
H   H76       1.0  0.23707  0.58625  0.66509  1.0000 0.1132618419
H   H77       1.0  0.37990  0.63812  0.10306  1.0000 0.1294294183
H   H78       1.0  0.63812  0.37990  0.39694  1.0000 0.1294294183
H   H79       1.0  0.62010  0.36188  0.89694  1.0000 0.1294294183
H   H80       1.0  0.36188  0.62010  0.60306  1.0000 0.1294294183
C   C1        1.0  0.34925  0.08635  0.53472  1.0000 0.0766629993
C   C2        1.0  0.08635  0.34925  0.96528  1.0000 0.0766629993
C   C3        1.0  0.65075  0.91365  0.46528  1.0000 0.0766629993
C   C4        1.0  0.91365  0.65075  0.03472  1.0000 0.0766629993
C   C5        1.0  0.28262  0.94058  0.53464  1.0000 -0.2024649263
C   C6        1.0  0.94058  0.28262  0.96536  1.0000 -0.2024649263
C   C7        1.0  0.71738  0.05942  0.46536  1.0000 -0.2024649263
C   C8        1.0  0.05942  0.71738  0.03464  1.0000 -0.2024649263
C   C9        1.0  0.14191  0.80589  0.50622  1.0000 0.1192350742
C   C10       1.0  0.80589  0.14191  0.99378  1.0000 0.1192350742
C   C11       1.0  0.85809  0.19411  0.49378  1.0000 0.1192350742
C   C12       1.0  0.19411  0.85809  0.00622  1.0000 0.1192350742
C   C13       1.0  0.07467  0.82673  0.48096  1.0000 -0.1916441985
C   C14       1.0  0.82673  0.07467  0.01904  1.0000 -0.1916441985
C   C15       1.0  0.92533  0.17327  0.51904  1.0000 -0.1916441985
C   C16       1.0  0.17327  0.92533  0.98096  1.0000 -0.1916441985
C   C17       1.0  0.14710  0.97630  0.48360  1.0000 0.0989447839
C   C18       1.0  0.97630  0.14710  0.01640  1.0000 0.0989447839
C   C19       1.0  0.85290  0.02370  0.51640  1.0000 0.0989447839
C   C20       1.0  0.02370  0.85290  0.98360  1.0000 0.0989447839
C   C21       1.0  0.06942  0.64858  0.50364  1.0000 0.0614943958
C   C22       1.0  0.64858  0.06942  0.99636  1.0000 0.0614943958
C   C23       1.0  0.93058  0.35142  0.49636  1.0000 0.0614943958
C   C24       1.0  0.35142  0.93058  0.00364  1.0000 0.0614943958
C   C25       1.0  0.89606  0.49254  0.49487  1.0000 -0.1407907425
C   C26       1.0  0.49254  0.89606  0.00513  1.0000 -0.1407907425
C   C27       1.0  0.10394  0.50746  0.50513  1.0000 -0.1407907425
C   C28       1.0  0.50746  0.10394  0.99487  1.0000 -0.1407907425
C   C29       1.0  0.83088  0.34852  0.49146  1.0000 -0.134230397
C   C30       1.0  0.34852  0.83088  0.00854  1.0000 -0.1407907425
C   C31       1.0  0.16912  0.65148  0.50854  1.0000 -0.134230397
C   C32       1.0  0.65148  0.16912  0.99146  1.0000 -0.1407907425
C   C33       1.0  0.26126  0.36894  0.44578  1.0000 0.5671866542
C   C34       1.0  0.36894  0.26126  0.05422  1.0000 0.5671866542
C   C35       1.0  0.73874  0.63106  0.55422  1.0000 0.5671866542
C   C36       1.0  0.63106  0.73874  0.94578  1.0000 0.5671866542
C   C37       1.0  0.12865  0.29595  0.41167  1.0000 -0.0311710504
C   C38       1.0  0.29595  0.12865  0.08833  1.0000 -0.0311710504
C   C39       1.0  0.87135  0.70405  0.58833  1.0000 -0.0311710504
C   C40       1.0  0.70405  0.87135  0.91167  1.0000 -0.0311710504
C   C41       1.0  0.00158  0.13082  0.39597  1.0000 -0.1039474525
C   C42       1.0  0.13082  0.00158  0.10403  1.0000 -0.1039474525
C   C43       1.0  0.99842  0.86918  0.60403  1.0000 -0.1039474525
C   C44       1.0  0.86918  0.99842  0.89597  1.0000 -0.1039474525
C   C45       1.0  0.88925  0.06895  0.36156  1.0000 -0.1485977707
C   C46       1.0  0.06895  0.88925  0.13844  1.0000 -0.1485977707
C   C47       1.0  0.11075  0.93105  0.63844  1.0000 -0.1485977707
C   C48       1.0  0.93105  0.11075  0.86156  1.0000 -0.1485977707
C   C49       1.0  0.89534  0.16626  0.34334  1.0000 0.0686939551
C   C50       1.0  0.16626  0.89534  0.15666  1.0000 0.0686939551
C   C51       1.0  0.10466  0.83374  0.65666  1.0000 0.0686939551
C   C52       1.0  0.83374  0.10466  0.84334  1.0000 0.0686939551
C   C53       1.0  0.01746  0.32914  0.36094  1.0000 -0.1570499198
C   C54       1.0  0.32914  0.01746  0.13906  1.0000 -0.1570499198
C   C55       1.0  0.98254  0.67086  0.63906  1.0000 -0.1570499198
C   C56       1.0  0.67086  0.98254  0.86094  1.0000 -0.1570499198
C   C57       1.0  0.13171  0.39209  0.39450  1.0000 -0.1107308473
C   C58       1.0  0.39209  0.13171  0.10550  1.0000 -0.1107308473
C   C59       1.0  0.86829  0.60791  0.60550  1.0000 -0.1107308473
C   C60       1.0  0.60791  0.86829  0.89450  1.0000 -0.1107308473
C   C61       1.0  0.52324  0.10956  0.26340  1.0000 -0.4667773464
C   C62       1.0  0.10956  0.52324  0.23660  1.0000 -0.4667773464
C   C63       1.0  0.47676  0.89044  0.73660  1.0000 -0.4667773464
C   C64       1.0  0.89044  0.47676  0.76340  1.0000 -0.4667773464
C   C65       1.0  0.60766  0.08274  0.26528  1.0000 0.1720819554
C   C66       1.0  0.08274  0.60766  0.23472  1.0000 0.1720819554
C   C67       1.0  0.39234  0.91726  0.73472  1.0000 0.1720819554
C   C68       1.0  0.91726  0.39234  0.76528  1.0000 0.1720819554
C   C69       1.0  0.70582  0.13138  0.30263  1.0000 -0.2286094048
C   C70       1.0  0.13138  0.70582  0.19737  1.0000 -0.2286094048
C   C71       1.0  0.29418  0.86862  0.69737  1.0000 -0.2286094048
C   C72       1.0  0.86862  0.29418  0.80263  1.0000 -0.2286094048
C   C73       1.0  0.78175  0.10505  0.30376  1.0000 0.0766629993
C   C74       1.0  0.10505  0.78175  0.19624  1.0000 0.0766629993
C   C75       1.0  0.21825  0.89495  0.69624  1.0000 0.0766629993
C   C76       1.0  0.89495  0.21825  0.80376  1.0000 0.0766629993
C   C77       1.0  0.75792  0.02828  0.26626  1.0000 -0.2111273513
C   C78       1.0  0.02828  0.75792  0.23374  1.0000 -0.2111273513
C   C79       1.0  0.24208  0.97172  0.73374  1.0000 -0.2111273513
C   C80       1.0  0.97172  0.24208  0.76626  1.0000 -0.2111273513
C   C81       1.0  0.66389  0.98091  0.22746  1.0000 0.0766629993
C   C82       1.0  0.98091  0.66389  0.27254  1.0000 0.0766629993
C   C83       1.0  0.33611  0.01909  0.77254  1.0000 0.0766629993
C   C84       1.0  0.01909  0.33611  0.72746  1.0000 0.0766629993
C   C85       1.0  0.59089  0.00991  0.22768  1.0000 -0.2156500884
C   C86       1.0  0.00991  0.59089  0.27232  1.0000 -0.2156500884
C   C87       1.0  0.40911  0.99009  0.77232  1.0000 -0.2156500884
C   C88       1.0  0.99009  0.40911  0.72768  1.0000 -0.2156500884
C   C89       1.0  0.56950  0.65790  0.07097  1.0000 0.5671866542
C   C90       1.0  0.65790  0.56950  0.42903  1.0000 0.5671866542
C   C91       1.0  0.43050  0.34210  0.92903  1.0000 0.5671866542
C   C92       1.0  0.34210  0.43050  0.57097  1.0000 0.5671866542
C   C93       1.0  0.59738  0.74502  0.11144  1.0000 -0.0311710504
C   C94       1.0  0.74502  0.59738  0.38856  1.0000 -0.0311710504
C   C95       1.0  0.40262  0.25498  0.88856  1.0000 -0.0311710504
C   C96       1.0  0.25498  0.40262  0.61144  1.0000 -0.0311710504
C   C97       1.0  0.74217  0.85883  0.13851  1.0000 -0.1107308473
C   C98       1.0  0.85883  0.74217  0.36149  1.0000 -0.1107308473
C   C99       1.0  0.25783  0.14117  0.86149  1.0000 -0.1107308473
C   C100      1.0  0.14117  0.25783  0.63851  1.0000 -0.1107308473
C   C101      1.0  0.76431  0.93509  0.17584  1.0000 -0.1485977707
C   C102      1.0  0.93509  0.76431  0.32416  1.0000 -0.1485977707
C   C103      1.0  0.23569  0.06491  0.82416  1.0000 -0.1485977707
C   C104      1.0  0.06491  0.23569  0.67584  1.0000 -0.1485977707
C   C105      1.0  0.64246  0.90034  0.18707  1.0000 0.0766629993
C   C106      1.0  0.90034  0.64246  0.31293  1.0000 0.0766629993
C   C107      1.0  0.35754  0.09966  0.81293  1.0000 0.0766629993
C   C108      1.0  0.09966  0.35754  0.68707  1.0000 0.0766629993
C   C109      1.0  0.49749  0.78771  0.15885  1.0000 -0.1570499198
C   C110      1.0  0.78771  0.49749  0.34115  1.0000 -0.1570499198
C   C111      1.0  0.50251  0.21229  0.84115  1.0000 -0.1570499198
C   C112      1.0  0.21229  0.50251  0.65885  1.0000 -0.1570499198
C   C113      1.0  0.47716  0.71244  0.12162  1.0000 -0.1107308473
C   C114      1.0  0.71244  0.47716  0.37838  1.0000 -0.1107308473
C   C115      1.0  0.52284  0.28756  0.87838  1.0000 -0.1107308473
C   C116      1.0  0.28756  0.52284  0.62162  1.0000 -0.1107308473
N   N1        1.0  0.28582  0.10698  0.50902  1.0000 -0.2111273513
N   N2        1.0  0.10698  0.28582  0.99098  1.0000 -0.2111273513
N   N3        1.0  0.71418  0.89302  0.49098  1.0000 -0.2111273513
N   N4        1.0  0.89302  0.71418  0.00902  1.0000 -0.2111273513
O   O1        1.0  0.24168  0.27152  0.46386  1.0000 -0.530102595
O   O2        1.0  0.27152  0.24168  0.03614  1.0000 -0.530102595
O   O3        1.0  0.75832  0.72848  0.53614  1.0000 -0.530102595
O   O4        1.0  0.72848  0.75832  0.96386  1.0000 -0.530102595
O   O5        1.0  0.38524  0.52576  0.45329  1.0000 -0.5442310341
O   O6        1.0  0.52576  0.38524  0.04671  1.0000 -0.5442310341
O   O7        1.0  0.61476  0.47424  0.54671  1.0000 -0.5442310341
O   O8        1.0  0.47424  0.61476  0.95329  1.0000 -0.5442310341
O   O9        1.0  0.43295  0.55325  0.04937  1.0000 -0.530102595
O   O10       1.0  0.55325  0.43295  0.45063  1.0000 -0.530102595
O   O11       1.0  0.56705  0.44675  0.95063  1.0000 -0.530102595
O   O12       1.0  0.44675  0.56705  0.54937  1.0000 -0.530102595
O   O13       1.0  0.68751  0.69989  0.06177  1.0000 -0.5233908811
O   O14       1.0  0.69989  0.68751  0.43823  1.0000 -0.5233908811
O   O15       1.0  0.31249  0.30011  0.93823  1.0000 -0.5233908811
O   O16       1.0  0.30011  0.31249  0.56177  1.0000 -0.5233908811
