# DDEC6 charges by PACMAN v1.1 (https://github.com/mtap-research/PACMAN-charge/)
data_2023[Ho][nan]3[ASR]2
_chemical_formula_sum              "Ho4 H12 C36 O24"
_cell_length_a       10.2056
_cell_length_b       10.2056
_cell_length_c       14.4514
_cell_angle_alpha    90
_cell_angle_beta     90
_cell_angle_gamma    90

_symmetry_space_group_name_H-M    "P 1"
_symmetry_Int_Tables_number       1

loop_
  _symmetry_equiv_pos_as_xyz
  'x, y, z'

loop_
  _atom_site_type_symbol
  _atom_site_label
  _atom_site_symmetry_multiplicity
  _atom_site_fract_x
  _atom_site_fract_y
  _atom_site_fract_z
  _atom_site_occupancy
  _atom_site_charge
Ho  Ho1       1.0  0.15075  0.84925  0.37500  1.0000 2.0788156515
Ho  Ho2       1.0  0.84925  0.15075  0.87500  1.0000 2.0788156515
Ho  Ho3       1.0  0.15075  0.15075  0.12500  1.0000 2.0788156515
Ho  Ho4       1.0  0.84925  0.84925  0.62500  1.0000 2.0788156515
H   H1        1.0  0.56128  0.92580  0.37909  1.0000 0.1337472846
H   H2        1.0  0.43872  0.07420  0.87909  1.0000 0.1337472846
H   H3        1.0  0.07420  0.56128  0.12909  1.0000 0.1337472846
H   H4        1.0  0.92580  0.43872  0.62909  1.0000 0.1337472846
H   H5        1.0  0.43872  0.92580  0.62091  1.0000 0.1337472846
H   H6        1.0  0.56128  0.07420  0.12091  1.0000 0.1337472846
H   H7        1.0  0.92580  0.56128  0.87091  1.0000 0.1337472846
H   H8        1.0  0.07420  0.43872  0.37091  1.0000 0.1337472846
H   H9        1.0  0.90044  0.00000  0.25000  1.0000 0.1065806983
H   H10       1.0  0.09956  0.00000  0.75000  1.0000 0.1065806983
H   H11       1.0  0.00000  0.90044  0.00000  1.0000 0.1065806983
H   H12       1.0  0.00000  0.09956  0.50000  1.0000 0.1065806983
C   C1        1.0  0.39120  0.00000  0.25000  1.0000 0.6691391593
C   C2        1.0  0.60880  0.00000  0.75000  1.0000 0.6691391593
C   C3        1.0  0.00000  0.39120  0.00000  1.0000 0.6691391593
C   C4        1.0  0.00000  0.60880  0.50000  1.0000 0.6691391593
C   C5        1.0  0.53800  0.00000  0.25000  1.0000 -0.0476892764
C   C6        1.0  0.46200  0.00000  0.75000  1.0000 -0.0476892764
C   C7        1.0  0.00000  0.53800  0.00000  1.0000 -0.0476892764
C   C8        1.0  0.00000  0.46200  0.50000  1.0000 -0.0476892764
C   C9        1.0  0.60650  0.95550  0.32730  1.0000 -0.0975210915
C   C10       1.0  0.39350  0.04450  0.82730  1.0000 -0.0975210915
C   C11       1.0  0.04450  0.60650  0.07730  1.0000 -0.0975210915
C   C12       1.0  0.95550  0.39350  0.57730  1.0000 -0.0975210915
C   C13       1.0  0.39350  0.95550  0.67270  1.0000 -0.0975210915
C   C14       1.0  0.60650  0.04450  0.17270  1.0000 -0.0975210915
C   C15       1.0  0.95550  0.60650  0.92270  1.0000 -0.0975210915
C   C16       1.0  0.04450  0.39350  0.42270  1.0000 -0.0975210915
C   C17       1.0  0.74070  0.95570  0.32680  1.0000 -0.0316068136
C   C18       1.0  0.25930  0.04430  0.82680  1.0000 -0.0316068136
C   C19       1.0  0.04430  0.74070  0.07680  1.0000 -0.0316068136
C   C20       1.0  0.95570  0.25930  0.57680  1.0000 -0.0316068136
C   C21       1.0  0.25930  0.95570  0.67320  1.0000 -0.0316068136
C   C22       1.0  0.74070  0.04430  0.17320  1.0000 -0.0316068136
C   C23       1.0  0.95570  0.74070  0.92320  1.0000 -0.0316068136
C   C24       1.0  0.04430  0.25930  0.42320  1.0000 -0.0316068136
C   C25       1.0  0.80930  0.00000  0.25000  1.0000 -0.1314815643
C   C26       1.0  0.19070  0.00000  0.75000  1.0000 -0.1314815643
C   C27       1.0  0.00000  0.80930  0.00000  1.0000 -0.1314815643
C   C28       1.0  0.00000  0.19070  0.50000  1.0000 -0.1314815643
C   C29       1.0  0.81700  0.91160  0.41010  1.0000 0.6218620812
C   C30       1.0  0.18300  0.08840  0.91010  1.0000 0.6218620812
C   C31       1.0  0.08840  0.81700  0.16010  1.0000 0.6218620812
C   C32       1.0  0.91160  0.18300  0.66010  1.0000 0.6218620812
C   C33       1.0  0.18300  0.91160  0.58990  1.0000 0.6218620812
C   C34       1.0  0.81700  0.08840  0.08990  1.0000 0.6218620812
C   C35       1.0  0.91160  0.81700  0.83990  1.0000 0.6218620812
C   C36       1.0  0.08840  0.18300  0.33990  1.0000 0.6218620812
O   O1        1.0  0.33660  0.92730  0.30800  1.0000 -0.6967760573
O   O2        1.0  0.66340  0.07270  0.80800  1.0000 -0.6967760573
O   O3        1.0  0.07270  0.33660  0.05800  1.0000 -0.6967760573
O   O4        1.0  0.92730  0.66340  0.55800  1.0000 -0.6967760573
O   O5        1.0  0.66340  0.92730  0.69200  1.0000 -0.6967760573
O   O6        1.0  0.33660  0.07270  0.19200  1.0000 -0.6967760573
O   O7        1.0  0.92730  0.33660  0.94200  1.0000 -0.6967760573
O   O8        1.0  0.07270  0.66340  0.44200  1.0000 -0.6967760573
O   O9        1.0  0.76010  0.90550  0.48600  1.0000 -0.6439610595
O   O10       1.0  0.23990  0.09450  0.98600  1.0000 -0.6439610595
O   O11       1.0  0.09450  0.76010  0.23600  1.0000 -0.6439610595
O   O12       1.0  0.90550  0.23990  0.73600  1.0000 -0.6439610595
O   O13       1.0  0.23990  0.90550  0.51400  1.0000 -0.6439610595
O   O14       1.0  0.76010  0.09450  0.01400  1.0000 -0.6439610595
O   O15       1.0  0.90550  0.76010  0.76400  1.0000 -0.6439610595
O   O16       1.0  0.09450  0.23990  0.26400  1.0000 -0.6439610595
O   O17       1.0  0.92850  0.87790  0.40130  1.0000 -0.6234266783
O   O18       1.0  0.07150  0.12210  0.90130  1.0000 -0.6234266783
O   O19       1.0  0.12210  0.92850  0.15130  1.0000 -0.6234266783
O   O20       1.0  0.87790  0.07150  0.65130  1.0000 -0.6234266783
O   O21       1.0  0.07150  0.87790  0.59870  1.0000 -0.6234266783
O   O22       1.0  0.92850  0.12210  0.09870  1.0000 -0.6234266783
O   O23       1.0  0.87790  0.92850  0.84870  1.0000 -0.6234266783
O   O24       1.0  0.12210  0.07150  0.34870  1.0000 -0.6234266783
