# DDEC6 charges by PACMAN v1.1 (https://github.com/mtap-research/PACMAN-charge/)
data_2023[Zn][nan]3[ASR]8
_chemical_formula_sum              "Zn4 H80 C116 N4 O16"
_cell_length_a       13.3854
_cell_length_b       13.3854
_cell_length_c       28.4955
_cell_angle_alpha    89.0715
_cell_angle_beta     90.9285
_cell_angle_gamma    141.65

_symmetry_space_group_name_H-M    "P 1"
_symmetry_Int_Tables_number       1

loop_
  _symmetry_equiv_pos_as_xyz
  'x, y, z'

loop_
  _atom_site_type_symbol
  _atom_site_label
  _atom_site_symmetry_multiplicity
  _atom_site_fract_x
  _atom_site_fract_y
  _atom_site_fract_z
  _atom_site_occupancy
  _atom_site_charge
Zn  Zn1       1.0  0.34031  0.41923  0.50439  1.0000 0.822902713
Zn  Zn2       1.0  0.41923  0.34031  0.99561  1.0000 0.822902713
Zn  Zn3       1.0  0.65969  0.58077  0.49561  1.0000 0.822902713
Zn  Zn4       1.0  0.58077  0.65969  0.00439  1.0000 0.822902713
H   H1        1.0  0.16778  0.45560  0.54802  1.0000 0.1181915126
H   H2        1.0  0.45560  0.16778  0.95198  1.0000 0.1181915126
H   H3        1.0  0.83222  0.54440  0.45198  1.0000 0.1181915126
H   H4        1.0  0.54440  0.83222  0.04802  1.0000 0.1181915126
H   H5        1.0  0.92307  0.33971  0.54797  1.0000 0.1298788525
H   H6        1.0  0.33971  0.92307  0.95203  1.0000 0.1298788525
H   H7        1.0  0.07693  0.66029  0.45203  1.0000 0.1298788525
H   H8        1.0  0.66029  0.07693  0.04797  1.0000 0.1298788525
H   H9        1.0  0.75357  0.97643  0.47600  1.0000 0.1298788525
H   H10       1.0  0.97643  0.75357  0.02400  1.0000 0.1298788525
H   H11       1.0  0.24643  0.02357  0.52400  1.0000 0.1298788525
H   H12       1.0  0.02357  0.24643  0.97600  1.0000 0.1298788525
H   H13       1.0  0.00651  0.10719  0.47794  1.0000 0.1131689472
H   H14       1.0  0.10719  0.00651  0.02206  1.0000 0.1131689472
H   H15       1.0  0.99349  0.89281  0.52206  1.0000 0.1131689472
H   H16       1.0  0.89281  0.99349  0.97794  1.0000 0.1131689472
H   H17       1.0  0.72523  0.27105  0.51622  1.0000 0.1131689472
H   H18       1.0  0.27105  0.72523  0.98378  1.0000 0.1131689472
H   H19       1.0  0.27477  0.72895  0.48378  1.0000 0.1131689472
H   H20       1.0  0.72895  0.27477  0.01622  1.0000 0.1131689472
H   H21       1.0  0.48064  0.15566  0.50978  1.0000 0.1181915126
H   H22       1.0  0.15566  0.48064  0.99022  1.0000 0.1181915126
H   H23       1.0  0.51936  0.84434  0.49022  1.0000 0.1181915126
H   H24       1.0  0.84434  0.51936  0.00978  1.0000 0.1181915126
H   H25       1.0  0.17360  0.10072  0.62296  1.0000 0.1181915126
H   H26       1.0  0.10072  0.17360  0.87704  1.0000 0.1181915126
H   H27       1.0  0.82640  0.89928  0.37704  1.0000 0.1181915126
H   H28       1.0  0.89928  0.82640  0.12296  1.0000 0.1181915126
H   H29       1.0  0.12281  0.96029  0.68501  1.0000 0.1181915126
H   H30       1.0  0.96029  0.12281  0.81499  1.0000 0.1181915126
H   H31       1.0  0.87719  0.03971  0.31499  1.0000 0.1181915126
H   H32       1.0  0.03971  0.87719  0.18501  1.0000 0.1181915126
H   H33       1.0  0.55156  0.17350  0.67034  1.0000 0.1131689472
H   H34       1.0  0.17350  0.55156  0.82966  1.0000 0.1131689472
H   H35       1.0  0.44844  0.82650  0.32966  1.0000 0.1131689472
H   H36       1.0  0.82650  0.44844  0.17034  1.0000 0.1131689472
H   H37       1.0  0.59645  0.30831  0.60602  1.0000 0.1298788525
H   H38       1.0  0.30831  0.59645  0.89398  1.0000 0.1298788525
H   H39       1.0  0.40355  0.69169  0.39398  1.0000 0.1298788525
H   H40       1.0  0.69169  0.40355  0.10602  1.0000 0.1298788525
H   H41       1.0  0.15579  0.94545  0.76339  1.0000 0.1181915126
H   H42       1.0  0.94545  0.15579  0.73661  1.0000 0.1181915126
H   H43       1.0  0.84421  0.05455  0.23661  1.0000 0.1181915126
H   H44       1.0  0.05455  0.84421  0.26339  1.0000 0.1181915126
H   H45       1.0  0.27533  0.80307  0.84289  1.0000 0.1181915126
H   H46       1.0  0.80307  0.27533  0.65711  1.0000 0.1181915126
H   H47       1.0  0.72467  0.19693  0.15711  1.0000 0.1181915126
H   H48       1.0  0.19693  0.72467  0.34289  1.0000 0.1181915126
H   H49       1.0  0.47328  0.99502  0.71608  1.0000 0.1131689472
H   H50       1.0  0.99502  0.47328  0.78392  1.0000 0.1181915126
H   H51       1.0  0.52672  0.00498  0.28392  1.0000 0.1181915126
H   H52       1.0  0.00498  0.52672  0.21608  1.0000 0.1181915126
H   H53       1.0  0.57236  0.95898  0.81347  1.0000 0.1451832839
H   H54       1.0  0.95898  0.57236  0.68653  1.0000 0.1451832839
H   H55       1.0  0.42764  0.04102  0.18653  1.0000 0.1451832839
H   H56       1.0  0.04102  0.42764  0.31347  1.0000 0.1451832839
H   H57       1.0  0.43158  0.78196  0.79467  1.0000 0.1370179989
H   H58       1.0  0.78196  0.43158  0.70533  1.0000 0.1370179989
H   H59       1.0  0.56842  0.21804  0.20533  1.0000 0.1370179989
H   H60       1.0  0.21804  0.56842  0.29467  1.0000 0.1370179989
H   H61       1.0  0.55830  0.92642  0.75969  1.0000 0.1370179989
H   H62       1.0  0.92642  0.55830  0.74031  1.0000 0.1370179989
H   H63       1.0  0.44170  0.07358  0.24031  1.0000 0.1370179989
H   H64       1.0  0.07358  0.44170  0.25969  1.0000 0.1370179989
H   H65       1.0  0.97762  0.58886  0.85630  1.0000 0.1181915126
H   H66       1.0  0.58886  0.97762  0.64370  1.0000 0.1181915126
H   H67       1.0  0.02238  0.41114  0.14370  1.0000 0.1181915126
H   H68       1.0  0.41114  0.02238  0.35630  1.0000 0.1181915126
H   H69       1.0  0.13682  0.99122  0.84539  1.0000 0.1181915126
H   H70       1.0  0.99122  0.13682  0.65461  1.0000 0.1181915126
H   H71       1.0  0.86318  0.00878  0.15461  1.0000 0.1181915126
H   H72       1.0  0.00878  0.86318  0.34539  1.0000 0.1181915126
H   H73       1.0  0.94591  0.89239  0.89820  1.0000 0.1181915126
H   H74       1.0  0.89239  0.94591  0.60180  1.0000 0.1181915126
H   H75       1.0  0.05409  0.10761  0.10180  1.0000 0.1181915126
H   H76       1.0  0.10761  0.05409  0.39820  1.0000 0.1181915126
H   H77       1.0  0.78786  0.48756  0.90878  1.0000 0.1131689472
H   H78       1.0  0.48756  0.78786  0.59122  1.0000 0.1131689472
H   H79       1.0  0.21214  0.51244  0.09122  1.0000 0.1131689472
H   H80       1.0  0.51244  0.21214  0.40878  1.0000 0.1131689472
C   C1        1.0  0.08450  0.36230  0.53070  1.0000 0.0347023979
C   C2        1.0  0.36230  0.08450  0.96930  1.0000 0.0355548002
C   C3        1.0  0.91550  0.63770  0.46930  1.0000 0.0347023979
C   C4        1.0  0.63770  0.91550  0.03070  1.0000 0.0347023979
C   C5        1.0  0.93880  0.29400  0.53110  1.0000 -0.1979428902
C   C6        1.0  0.29400  0.93880  0.96890  1.0000 -0.1979428902
C   C7        1.0  0.06120  0.70600  0.46890  1.0000 -0.1979428902
C   C8        1.0  0.70600  0.06120  0.03110  1.0000 -0.1979428902
C   C9        1.0  0.81050  0.14970  0.50490  1.0000 0.1181915126
C   C10       1.0  0.14970  0.81050  0.99510  1.0000 0.1181915126
C   C11       1.0  0.18950  0.85030  0.49510  1.0000 0.1181915126
C   C12       1.0  0.85030  0.18950  0.00490  1.0000 0.1181915126
C   C13       1.0  0.83820  0.07960  0.48840  1.0000 -0.1886438467
C   C14       1.0  0.07960  0.83820  0.01160  1.0000 -0.1886438467
C   C15       1.0  0.16180  0.92040  0.51160  1.0000 -0.1886438467
C   C16       1.0  0.92040  0.16180  0.98840  1.0000 -0.1886438467
C   C17       1.0  0.99250  0.15990  0.48970  1.0000 0.1131689472
C   C18       1.0  0.15990  0.99250  0.01030  1.0000 0.1131689472
C   C19       1.0  0.00750  0.84010  0.51030  1.0000 0.1131689472
C   C20       1.0  0.84010  0.00750  0.98970  1.0000 0.1131689472
C   C21       1.0  0.64990  0.07170  0.50270  1.0000 0.0629562922
C   C22       1.0  0.07170  0.64990  0.99730  1.0000 0.0629562922
C   C23       1.0  0.35010  0.92830  0.49730  1.0000 0.0629562922
C   C24       1.0  0.92830  0.35010  0.00270  1.0000 0.0629562922
C   C25       1.0  0.63440  0.16200  0.50940  1.0000 -0.1329395342
C   C26       1.0  0.16200  0.63440  0.99060  1.0000 -0.1329395342
C   C27       1.0  0.36560  0.83800  0.49060  1.0000 -0.1329395342
C   C28       1.0  0.83800  0.36560  0.00940  1.0000 -0.1329395342
C   C29       1.0  0.48850  0.09310  0.50610  1.0000 -0.1329395342
C   C30       1.0  0.09310  0.48850  0.99390  1.0000 -0.1329395342
C   C31       1.0  0.51150  0.90690  0.49390  1.0000 -0.1329395342
C   C32       1.0  0.90690  0.51150  0.00610  1.0000 -0.1329395342
C   C33       1.0  0.42930  0.32450  0.56890  1.0000 0.5701299496
C   C34       1.0  0.32450  0.42930  0.93110  1.0000 0.5701299496
C   C35       1.0  0.57070  0.67550  0.43110  1.0000 0.5701299496
C   C36       1.0  0.67550  0.57070  0.06890  1.0000 0.5701299496
C   C37       1.0  0.39730  0.23070  0.60940  1.0000 -0.0384583631
C   C38       1.0  0.23070  0.39730  0.89060  1.0000 -0.0384583631
C   C39       1.0  0.60270  0.76930  0.39060  1.0000 -0.0384583631
C   C40       1.0  0.76930  0.60270  0.10940  1.0000 -0.0384583631
C   C41       1.0  0.25340  0.11940  0.63330  1.0000 -0.1177250184
C   C42       1.0  0.11940  0.25340  0.86670  1.0000 -0.1177250184
C   C43       1.0  0.74660  0.88060  0.36670  1.0000 -0.1177250184
C   C44       1.0  0.88060  0.74660  0.13330  1.0000 -0.1177250184
C   C45       1.0  0.22320  0.03660  0.67080  1.0000 -0.1534232385
C   C46       1.0  0.03660  0.22320  0.82920  1.0000 -0.1534232385
C   C47       1.0  0.77680  0.96340  0.32920  1.0000 -0.1534232385
C   C48       1.0  0.96340  0.77680  0.17080  1.0000 -0.1534232385
C   C49       1.0  0.34210  0.06410  0.68880  1.0000 0.0806433521
C   C50       1.0  0.06410  0.34210  0.81120  1.0000 0.0806433521
C   C51       1.0  0.65790  0.93590  0.31120  1.0000 0.0806433521
C   C52       1.0  0.93590  0.65790  0.18880  1.0000 0.0806433521
C   C53       1.0  0.47460  0.16100  0.66210  1.0000 -0.1570994369
C   C54       1.0  0.16100  0.47460  0.83790  1.0000 -0.1570994369
C   C55       1.0  0.52540  0.83900  0.33790  1.0000 -0.1570994369
C   C56       1.0  0.83900  0.52540  0.16210  1.0000 -0.1570994369
C   C57       1.0  0.50250  0.24310  0.62310  1.0000 -0.1073640175
C   C58       1.0  0.24310  0.50250  0.87690  1.0000 -0.1073640175
C   C59       1.0  0.49750  0.75690  0.37690  1.0000 -0.1073640175
C   C60       1.0  0.75690  0.49750  0.12310  1.0000 -0.1073640175
C   C61       1.0  0.31900  0.98480  0.73220  1.0000 0.0806433521
C   C62       1.0  0.98480  0.31900  0.76780  1.0000 0.0806433521
C   C63       1.0  0.68100  0.01520  0.26780  1.0000 0.0806433521
C   C64       1.0  0.01520  0.68100  0.23220  1.0000 0.0806433521
C   C65       1.0  0.21310  0.93110  0.76740  1.0000 -0.1979428902
C   C66       1.0  0.93110  0.21310  0.73260  1.0000 -0.1979428902
C   C67       1.0  0.78690  0.06890  0.23260  1.0000 -0.1979428902
C   C68       1.0  0.06890  0.78690  0.26740  1.0000 -0.1979428902
C   C69       1.0  0.19130  0.85850  0.80730  1.0000 0.0806433521
C   C70       1.0  0.85850  0.19130  0.69270  1.0000 0.0806433521
C   C71       1.0  0.80870  0.14150  0.19270  1.0000 0.0806433521
C   C72       1.0  0.14150  0.80870  0.30730  1.0000 0.0806433521
C   C73       1.0  0.28550  0.84730  0.81500  1.0000 -0.2342427485
C   C74       1.0  0.84730  0.28550  0.68500  1.0000 -0.2342427485
C   C75       1.0  0.71450  0.15270  0.18500  1.0000 -0.2342427485
C   C76       1.0  0.15270  0.71450  0.31500  1.0000 -0.2342427485
C   C77       1.0  0.39490  0.90190  0.78120  1.0000 0.1814699955
C   C78       1.0  0.90190  0.39490  0.71880  1.0000 0.1814699955
C   C79       1.0  0.60510  0.09810  0.21880  1.0000 0.1814699955
C   C80       1.0  0.09810  0.60510  0.28120  1.0000 0.1814699955
C   C81       1.0  0.40610  0.96510  0.73960  1.0000 -0.2197643853
C   C82       1.0  0.96510  0.40610  0.76040  1.0000 -0.2197643853
C   C83       1.0  0.59390  0.03490  0.26040  1.0000 -0.2197643853
C   C84       1.0  0.03490  0.59390  0.23960  1.0000 -0.2197643853
C   C85       1.0  0.49880  0.89140  0.78790  1.0000 -0.459670078
C   C86       1.0  0.89140  0.49880  0.71210  1.0000 -0.459670078
C   C87       1.0  0.50120  0.10860  0.21210  1.0000 -0.459670078
C   C88       1.0  0.10860  0.50120  0.28790  1.0000 -0.459670078
C   C89       1.0  0.07530  0.79950  0.84440  1.0000 0.0733426772
C   C90       1.0  0.79950  0.07530  0.65560  1.0000 0.0733426772
C   C91       1.0  0.92470  0.20050  0.15560  1.0000 0.0733426772
C   C92       1.0  0.20050  0.92470  0.34440  1.0000 0.0733426772
C   C93       1.0  0.97080  0.65040  0.86440  1.0000 -0.1570994369
C   C94       1.0  0.65040  0.97080  0.63560  1.0000 -0.1570994369
C   C95       1.0  0.02920  0.34960  0.13560  1.0000 -0.1570994369
C   C96       1.0  0.34960  0.02920  0.36440  1.0000 -0.1570994369
C   C97       1.0  0.06520  0.88840  0.85780  1.0000 -0.1570994369
C   C98       1.0  0.88840  0.06520  0.64220  1.0000 -0.1534232385
C   C99       1.0  0.93480  0.11160  0.14220  1.0000 -0.1534232385
C   C100      1.0  0.11160  0.93480  0.35780  1.0000 -0.1570994369
C   C101      1.0  0.95010  0.82890  0.88980  1.0000 -0.1027715001
C   C102      1.0  0.82890  0.95010  0.61020  1.0000 -0.1027715001
C   C103      1.0  0.04990  0.17110  0.11020  1.0000 -0.1027715001
C   C104      1.0  0.17110  0.04990  0.38980  1.0000 -0.1027715001
C   C105      1.0  0.85690  0.58930  0.89590  1.0000 -0.1027715001
C   C106      1.0  0.58930  0.85690  0.60410  1.0000 -0.1027715001
C   C107      1.0  0.14310  0.41070  0.10410  1.0000 -0.1027715001
C   C108      1.0  0.41070  0.14310  0.39590  1.0000 -0.1027715001
C   C109      1.0  0.84300  0.67860  0.90900  1.0000 -0.0384583631
C   C110      1.0  0.67860  0.84300  0.59100  1.0000 -0.0384583631
C   C111      1.0  0.15700  0.32140  0.09100  1.0000 -0.0384583631
C   C112      1.0  0.32140  0.15700  0.40900  1.0000 -0.0384583631
C   C113      1.0  0.71610  0.61090  0.94250  1.0000 0.5701299496
C   C114      1.0  0.61090  0.71610  0.55750  1.0000 0.5701299496
C   C115      1.0  0.28390  0.38910  0.05750  1.0000 0.5701299496
C   C116      1.0  0.38910  0.28390  0.44250  1.0000 0.5701299496
N   N1        1.0  0.11674  0.30226  0.50621  1.0000 -0.2094262056
N   N2        1.0  0.30226  0.11674  0.99379  1.0000 -0.2094262056
N   N3        1.0  0.88326  0.69774  0.49379  1.0000 -0.2094262056
N   N4        1.0  0.69774  0.88326  0.00621  1.0000 -0.2094262056
O   O1        1.0  0.32255  0.30165  0.55675  1.0000 -0.5305442425
O   O2        1.0  0.30165  0.32255  0.94325  1.0000 -0.5305442425
O   O3        1.0  0.67745  0.69835  0.44325  1.0000 -0.5305442425
O   O4        1.0  0.69835  0.67745  0.05675  1.0000 -0.5305442425
O   O5        1.0  0.56293  0.42147  0.54954  1.0000 -0.5305442425
O   O6        1.0  0.42147  0.56293  0.95046  1.0000 -0.5305442425
O   O7        1.0  0.43707  0.57853  0.45046  1.0000 -0.5305442425
O   O8        1.0  0.57853  0.43707  0.04954  1.0000 -0.5305442425
O   O9        1.0  0.60746  0.46454  0.95244  1.0000 -0.5305442425
O   O10       1.0  0.46454  0.60746  0.54756  1.0000 -0.5305442425
O   O11       1.0  0.39254  0.53546  0.04756  1.0000 -0.5305442425
O   O12       1.0  0.53546  0.39254  0.45244  1.0000 -0.5305442425
O   O13       1.0  0.72566  0.70434  0.95793  1.0000 -0.5357516519
O   O14       1.0  0.70434  0.72566  0.54207  1.0000 -0.5357516519
O   O15       1.0  0.27434  0.29566  0.04207  1.0000 -0.5357516519
O   O16       1.0  0.29566  0.27434  0.45793  1.0000 -0.5357516519
