# DDEC6 charges by PACMAN v1.1 (https://github.com/mtap-research/PACMAN-charge/)
data_2023[Dy][dia]3[ASR]1
_chemical_formula_sum              "Dy2 H22 C24 O18"
_cell_length_a       9.0589
_cell_length_b       10.483
_cell_length_c       12.506
_cell_angle_alpha    93.812
_cell_angle_beta     110.897
_cell_angle_gamma    105.675

_symmetry_space_group_name_H-M    "P 1"
_symmetry_Int_Tables_number       1

loop_
  _symmetry_equiv_pos_as_xyz
  'x, y, z'

loop_
  _atom_site_type_symbol
  _atom_site_label
  _atom_site_symmetry_multiplicity
  _atom_site_fract_x
  _atom_site_fract_y
  _atom_site_fract_z
  _atom_site_occupancy
  _atom_site_charge
Dy  Dy1       1.0  0.20858  0.75486  0.33872  1.0000 1.9028636918
Dy  Dy2       1.0  0.79142  0.24514  0.66128  1.0000 1.9028636918
H   H1        1.0  0.53980  0.96100  0.37400  1.0000 0.3654079542
H   H2        1.0  0.46020  0.03900  0.62600  1.0000 0.3654079542
H   H3        1.0  0.03600  0.93400  0.18900  1.0000 0.3759843812
H   H4        1.0  0.96400  0.06600  0.81100  1.0000 0.3759843812
H   H5        1.0  0.25951  0.57823  0.98039  1.0000 0.2026966915
H   H6        1.0  0.74049  0.42177  0.01961  1.0000 0.2026966915
H   H7        1.0  0.71914  0.69733  0.61555  1.0000 0.1636186347
H   H8        1.0  0.28086  0.30267  0.38445  1.0000 0.1636186347
H   H9        1.0  0.48517  0.10029  0.26452  1.0000 0.1258632944
H   H10       1.0  0.51483  0.89971  0.73548  1.0000 0.1258632944
H   H11       1.0  0.37583  0.10494  0.33719  1.0000 0.1258632944
H   H12       1.0  0.62417  0.89506  0.66281  1.0000 0.1258632944
H   H13       1.0  0.20153  0.06797  0.14462  1.0000 0.0904617116
H   H14       1.0  0.79847  0.93203  0.85538  1.0000 0.0904617116
H   H15       1.0  0.26231  0.94815  0.11446  1.0000 0.1182611988
H   H16       1.0  0.73769  0.05185  0.88554  1.0000 0.1182611988
H   H17       1.0  0.94013  0.52183  0.38423  1.0000 0.102477926
H   H18       1.0  0.05987  0.47817  0.61577  1.0000 0.102477926
H   H19       1.0  0.91463  0.59617  0.48656  1.0000 0.1101607487
H   H20       1.0  0.08537  0.40383  0.51344  1.0000 0.1101607487
H   H21       1.0  0.72469  0.85778  0.37974  1.0000 0.1771130071
H   H22       1.0  0.27531  0.14222  0.62026  1.0000 0.1771130071
C   C1        1.0  0.15780  0.54820  0.98770  1.0000 -0.3943998113
C   C2        1.0  0.84220  0.45180  0.01230  1.0000 -0.3943998113
C   C3        1.0  0.14040  0.60270  0.08550  1.0000 0.3488707349
C   C4        1.0  0.85960  0.39730  0.91450  1.0000 0.3488707349
C   C5        1.0  0.02790  0.45120  0.90230  1.0000 0.327697824
C   C6        1.0  0.97210  0.54880  0.09770  1.0000 0.327697824
C   C7        1.0  0.85350  0.02390  0.50400  1.0000 0.303929548
C   C8        1.0  0.14650  0.97610  0.49600  1.0000 0.303929548
C   C9        1.0  0.63280  0.62010  0.57100  1.0000 -0.4022200227
C   C10       1.0  0.36720  0.37990  0.42900  1.0000 -0.4022200227
C   C11       1.0  0.49080  0.63360  0.48670  1.0000 0.327697824
C   C12       1.0  0.50920  0.36640  0.51330  1.0000 0.327697824
C   C13       1.0  0.39400  0.04730  0.28240  1.0000 -0.0155598193
C   C14       1.0  0.60600  0.95270  0.71760  1.0000 -0.0155598193
C   C15       1.0  0.64990  0.49410  0.59100  1.0000 0.3449887142
C   C16       1.0  0.35010  0.50590  0.40900  1.0000 0.3449887142
C   C17       1.0  0.97220  0.88750  0.41780  1.0000 0.327697824
C   C18       1.0  0.02780  0.11250  0.58220  1.0000 0.327697824
C   C19       1.0  0.24040  0.99470  0.17400  1.0000 -0.010074476
C   C20       1.0  0.75960  0.00530  0.82600  1.0000 -0.010074476
C   C21       1.0  0.98880  0.55610  0.46730  1.0000 0.0102538739
C   C22       1.0  0.01120  0.44390  0.53270  1.0000 0.0102538739
C   C23       1.0  0.83130  0.91400  0.42620  1.0000 -0.4022200227
C   C24       1.0  0.16870  0.08600  0.57380  1.0000 -0.4022200227
O   O1        1.0  0.25400  0.69230  0.16780  1.0000 -0.519343172
O   O2        1.0  0.74600  0.30770  0.83220  1.0000 -0.519343172
O   O3        1.0  0.46390  0.74320  0.46480  1.0000 -0.519343172
O   O4        1.0  0.53610  0.25680  0.53520  1.0000 -0.519343172
O   O5        1.0  0.73570  0.05800  0.51640  1.0000 -0.5118592575
O   O6        1.0  0.26430  0.94200  0.48360  1.0000 -0.5118592575
O   O7        1.0  0.43520  0.93650  0.33280  1.0000 -0.5118592575
O   O8        1.0  0.56480  0.06350  0.66720  1.0000 -0.5118592575
O   O9        1.0  0.03380  0.39610  0.81130  1.0000 -0.5118592575
O   O10       1.0  0.96620  0.60390  0.18870  1.0000 -0.5118592575
O   O11       1.0  0.77130  0.47280  0.66460  1.0000 -0.4554430142
O   O12       1.0  0.22870  0.52720  0.33540  1.0000 -0.4554430142
O   O13       1.0  0.96350  0.79170  0.34560  1.0000 -0.500781764
O   O14       1.0  0.03650  0.20830  0.65440  1.0000 -0.500781764
O   O15       1.0  0.15060  0.65670  0.49890  1.0000 -0.6133040979
O   O16       1.0  0.84940  0.34330  0.50110  1.0000 -0.6133040979
O   O17       1.0  0.11890  0.90400  0.20380  1.0000 -0.4836417332
O   O18       1.0  0.88110  0.09600  0.79620  1.0000 -0.4836417332
