# DDEC6 charges by PACMAN v1.1 (https://github.com/mtap-research/PACMAN-charge/)
data_2023[Dy][hcb]2[ASR]1
_chemical_formula_sum              "Dy4 H20 C44 Br12 O32"
_cell_length_a       10.3402
_cell_length_b       20.4007
_cell_length_c       12.643
_cell_angle_alpha    90
_cell_angle_beta     113.524
_cell_angle_gamma    90

_symmetry_space_group_name_H-M    "P 1"
_symmetry_Int_Tables_number       1

loop_
  _symmetry_equiv_pos_as_xyz
  'x, y, z'

loop_
  _atom_site_type_symbol
  _atom_site_label
  _atom_site_symmetry_multiplicity
  _atom_site_fract_x
  _atom_site_fract_y
  _atom_site_fract_z
  _atom_site_occupancy
  _atom_site_charge
Dy  Dy1       1.0  0.53794  0.38946  0.22073  1.0000 1.9621888657
Dy  Dy2       1.0  0.46206  0.88946  0.27927  1.0000 1.9621888657
Dy  Dy3       1.0  0.46206  0.61054  0.77927  1.0000 1.9621888657
Dy  Dy4       1.0  0.53794  0.11054  0.72073  1.0000 1.9621888657
H   H1        1.0  0.82800  0.43800  0.38100  1.0000 0.3836213012
H   H2        1.0  0.17200  0.93800  0.11900  1.0000 0.3836213012
H   H3        1.0  0.17200  0.56200  0.61900  1.0000 0.3836213012
H   H4        1.0  0.82800  0.06200  0.88100  1.0000 0.3836213012
H   H5        1.0  0.72594  0.55105  0.12775  1.0000 0.1121516485
H   H6        1.0  0.27406  0.05105  0.37225  1.0000 0.1121516485
H   H7        1.0  0.27406  0.44895  0.87225  1.0000 0.1121516485
H   H8        1.0  0.72594  0.94895  0.62775  1.0000 0.1121516485
H   H9        1.0  0.81124  0.48308  0.15081  1.0000 0.1015900072
H   H10       1.0  0.18876  0.98308  0.34919  1.0000 0.1015900072
H   H11       1.0  0.18876  0.51692  0.84919  1.0000 0.1015900072
H   H12       1.0  0.81124  0.01692  0.65081  1.0000 0.1015900072
H   H13       1.0  0.86788  0.52699  0.32690  1.0000 0.0749960874
H   H14       1.0  0.13212  0.02699  0.17310  1.0000 0.0749960874
H   H15       1.0  0.13212  0.47301  0.67310  1.0000 0.0749960874
H   H16       1.0  0.86788  0.97301  0.82690  1.0000 0.0749960874
H   H17       1.0  0.70769  0.54711  0.29856  1.0000 0.1015900072
H   H18       1.0  0.29231  0.04711  0.20144  1.0000 0.1015900072
H   H19       1.0  0.29231  0.45289  0.70144  1.0000 0.1015900072
H   H20       1.0  0.70769  0.95289  0.79856  1.0000 0.1015900072
C   C1        1.0  0.49280  0.18360  0.48280  1.0000 0.2883061753
C   C2        1.0  0.50720  0.68360  0.01720  1.0000 0.2883061753
C   C3        1.0  0.50720  0.81640  0.51720  1.0000 0.2883061753
C   C4        1.0  0.49280  0.31640  0.98280  1.0000 0.2883061753
C   C5        1.0  0.71970  0.24470  0.52070  1.0000 -0.1579181518
C   C6        1.0  0.28030  0.74470  0.97930  1.0000 -0.1579181518
C   C7        1.0  0.28030  0.75530  0.47930  1.0000 -0.1579181518
C   C8        1.0  0.71970  0.25530  0.02070  1.0000 -0.1579181518
C   C9        1.0  0.43010  0.21260  0.37190  1.0000 -0.1579181518
C   C10       1.0  0.56990  0.71260  0.12810  1.0000 -0.1579181518
C   C11       1.0  0.56990  0.78740  0.62810  1.0000 -0.1579181518
C   C12       1.0  0.43010  0.28740  0.87190  1.0000 -0.1579181518
C   C13       1.0  0.49710  0.43940  0.55850  1.0000 -0.1789471399
C   C14       1.0  0.50290  0.93940  0.94150  1.0000 -0.1789471399
C   C15       1.0  0.50290  0.56060  0.44150  1.0000 -0.1789471399
C   C16       1.0  0.49710  0.06060  0.05850  1.0000 -0.1789471399
C   C17       1.0  0.49050  0.43790  0.44700  1.0000 0.2883061753
C   C18       1.0  0.50950  0.93790  0.05300  1.0000 0.2883061753
C   C19       1.0  0.50950  0.56210  0.55300  1.0000 0.2883061753
C   C20       1.0  0.49050  0.06210  0.94700  1.0000 0.2808699567
C   C21       1.0  0.64800  0.19940  0.55960  1.0000 0.2883061753
C   C22       1.0  0.35200  0.69940  0.94040  1.0000 0.2883061753
C   C23       1.0  0.35200  0.80060  0.44040  1.0000 0.2883061753
C   C24       1.0  0.64800  0.30060  0.05960  1.0000 0.2883061753
C   C25       1.0  0.50080  0.25610  0.33410  1.0000 0.260658126
C   C26       1.0  0.49920  0.75610  0.16590  1.0000 0.260658126
C   C27       1.0  0.49920  0.74390  0.66590  1.0000 0.260658126
C   C28       1.0  0.50080  0.24390  0.83410  1.0000 0.260658126
C   C29       1.0  0.65390  0.27700  0.41410  1.0000 0.3000032861
C   C30       1.0  0.34610  0.77700  0.08590  1.0000 0.3000032861
C   C31       1.0  0.34610  0.72300  0.58590  1.0000 0.3000032861
C   C32       1.0  0.65390  0.22300  0.91410  1.0000 0.3000032861
C   C33       1.0  0.51000  0.49710  0.61820  1.0000 0.2808699567
C   C34       1.0  0.49000  0.99710  0.88180  1.0000 0.2808699567
C   C35       1.0  0.49000  0.50290  0.38180  1.0000 0.2808699567
C   C36       1.0  0.51000  0.00290  0.11820  1.0000 0.2808699567
C   C37       1.0  0.73510  0.50700  0.16300  1.0000 -0.0100067233
C   C38       1.0  0.26490  0.00700  0.33700  1.0000 -0.0100067233
C   C39       1.0  0.26490  0.49300  0.83700  1.0000 -0.0100067233
C   C40       1.0  0.73510  0.99300  0.66300  1.0000 -0.0100067233
C   C41       1.0  0.76850  0.51310  0.28620  1.0000 -0.0100067233
C   C42       1.0  0.23150  0.01310  0.21380  1.0000 -0.0100067233
C   C43       1.0  0.23150  0.48690  0.71380  1.0000 -0.0100067233
C   C44       1.0  0.76850  0.98690  0.78620  1.0000 -0.0100067233
Br  Br1       1.0  0.49924  0.35803  0.63170  1.0000 -0.0027246627
Br  Br2       1.0  0.50076  0.85803  0.86830  1.0000 -0.0027246627
Br  Br3       1.0  0.50076  0.64197  0.36830  1.0000 -0.0027246627
Br  Br4       1.0  0.49924  0.14197  0.13170  1.0000 -0.0027246627
Br  Br5       1.0  0.24178  0.19077  0.28065  1.0000 0.0032675533
Br  Br6       1.0  0.75822  0.69077  0.21935  1.0000 0.0032675533
Br  Br7       1.0  0.75822  0.80923  0.71935  1.0000 0.0032675533
Br  Br8       1.0  0.24178  0.30923  0.78065  1.0000 0.0032675533
Br  Br9       1.0  0.90410  0.26671  0.61798  1.0000 0.0193853847
Br  Br10      1.0  0.09590  0.76671  0.88202  1.0000 0.0193853847
Br  Br11      1.0  0.09590  0.73329  0.38202  1.0000 0.0193853847
Br  Br12      1.0  0.90410  0.23329  0.11798  1.0000 0.0193853847
O   O1        1.0  0.48410  0.38800  0.38840  1.0000 -0.4880963232
O   O2        1.0  0.51590  0.88800  0.11160  1.0000 -0.4880963232
O   O3        1.0  0.51590  0.61200  0.61160  1.0000 -0.4880963232
O   O4        1.0  0.48410  0.11200  0.88840  1.0000 -0.4880963232
O   O5        1.0  0.69500  0.16860  0.65360  1.0000 -0.4687339034
O   O6        1.0  0.30500  0.66860  0.84640  1.0000 -0.4687339034
O   O7        1.0  0.30500  0.83140  0.34640  1.0000 -0.4687339034
O   O8        1.0  0.69500  0.33140  0.15360  1.0000 -0.4687339034
O   O9        1.0  0.45480  0.28320  0.23610  1.0000 -0.5064521473
O   O10       1.0  0.54520  0.78320  0.26390  1.0000 -0.5064521473
O   O11       1.0  0.54520  0.71680  0.76390  1.0000 -0.5064521473
O   O12       1.0  0.45480  0.21680  0.73610  1.0000 -0.5064521473
O   O13       1.0  0.43340  0.14250  0.52620  1.0000 -0.5064521473
O   O14       1.0  0.56660  0.64250  0.97380  1.0000 -0.5064521473
O   O15       1.0  0.56660  0.85750  0.47380  1.0000 -0.5064521473
O   O16       1.0  0.43340  0.35750  0.02620  1.0000 -0.5064521473
O   O17       1.0  0.52370  0.50390  0.72080  1.0000 -0.4616096843
O   O18       1.0  0.47630  0.00390  0.77920  1.0000 -0.4616096843
O   O19       1.0  0.47630  0.49610  0.27920  1.0000 -0.4616096843
O   O20       1.0  0.52370  0.99610  0.22080  1.0000 -0.4616096843
O   O21       1.0  0.70360  0.32240  0.37750  1.0000 -0.4616096843
O   O22       1.0  0.29640  0.82240  0.12250  1.0000 -0.4616096843
O   O23       1.0  0.29640  0.67760  0.62250  1.0000 -0.4616096843
O   O24       1.0  0.70360  0.17760  0.87750  1.0000 -0.4616096843
O   O25       1.0  0.74690  0.45080  0.33420  1.0000 -0.5000686388
O   O26       1.0  0.25310  0.95080  0.16580  1.0000 -0.5000686388
O   O27       1.0  0.25310  0.54920  0.66580  1.0000 -0.5000686388
O   O28       1.0  0.74690  0.04920  0.83420  1.0000 -0.5000686388
O   O29       1.0  0.60110  0.47100  0.10990  1.0000 -0.5528376143
O   O30       1.0  0.39890  0.97100  0.39010  1.0000 -0.5528376143
O   O31       1.0  0.39890  0.52900  0.89010  1.0000 -0.5528376143
O   O32       1.0  0.60110  0.02900  0.60990  1.0000 -0.5528376143
