# DDEC6 charges by PACMAN v1.1 (https://github.com/mtap-research/PACMAN-charge/)
data_2023[Zn][nan]3[ASR]22
_chemical_formula_sum              "Zn8 H36 C44 N36 O16"
_cell_length_a       15.5979
_cell_length_b       15.5979
_cell_length_c       15.5979
_cell_angle_alpha    133.088
_cell_angle_beta     133.088
_cell_angle_gamma    68.5158

_symmetry_space_group_name_H-M    "P 1"
_symmetry_Int_Tables_number       1

loop_
  _symmetry_equiv_pos_as_xyz
  'x, y, z'

loop_
  _atom_site_type_symbol
  _atom_site_label
  _atom_site_symmetry_multiplicity
  _atom_site_fract_x
  _atom_site_fract_y
  _atom_site_fract_z
  _atom_site_occupancy
  _atom_site_charge
Zn  Zn1       1.0  0.37710  0.48083  0.48587  1.0000 0.6853182871
Zn  Zn2       1.0  0.48083  0.99496  0.10373  1.0000 0.6847313602
Zn  Zn3       1.0  0.89123  0.37710  0.89627  1.0000 0.6853182871
Zn  Zn4       1.0  0.99496  0.89123  0.51413  1.0000 0.6853182871
Zn  Zn5       1.0  0.62290  0.51917  0.51413  1.0000 0.6853182871
Zn  Zn6       1.0  0.51917  0.00504  0.89627  1.0000 0.6853182871
Zn  Zn7       1.0  0.10877  0.62290  0.10373  1.0000 0.6853182871
Zn  Zn8       1.0  0.00504  0.10877  0.48587  1.0000 0.6853182871
H   H1        1.0  0.31748  0.21791  0.32659  1.0000 0.3217305426
H   H2        1.0  0.21791  0.89132  0.90043  1.0000 0.3217305426
H   H3        1.0  0.99089  0.31748  0.09957  1.0000 0.3217305426
H   H4        1.0  0.89132  0.99089  0.67341  1.0000 0.3217305426
H   H5        1.0  0.68252  0.78209  0.67341  1.0000 0.3217305426
H   H6        1.0  0.78209  0.10868  0.09957  1.0000 0.3217305426
H   H7        1.0  0.00911  0.68252  0.90043  1.0000 0.3217305426
H   H8        1.0  0.10868  0.00911  0.32659  1.0000 0.3217305426
H   H9        1.0  0.33612  0.09947  0.22665  1.0000 0.3217305426
H   H10       1.0  0.09947  0.87282  0.76335  1.0000 0.3217305426
H   H11       1.0  0.10947  0.33612  0.23665  1.0000 0.3217305426
H   H12       1.0  0.87282  0.10947  0.77335  1.0000 0.3217305426
H   H13       1.0  0.66388  0.90053  0.77335  1.0000 0.3217305426
H   H14       1.0  0.90053  0.12718  0.23665  1.0000 0.3217305426
H   H15       1.0  0.89053  0.66388  0.76335  1.0000 0.3217305426
H   H16       1.0  0.12718  0.89053  0.22665  1.0000 0.3217305426
H   H17       1.0  0.18237  0.30736  0.48973  1.0000 0.1265747506
H   H18       1.0  0.30736  0.81763  0.12499  1.0000 0.1265747506
H   H19       1.0  0.69264  0.18237  0.87501  1.0000 0.1265747506
H   H20       1.0  0.81763  0.69264  0.51027  1.0000 0.1265747506
H   H21       1.0  0.21681  0.65990  0.72769  1.0000 0.1067903439
H   H22       1.0  0.65990  0.93221  0.44309  1.0000 0.1067903439
H   H23       1.0  0.48912  0.21681  0.55691  1.0000 0.1067903439
H   H24       1.0  0.93221  0.48912  0.27231  1.0000 0.1067903439
H   H25       1.0  0.78319  0.34010  0.27231  1.0000 0.1067903439
H   H26       1.0  0.34010  0.06779  0.55691  1.0000 0.1067903439
H   H27       1.0  0.51088  0.78319  0.44309  1.0000 0.1067903439
H   H28       1.0  0.06779  0.51088  0.72769  1.0000 0.1067903439
H   H29       1.0  0.58910  0.24657  0.28379  1.0000 0.1186093973
H   H30       1.0  0.24657  0.96278  0.65747  1.0000 0.1186093973
H   H31       1.0  0.30531  0.58910  0.34253  1.0000 0.1186093973
H   H32       1.0  0.96278  0.30531  0.71621  1.0000 0.1186093973
H   H33       1.0  0.41090  0.75343  0.71621  1.0000 0.1186093973
H   H34       1.0  0.75343  0.03722  0.34253  1.0000 0.1186093973
H   H35       1.0  0.69469  0.41090  0.65747  1.0000 0.1186093973
H   H36       1.0  0.03722  0.69469  0.28379  1.0000 0.1186093973
C   C1        1.0  0.27211  0.47851  0.55800  1.0000 0.5434964854
C   C2        1.0  0.47851  0.92051  0.20640  1.0000 0.5434964854
C   C3        1.0  0.71411  0.27211  0.79360  1.0000 0.5434964854
C   C4        1.0  0.92051  0.71411  0.44200  1.0000 0.5434964854
C   C5        1.0  0.72789  0.52149  0.44200  1.0000 0.5434964854
C   C6        1.0  0.52149  0.07949  0.79360  1.0000 0.5434964854
C   C7        1.0  0.28589  0.72789  0.20640  1.0000 0.5434964854
C   C8        1.0  0.07949  0.28589  0.55800  1.0000 0.5434964854
C   C9        1.0  0.17360  0.38170  0.55530  1.0000 -0.0649447855
C   C10       1.0  0.38170  0.82640  0.20810  1.0000 -0.0653792735
C   C11       1.0  0.61830  0.17360  0.79190  1.0000 -0.0649447855
C   C12       1.0  0.82640  0.61830  0.44470  1.0000 -0.0653792735
C   C13       1.0  0.21252  0.48572  0.60520  1.0000 -0.0834299972
C   C14       1.0  0.48572  0.88052  0.27320  1.0000 -0.0834299972
C   C15       1.0  0.60732  0.21252  0.72680  1.0000 -0.0834299972
C   C16       1.0  0.88052  0.60732  0.39480  1.0000 -0.0834299972
C   C17       1.0  0.78748  0.51428  0.39480  1.0000 -0.0834299972
C   C18       1.0  0.51428  0.11948  0.72680  1.0000 -0.0834299972
C   C19       1.0  0.39268  0.78748  0.27320  1.0000 -0.0834299972
C   C20       1.0  0.11948  0.39268  0.60520  1.0000 -0.0834299972
C   C21       1.0  0.19140  0.59090  0.69530  1.0000 0.0635124069
C   C22       1.0  0.59090  0.89560  0.39950  1.0000 0.0635124069
C   C23       1.0  0.49610  0.19140  0.60050  1.0000 0.0635124069
C   C24       1.0  0.89560  0.49610  0.30470  1.0000 0.0635124069
C   C25       1.0  0.80860  0.40910  0.30470  1.0000 0.0635124069
C   C26       1.0  0.40910  0.10440  0.60050  1.0000 0.0635124069
C   C27       1.0  0.50390  0.80860  0.39950  1.0000 0.0635124069
C   C28       1.0  0.10440  0.50390  0.69530  1.0000 0.0635124069
C   C29       1.0  0.53999  0.25959  0.30440  1.0000 0.152347054
C   C30       1.0  0.25959  0.95519  0.71960  1.0000 0.152347054
C   C31       1.0  0.23559  0.53999  0.28040  1.0000 0.152347054
C   C32       1.0  0.95519  0.23559  0.69560  1.0000 0.152347054
C   C33       1.0  0.46001  0.74041  0.69560  1.0000 0.152347054
C   C34       1.0  0.74041  0.04481  0.28040  1.0000 0.152347054
C   C35       1.0  0.76441  0.46001  0.71960  1.0000 0.152347054
C   C36       1.0  0.04481  0.76441  0.30440  1.0000 0.152347054
C   C37       1.0  0.42191  0.23071  0.30820  1.0000 0.5040964145
C   C38       1.0  0.23071  0.92251  0.80880  1.0000 0.5040964145
C   C39       1.0  0.11371  0.42191  0.19120  1.0000 0.5040964145
C   C40       1.0  0.92251  0.11371  0.69180  1.0000 0.5040964145
C   C41       1.0  0.57809  0.76929  0.69180  1.0000 0.5040964145
C   C42       1.0  0.76929  0.07749  0.19120  1.0000 0.5040964145
C   C43       1.0  0.88629  0.57809  0.80880  1.0000 0.5040964145
C   C44       1.0  0.07749  0.88629  0.30820  1.0000 0.5040964145
N   N1        1.0  0.13760  0.60220  0.73980  1.0000 -0.2492519509
N   N2        1.0  0.60220  0.86240  0.46460  1.0000 -0.2492519509
N   N3        1.0  0.39780  0.13760  0.53540  1.0000 -0.2492519509
N   N4        1.0  0.86240  0.39780  0.26020  1.0000 -0.2492519509
N   N5        1.0  0.44809  0.34739  0.39470  1.0000 -0.3236794736
N   N6        1.0  0.34739  0.95269  0.89930  1.0000 -0.3236794736
N   N7        1.0  0.05339  0.44809  0.10070  1.0000 -0.3236794736
N   N8        1.0  0.95269  0.05339  0.60530  1.0000 -0.3236794736
N   N9        1.0  0.55191  0.65261  0.60530  1.0000 -0.3236794736
N   N10       1.0  0.65261  0.04731  0.10070  1.0000 -0.3236794736
N   N11       1.0  0.94661  0.55191  0.89930  1.0000 -0.3236794736
N   N12       1.0  0.04731  0.94661  0.39470  1.0000 -0.3236794736
N   N13       1.0  0.52477  0.36577  0.39000  1.0000 -0.2124126669
N   N14       1.0  0.36577  0.97577  0.84100  1.0000 -0.2124126669
N   N15       1.0  0.13477  0.52477  0.15900  1.0000 -0.2124126669
N   N16       1.0  0.97577  0.13477  0.61000  1.0000 -0.2124126669
N   N17       1.0  0.47523  0.63423  0.61000  1.0000 -0.2124126669
N   N18       1.0  0.63423  0.02423  0.15900  1.0000 -0.2124126669
N   N19       1.0  0.86523  0.47523  0.84100  1.0000 -0.2124126669
N   N20       1.0  0.02423  0.86523  0.39000  1.0000 -0.2124126669
N   N21       1.0  0.34989  0.17619  0.28450  1.0000 -0.6246392569
N   N22       1.0  0.17619  0.89169  0.82630  1.0000 -0.6246392569
N   N23       1.0  0.06539  0.34989  0.17370  1.0000 -0.6252309721
N   N24       1.0  0.89169  0.06539  0.71550  1.0000 -0.6246392569
N   N25       1.0  0.65011  0.82381  0.71550  1.0000 -0.6246392569
N   N26       1.0  0.82381  0.10831  0.17370  1.0000 -0.6246392569
N   N27       1.0  0.93461  0.65011  0.82630  1.0000 -0.6252309721
N   N28       1.0  0.10831  0.93461  0.28450  1.0000 -0.6246392569
N   N29       1.0  0.47913  0.17053  0.24900  1.0000 -0.4145938199
N   N30       1.0  0.17053  0.92153  0.69140  1.0000 -0.4158047404
N   N31       1.0  0.23013  0.47913  0.30860  1.0000 -0.4158047404
N   N32       1.0  0.92153  0.23013  0.75100  1.0000 -0.4145938199
N   N33       1.0  0.52087  0.82947  0.75100  1.0000 -0.4145938199
N   N34       1.0  0.82947  0.07847  0.30860  1.0000 -0.4145938199
N   N35       1.0  0.76987  0.52087  0.69140  1.0000 -0.4158047404
N   N36       1.0  0.07847  0.76987  0.24900  1.0000 -0.4158047404
O   O1        1.0  0.27190  0.38060  0.45670  1.0000 -0.5398603719
O   O2        1.0  0.38060  0.92390  0.10870  1.0000 -0.5398603719
O   O3        1.0  0.81520  0.27190  0.89130  1.0000 -0.5398603719
O   O4        1.0  0.92390  0.81520  0.54330  1.0000 -0.5398603719
O   O5        1.0  0.72810  0.61940  0.54330  1.0000 -0.5398603719
O   O6        1.0  0.61940  0.07610  0.89130  1.0000 -0.5398603719
O   O7        1.0  0.18480  0.72810  0.10870  1.0000 -0.5398603719
O   O8        1.0  0.07610  0.18480  0.45670  1.0000 -0.5398603719
O   O9        1.0  0.32418  0.57398  0.62380  1.0000 -0.5242695179
O   O10       1.0  0.57398  0.95018  0.24980  1.0000 -0.5242695179
O   O11       1.0  0.70038  0.32418  0.75020  1.0000 -0.5242695179
O   O12       1.0  0.95018  0.70038  0.37620  1.0000 -0.5242695179
O   O13       1.0  0.67582  0.42602  0.37620  1.0000 -0.5242695179
O   O14       1.0  0.42602  0.04982  0.75020  1.0000 -0.5242695179
O   O15       1.0  0.29962  0.67582  0.24980  1.0000 -0.5242695179
O   O16       1.0  0.04982  0.29962  0.62380  1.0000 -0.5242695179
