# DDEC6 charges by PACMAN v1.1 (https://github.com/mtap-research/PACMAN-charge/)
data_2023[Cu][pts]3[ASR]1
_chemical_formula_sum              "Cu16 H96 C112 O64"
_cell_length_a       16.7577
_cell_length_b       18.7034
_cell_length_c       16.7577
_cell_angle_alpha    116.615
_cell_angle_beta     90
_cell_angle_gamma    116.615

_symmetry_space_group_name_H-M    "P 1"
_symmetry_Int_Tables_number       1

loop_
  _symmetry_equiv_pos_as_xyz
  'x, y, z'

loop_
  _atom_site_type_symbol
  _atom_site_label
  _atom_site_symmetry_multiplicity
  _atom_site_fract_x
  _atom_site_fract_y
  _atom_site_fract_z
  _atom_site_occupancy
  _atom_site_charge
Cu  Cu1       1.0  0.43416  0.26996  0.13498  1.0000 0.8520105099
Cu  Cu2       1.0  0.83580  0.26996  0.13498  1.0000 0.8520105099
Cu  Cu3       1.0  0.38498  0.76996  0.18416  1.0000 0.8520105099
Cu  Cu4       1.0  0.38498  0.76996  0.58580  1.0000 0.8520105099
Cu  Cu5       1.0  0.41420  0.23004  0.61502  1.0000 0.8520105099
Cu  Cu6       1.0  0.81584  0.23004  0.61502  1.0000 0.8520105099
Cu  Cu7       1.0  0.86502  0.73004  0.56584  1.0000 0.8520105099
Cu  Cu8       1.0  0.86502  0.73004  0.16420  1.0000 0.8520105099
Cu  Cu9       1.0  0.38463  0.76926  0.03324  1.0000 0.8212129613
Cu  Cu10      1.0  0.38463  0.76926  0.73602  1.0000 0.8212129613
Cu  Cu11      1.0  0.98602  0.26926  0.13463  1.0000 0.8212129613
Cu  Cu12      1.0  0.28324  0.26926  0.13463  1.0000 0.8212129613
Cu  Cu13      1.0  0.86537  0.73074  0.71676  1.0000 0.8212129613
Cu  Cu14      1.0  0.86537  0.73074  0.01398  1.0000 0.8212129613
Cu  Cu15      1.0  0.96676  0.23074  0.61537  1.0000 0.8212129613
Cu  Cu16      1.0  0.26398  0.23074  0.61537  1.0000 0.8212129613
H   H1        1.0  0.58224  0.66596  0.10382  1.0000 0.1229775126
H   H2        1.0  0.57681  0.65630  0.00367  1.0000 0.1229775126
H   H3        1.0  0.58712  0.54422  0.12788  1.0000 0.1229775126
H   H4        1.0  0.44326  0.55964  0.13564  1.0000 0.1257818267
H   H5        1.0  0.35078  0.48172  0.05453  1.0000 0.1229775126
H   H6        1.0  0.43003  0.53370  0.87623  1.0000 0.1257818267
H   H7        1.0  0.08372  0.66596  0.56214  1.0000 0.1229775126
H   H8        1.0  0.07949  0.65630  0.65263  1.0000 0.1229775126
H   H9        1.0  0.95710  0.54422  0.41634  1.0000 0.1229775126
H   H10       1.0  0.11638  0.55964  0.42400  1.0000 0.1257818267
H   H11       1.0  0.13094  0.48172  0.42719  1.0000 0.1229775126
H   H12       1.0  0.10367  0.53370  0.65747  1.0000 0.1257818267
H   H13       1.0  0.81214  0.16596  0.33224  1.0000 0.1229775126
H   H14       1.0  0.90263  0.15630  0.32681  1.0000 0.1229775126
H   H15       1.0  0.66634  0.04422  0.33712  1.0000 0.1229775126
H   H16       1.0  0.67400  0.05964  0.19326  1.0000 0.1257818267
H   H17       1.0  0.67719  0.98172  0.10078  1.0000 0.1229775126
H   H18       1.0  0.90747  0.03370  0.18003  1.0000 0.1257818267
H   H19       1.0  0.35382  0.16596  0.83372  1.0000 0.1229775126
H   H20       1.0  0.25367  0.15630  0.82949  1.0000 0.1229775126
H   H21       1.0  0.37788  0.04422  0.70710  1.0000 0.1229775126
H   H22       1.0  0.38564  0.05964  0.86638  1.0000 0.1257818267
H   H23       1.0  0.30453  0.98172  0.88094  1.0000 0.1229775126
H   H24       1.0  0.12623  0.03370  0.85367  1.0000 0.1257818267
H   H25       1.0  0.16628  0.83404  0.64618  1.0000 0.1229775126
H   H26       1.0  0.17051  0.84370  0.74633  1.0000 0.1229775126
H   H27       1.0  0.29290  0.95578  0.62212  1.0000 0.1229775126
H   H28       1.0  0.13362  0.94036  0.61436  1.0000 0.1257818267
H   H29       1.0  0.11906  0.01828  0.69547  1.0000 0.1229775126
H   H30       1.0  0.14633  0.96630  0.87377  1.0000 0.1257818267
H   H31       1.0  0.66776  0.83404  0.18786  1.0000 0.1229775126
H   H32       1.0  0.67319  0.84370  0.09737  1.0000 0.1229775126
H   H33       1.0  0.66288  0.95578  0.33366  1.0000 0.1229775126
H   H34       1.0  0.80674  0.94036  0.32600  1.0000 0.1257818267
H   H35       1.0  0.89922  0.01828  0.32281  1.0000 0.1229775126
H   H36       1.0  0.81997  0.96630  0.09253  1.0000 0.1257818267
H   H37       1.0  0.89618  0.33404  0.41776  1.0000 0.1229775126
H   H38       1.0  0.99633  0.34370  0.42319  1.0000 0.1229775126
H   H39       1.0  0.87212  0.45578  0.41288  1.0000 0.1229775126
H   H40       1.0  0.86436  0.44036  0.55674  1.0000 0.1257818267
H   H41       1.0  0.94547  0.51828  0.64922  1.0000 0.1229775126
H   H42       1.0  0.12377  0.46630  0.56997  1.0000 0.1257818267
H   H43       1.0  0.43786  0.33404  0.91628  1.0000 0.1229775126
H   H44       1.0  0.34737  0.34370  0.92051  1.0000 0.1229775126
H   H45       1.0  0.58366  0.45578  0.04290  1.0000 0.1229775126
H   H46       1.0  0.57600  0.44036  0.88362  1.0000 0.1257818267
H   H47       1.0  0.57281  0.51828  0.86906  1.0000 0.1229775126
H   H48       1.0  0.34253  0.46630  0.89633  1.0000 0.1257818267
H   H49       1.0  0.66776  0.83404  0.64618  1.0000 0.1229775126
H   H50       1.0  0.67319  0.84370  0.74633  1.0000 0.1229775126
H   H51       1.0  0.66288  0.95578  0.62212  1.0000 0.1229775126
H   H52       1.0  0.80674  0.94036  0.61436  1.0000 0.1257818267
H   H53       1.0  0.89922  0.01828  0.69547  1.0000 0.1229775126
H   H54       1.0  0.81997  0.96630  0.87377  1.0000 0.1257818267
H   H55       1.0  0.16628  0.83404  0.18786  1.0000 0.1229775126
H   H56       1.0  0.17051  0.84370  0.09737  1.0000 0.1229775126
H   H57       1.0  0.29290  0.95578  0.33366  1.0000 0.1229775126
H   H58       1.0  0.13362  0.94036  0.32600  1.0000 0.1257818267
H   H59       1.0  0.11906  0.01828  0.32281  1.0000 0.1229775126
H   H60       1.0  0.14633  0.96630  0.09253  1.0000 0.1257818267
H   H61       1.0  0.43786  0.33404  0.41776  1.0000 0.1229775126
H   H62       1.0  0.34737  0.34370  0.42319  1.0000 0.1229775126
H   H63       1.0  0.58366  0.45578  0.41288  1.0000 0.1229775126
H   H64       1.0  0.57600  0.44036  0.55674  1.0000 0.1257818267
H   H65       1.0  0.57281  0.51828  0.64922  1.0000 0.1229775126
H   H66       1.0  0.34253  0.46630  0.56997  1.0000 0.1257818267
H   H67       1.0  0.89618  0.33404  0.91628  1.0000 0.1229775126
H   H68       1.0  0.99633  0.34370  0.92051  1.0000 0.1229775126
H   H69       1.0  0.87212  0.45578  0.04290  1.0000 0.1229775126
H   H70       1.0  0.86436  0.44036  0.88362  1.0000 0.1257818267
H   H71       1.0  0.94547  0.51828  0.86906  1.0000 0.1229775126
H   H72       1.0  0.12377  0.46630  0.89633  1.0000 0.1257818267
H   H73       1.0  0.08372  0.66596  0.10382  1.0000 0.1229775126
H   H74       1.0  0.07949  0.65630  0.00367  1.0000 0.1229775126
H   H75       1.0  0.95710  0.54422  0.12788  1.0000 0.1229775126
H   H76       1.0  0.11638  0.55964  0.13564  1.0000 0.1257818267
H   H77       1.0  0.13094  0.48172  0.05453  1.0000 0.1229775126
H   H78       1.0  0.10367  0.53370  0.87623  1.0000 0.1257818267
H   H79       1.0  0.58224  0.66596  0.56214  1.0000 0.1229775126
H   H80       1.0  0.57681  0.65630  0.65263  1.0000 0.1229775126
H   H81       1.0  0.58712  0.54422  0.41634  1.0000 0.1229775126
H   H82       1.0  0.44326  0.55964  0.42400  1.0000 0.1257818267
H   H83       1.0  0.35078  0.48172  0.42719  1.0000 0.1229775126
H   H84       1.0  0.43003  0.53370  0.65747  1.0000 0.1257818267
H   H85       1.0  0.35382  0.16596  0.33224  1.0000 0.1229775126
H   H86       1.0  0.25367  0.15630  0.32681  1.0000 0.1229775126
H   H87       1.0  0.37788  0.04422  0.33712  1.0000 0.1229775126
H   H88       1.0  0.38564  0.05964  0.19326  1.0000 0.1257818267
H   H89       1.0  0.30453  0.98172  0.10078  1.0000 0.1229775126
H   H90       1.0  0.12623  0.03370  0.18003  1.0000 0.1257818267
H   H91       1.0  0.81214  0.16596  0.83372  1.0000 0.1229775126
H   H92       1.0  0.90263  0.15630  0.82949  1.0000 0.1229775126
H   H93       1.0  0.66634  0.04422  0.70710  1.0000 0.1229775126
H   H94       1.0  0.67400  0.05964  0.86638  1.0000 0.1257818267
H   H95       1.0  0.67719  0.98172  0.88094  1.0000 0.1229775126
H   H96       1.0  0.90747  0.03370  0.85367  1.0000 0.1257818267
C   C1        1.0  0.45087  0.56874  0.01507  1.0000 0.0953316884
C   C2        1.0  0.55655  0.62130  0.03685  1.0000 -0.2717941028
C   C3        1.0  0.41899  0.51558  0.06849  1.0000 -0.2777543654
C   C4        1.0  0.42124  0.38748  0.08514  1.0000 0.5411747219
C   C5        1.0  0.45454  0.44728  0.03994  1.0000 0.0914610932
C   C6        1.0  0.42447  0.64374  0.04857  1.0000 0.5411747219
C   C7        1.0  0.11787  0.56874  0.55367  1.0000 0.0953316884
C   C8        1.0  0.06475  0.62130  0.58445  1.0000 -0.2717941028
C   C9        1.0  0.09659  0.51558  0.44709  1.0000 -0.2777543654
C   C10       1.0  0.96624  0.38748  0.30234  1.0000 0.5411747219
C   C11       1.0  0.99274  0.44728  0.40734  1.0000 0.0914610932
C   C12       1.0  0.21927  0.64374  0.59517  1.0000 0.5411747219
C   C13       1.0  0.80367  0.06874  0.20087  1.0000 0.0953316884
C   C14       1.0  0.83445  0.12130  0.30655  1.0000 -0.2717941028
C   C15       1.0  0.69709  0.01558  0.16899  1.0000 -0.2777543654
C   C16       1.0  0.55234  0.88748  0.17124  1.0000 0.5411747219
C   C17       1.0  0.65734  0.94728  0.20454  1.0000 0.0914610932
C   C18       1.0  0.84517  0.14374  0.17447  1.0000 0.5411747219
C   C19       1.0  0.26507  0.06874  0.86787  1.0000 0.0953316884
C   C20       1.0  0.28685  0.12130  0.81475  1.0000 -0.2717941028
C   C21       1.0  0.31849  0.01558  0.84659  1.0000 -0.2777543654
C   C22       1.0  0.33514  0.88748  0.71624  1.0000 0.5411747219
C   C23       1.0  0.28994  0.94728  0.74274  1.0000 0.0914610932
C   C24       1.0  0.29857  0.14374  0.96927  1.0000 0.5411747219
C   C25       1.0  0.13213  0.93126  0.73493  1.0000 0.0914610932
C   C26       1.0  0.18525  0.87870  0.71315  1.0000 -0.2717941028
C   C27       1.0  0.15341  0.98442  0.68151  1.0000 -0.2777543654
C   C28       1.0  0.28376  0.11252  0.66486  1.0000 0.5411747219
C   C29       1.0  0.25726  0.05272  0.71006  1.0000 0.0914610932
C   C30       1.0  0.03073  0.85626  0.70143  1.0000 0.5411747219
C   C31       1.0  0.79913  0.93126  0.19633  1.0000 0.0914610932
C   C32       1.0  0.69345  0.87870  0.16555  1.0000 -0.2717941028
C   C33       1.0  0.83101  0.98442  0.30291  1.0000 -0.2777543654
C   C34       1.0  0.82876  0.11252  0.44766  1.0000 0.5411747219
C   C35       1.0  0.79546  0.05272  0.34266  1.0000 0.0914610932
C   C36       1.0  0.82553  0.85626  0.15483  1.0000 0.5411747219
C   C37       1.0  0.98493  0.43126  0.54913  1.0000 0.0953316884
C   C38       1.0  0.96315  0.37870  0.44345  1.0000 -0.2717941028
C   C39       1.0  0.93151  0.48442  0.58101  1.0000 -0.2777543654
C   C40       1.0  0.91486  0.61252  0.57876  1.0000 0.5411747219
C   C41       1.0  0.96006  0.55272  0.54546  1.0000 0.0914610932
C   C42       1.0  0.95143  0.35626  0.57553  1.0000 0.5411747219
C   C43       1.0  0.44633  0.43126  0.88213  1.0000 0.0953316884
C   C44       1.0  0.41555  0.37870  0.93525  1.0000 -0.2717941028
C   C45       1.0  0.55291  0.48442  0.90341  1.0000 -0.2777543654
C   C46       1.0  0.69766  0.61252  0.03376  1.0000 0.5411747219
C   C47       1.0  0.59266  0.55272  0.00726  1.0000 0.0914610932
C   C48       1.0  0.40483  0.35626  0.78073  1.0000 0.5411747219
C   C49       1.0  0.79913  0.93126  0.73493  1.0000 0.0914610932
C   C50       1.0  0.69345  0.87870  0.71315  1.0000 -0.2717941028
C   C51       1.0  0.83101  0.98442  0.68151  1.0000 -0.2777543654
C   C52       1.0  0.82876  0.11252  0.66486  1.0000 0.5411747219
C   C53       1.0  0.79546  0.05272  0.71006  1.0000 0.0914610932
C   C54       1.0  0.82553  0.85626  0.70143  1.0000 0.5411747219
C   C55       1.0  0.13213  0.93126  0.19633  1.0000 0.0914610932
C   C56       1.0  0.18525  0.87870  0.16555  1.0000 -0.2717941028
C   C57       1.0  0.15341  0.98442  0.30291  1.0000 -0.2777543654
C   C58       1.0  0.28376  0.11252  0.44766  1.0000 0.5411747219
C   C59       1.0  0.25726  0.05272  0.34266  1.0000 0.0914610932
C   C60       1.0  0.03073  0.85626  0.15483  1.0000 0.5411747219
C   C61       1.0  0.44633  0.43126  0.54913  1.0000 0.0953316884
C   C62       1.0  0.41555  0.37870  0.44345  1.0000 -0.2717941028
C   C63       1.0  0.55291  0.48442  0.58101  1.0000 -0.2777543654
C   C64       1.0  0.69766  0.61252  0.57876  1.0000 0.5411747219
C   C65       1.0  0.59266  0.55272  0.54546  1.0000 0.0914610932
C   C66       1.0  0.40483  0.35626  0.57553  1.0000 0.5411747219
C   C67       1.0  0.98493  0.43126  0.88213  1.0000 0.0953316884
C   C68       1.0  0.96315  0.37870  0.93525  1.0000 -0.2717941028
C   C69       1.0  0.93151  0.48442  0.90341  1.0000 -0.2777543654
C   C70       1.0  0.91486  0.61252  0.03376  1.0000 0.5411747219
C   C71       1.0  0.96006  0.55272  0.00726  1.0000 0.0914610932
C   C72       1.0  0.95143  0.35626  0.78073  1.0000 0.5411747219
C   C73       1.0  0.11787  0.56874  0.01507  1.0000 0.0953316884
C   C74       1.0  0.06475  0.62130  0.03685  1.0000 -0.2717941028
C   C75       1.0  0.09659  0.51558  0.06849  1.0000 -0.2777543654
C   C76       1.0  0.96624  0.38748  0.08514  1.0000 0.5411747219
C   C77       1.0  0.99274  0.44728  0.03994  1.0000 0.0914610932
C   C78       1.0  0.21927  0.64374  0.04857  1.0000 0.5411747219
C   C79       1.0  0.45087  0.56874  0.55367  1.0000 0.0953316884
C   C80       1.0  0.55655  0.62130  0.58445  1.0000 -0.2717941028
C   C81       1.0  0.41899  0.51558  0.44709  1.0000 -0.2777543654
C   C82       1.0  0.42124  0.38748  0.30234  1.0000 0.5411747219
C   C83       1.0  0.45454  0.44728  0.40734  1.0000 0.0914610932
C   C84       1.0  0.42447  0.64374  0.59517  1.0000 0.5411747219
C   C85       1.0  0.26507  0.06874  0.20087  1.0000 0.0953316884
C   C86       1.0  0.28685  0.12130  0.30655  1.0000 -0.2717941028
C   C87       1.0  0.31849  0.01558  0.16899  1.0000 -0.2777543654
C   C88       1.0  0.33514  0.88748  0.17124  1.0000 0.5411747219
C   C89       1.0  0.28994  0.94728  0.20454  1.0000 0.0914610932
C   C90       1.0  0.29857  0.14374  0.17447  1.0000 0.5411747219
C   C91       1.0  0.80367  0.06874  0.86787  1.0000 0.0953316884
C   C92       1.0  0.83445  0.12130  0.81475  1.0000 -0.2717941028
C   C93       1.0  0.69709  0.01558  0.84659  1.0000 -0.2777543654
C   C94       1.0  0.55234  0.88748  0.71624  1.0000 0.5411747219
C   C95       1.0  0.65734  0.94728  0.74274  1.0000 0.0914610932
C   C96       1.0  0.84517  0.14374  0.96927  1.0000 0.5411747219
C   C97       1.0  0.56090  0.50000  0.06090  1.0000 -0.2717941028
C   C98       1.0  0.41070  0.50000  0.91070  1.0000 -0.2870541038
C   C99       1.0  0.93910  0.50000  0.43910  1.0000 -0.2717941028
C   C100      1.0  0.08930  0.50000  0.58930  1.0000 -0.2870541038
C   C101      1.0  0.68910  0.00000  0.31090  1.0000 -0.2717941028
C   C102      1.0  0.83930  0.00000  0.16070  1.0000 -0.2870541038
C   C103      1.0  0.31090  0.00000  0.68910  1.0000 -0.2717941028
C   C104      1.0  0.16070  0.00000  0.83930  1.0000 -0.2870541038
C   C105      1.0  0.68910  0.00000  0.68910  1.0000 -0.2717941028
C   C106      1.0  0.83930  0.00000  0.83930  1.0000 -0.2870541038
C   C107      1.0  0.31090  0.00000  0.31090  1.0000 -0.2717941028
C   C108      1.0  0.16070  0.00000  0.16070  1.0000 -0.2870541038
C   C109      1.0  0.56090  0.50000  0.43910  1.0000 -0.2717941028
C   C110      1.0  0.41070  0.50000  0.58930  1.0000 -0.2870541038
C   C111      1.0  0.93910  0.50000  0.06090  1.0000 -0.2717941028
C   C112      1.0  0.08930  0.50000  0.91070  1.0000 -0.2870541038
O   O1        1.0  0.34147  0.36294  0.09777  1.0000 -0.5171970697
O   O2        1.0  0.41602  0.67124  0.99492  1.0000 -0.5006967916
O   O3        1.0  0.47517  0.36234  0.09967  1.0000 -0.5006967916
O   O4        1.0  0.41721  0.67522  0.13011  1.0000 -0.5006967916
O   O5        1.0  0.02147  0.36294  0.26517  1.0000 -0.5171970697
O   O6        1.0  0.25522  0.67124  0.67632  1.0000 -0.5006967916
O   O7        1.0  0.88717  0.36234  0.26267  1.0000 -0.5006967916
O   O8        1.0  0.25801  0.67522  0.54511  1.0000 -0.5006967916
O   O9        1.0  0.51517  0.86294  0.09147  1.0000 -0.5171970697
O   O10       1.0  0.92632  0.17124  0.16602  1.0000 -0.5006967916
O   O11       1.0  0.51267  0.86234  0.22517  1.0000 -0.5006967916
O   O12       1.0  0.79511  0.17522  0.16721  1.0000 -0.5006967916
O   O13       1.0  0.34777  0.86294  0.77147  1.0000 -0.5171970697
O   O14       1.0  0.24492  0.17124  0.00522  1.0000 -0.5006967916
O   O15       1.0  0.34967  0.86234  0.63717  1.0000 -0.5006967916
O   O16       1.0  0.38011  0.17522  0.00801  1.0000 -0.5006967916
O   O17       1.0  0.22853  0.13706  0.65223  1.0000 -0.5171970697
O   O18       1.0  0.99478  0.82876  0.75508  1.0000 -0.5006967916
O   O19       1.0  0.36283  0.13766  0.65033  1.0000 -0.5006967916
O   O20       1.0  0.99199  0.82478  0.61989  1.0000 -0.5006967916
O   O21       1.0  0.90853  0.13706  0.48483  1.0000 -0.5171970697
O   O22       1.0  0.83398  0.82876  0.07368  1.0000 -0.5006967916
O   O23       1.0  0.77483  0.13766  0.48733  1.0000 -0.5006967916
O   O24       1.0  0.83279  0.82478  0.20489  1.0000 -0.5006967916
O   O25       1.0  0.90223  0.63706  0.65853  1.0000 -0.5171970697
O   O26       1.0  0.00508  0.32876  0.58398  1.0000 -0.5006967916
O   O27       1.0  0.90033  0.63766  0.52483  1.0000 -0.5006967916
O   O28       1.0  0.86989  0.32478  0.58279  1.0000 -0.5006967916
O   O29       1.0  0.73483  0.63706  0.97853  1.0000 -0.5171970697
O   O30       1.0  0.32368  0.32876  0.74478  1.0000 -0.5006967916
O   O31       1.0  0.73733  0.63766  0.11283  1.0000 -0.5006967916
O   O32       1.0  0.45489  0.32478  0.74199  1.0000 -0.5006967916
O   O33       1.0  0.90853  0.13706  0.65223  1.0000 -0.5171970697
O   O34       1.0  0.83398  0.82876  0.75508  1.0000 -0.5006967916
O   O35       1.0  0.77483  0.13766  0.65033  1.0000 -0.5006967916
O   O36       1.0  0.83279  0.82478  0.61989  1.0000 -0.5006967916
O   O37       1.0  0.22853  0.13706  0.48483  1.0000 -0.5171970697
O   O38       1.0  0.99478  0.82876  0.07368  1.0000 -0.5006967916
O   O39       1.0  0.36283  0.13766  0.48733  1.0000 -0.5006967916
O   O40       1.0  0.99199  0.82478  0.20489  1.0000 -0.5006967916
O   O41       1.0  0.73483  0.63706  0.65853  1.0000 -0.5171970697
O   O42       1.0  0.32368  0.32876  0.58398  1.0000 -0.5006967916
O   O43       1.0  0.73733  0.63766  0.52483  1.0000 -0.5006967916
O   O44       1.0  0.45489  0.32478  0.58279  1.0000 -0.5006967916
O   O45       1.0  0.90223  0.63706  0.97853  1.0000 -0.5171970697
O   O46       1.0  0.00508  0.32876  0.74478  1.0000 -0.5006967916
O   O47       1.0  0.90033  0.63766  0.11283  1.0000 -0.5006967916
O   O48       1.0  0.86989  0.32478  0.74199  1.0000 -0.5006967916
O   O49       1.0  0.02147  0.36294  0.09777  1.0000 -0.5171970697
O   O50       1.0  0.25522  0.67124  0.99492  1.0000 -0.5006967916
O   O51       1.0  0.88717  0.36234  0.09967  1.0000 -0.5006967916
O   O52       1.0  0.25801  0.67522  0.13011  1.0000 -0.5006967916
O   O53       1.0  0.34147  0.36294  0.26517  1.0000 -0.5171970697
O   O54       1.0  0.41602  0.67124  0.67632  1.0000 -0.5006967916
O   O55       1.0  0.47517  0.36234  0.26267  1.0000 -0.5006967916
O   O56       1.0  0.41721  0.67522  0.54511  1.0000 -0.5006967916
O   O57       1.0  0.34777  0.86294  0.09147  1.0000 -0.5171970697
O   O58       1.0  0.24492  0.17124  0.16602  1.0000 -0.5006967916
O   O59       1.0  0.34967  0.86234  0.22517  1.0000 -0.5006967916
O   O60       1.0  0.38011  0.17522  0.16721  1.0000 -0.5006967916
O   O61       1.0  0.51517  0.86294  0.77147  1.0000 -0.5171970697
O   O62       1.0  0.92632  0.17124  0.00522  1.0000 -0.5006967916
O   O63       1.0  0.51267  0.86234  0.63717  1.0000 -0.5006967916
O   O64       1.0  0.79511  0.17522  0.00801  1.0000 -0.5006967916
