# DDEC6 charges by PACMAN v1.1 (https://github.com/mtap-research/PACMAN-charge/)
data_2023[Zn][sql]2[ASR]17
_chemical_formula_sum              "Zn2 H36 C60 N8 O8"
_cell_length_a       6.791
_cell_length_b       12.694
_cell_length_c       17.464
_cell_angle_alpha    110.709
_cell_angle_beta     98.15
_cell_angle_gamma    88.811

_symmetry_space_group_name_H-M    "P 1"
_symmetry_Int_Tables_number       1

loop_
  _symmetry_equiv_pos_as_xyz
  'x, y, z'

loop_
  _atom_site_type_symbol
  _atom_site_label
  _atom_site_symmetry_multiplicity
  _atom_site_fract_x
  _atom_site_fract_y
  _atom_site_fract_z
  _atom_site_occupancy
  _atom_site_charge
Zn  Zn1       1.0  0.80748  0.99555  0.79648  1.0000 0.7477014245
Zn  Zn2       1.0  0.19252  0.00445  0.20352  1.0000 0.7477014245
H   H1        1.0  0.38291  0.06353  0.80132  1.0000 0.1117306875
H   H2        1.0  0.61709  0.93647  0.19868  1.0000 0.1117306875
H   H3        1.0  0.02243  0.59065  0.67486  1.0000 0.1392329694
H   H4        1.0  0.97757  0.40935  0.32514  1.0000 0.1392329694
H   H5        1.0  0.68462  0.37709  0.79269  1.0000 0.1392329694
H   H6        1.0  0.31538  0.62291  0.20731  1.0000 0.1392329694
H   H7        1.0  0.41681  0.87849  0.69279  1.0000 0.1197907519
H   H8        1.0  0.58319  0.12151  0.30721  1.0000 0.1197907519
H   H9        1.0  0.78148  0.81283  0.86264  1.0000 0.1197907519
H   H10       1.0  0.21852  0.18717  0.13736  1.0000 0.1197907519
H   H11       1.0  0.18855  0.19601  0.77001  1.0000 0.1392329694
H   H12       1.0  0.81145  0.80399  0.22999  1.0000 0.1392329694
H   H13       1.0  0.33699  0.03772  0.51221  1.0000 0.1197907519
H   H14       1.0  0.66301  0.96228  0.48779  1.0000 0.1197907519
H   H15       1.0  0.60086  0.65383  0.84390  1.0000 0.1392329694
H   H16       1.0  0.39914  0.34617  0.15610  1.0000 0.1392329694
H   H17       1.0  0.69171  0.55318  0.65457  1.0000 0.1117306875
H   H18       1.0  0.30829  0.44682  0.34543  1.0000 0.1117306875
H   H19       1.0  0.05590  0.27954  0.68396  1.0000 0.1197907519
H   H20       1.0  0.94410  0.72046  0.31604  1.0000 0.1197907519
H   H21       1.0  0.20530  0.02263  0.62291  1.0000 0.1197907519
H   H22       1.0  0.79470  0.97737  0.37709  1.0000 0.1197907519
H   H23       1.0  0.76359  0.13059  0.04621  1.0000 0.1197907519
H   H24       1.0  0.23641  0.86941  0.95379  1.0000 0.1197907519
H   H25       1.0  0.46567  0.17243  0.98291  1.0000 0.1117306875
H   H26       1.0  0.53433  0.82757  0.01709  1.0000 0.1197907519
H   H27       1.0  0.21846  0.72507  0.67317  1.0000 0.1392329694
H   H28       1.0  0.78154  0.27493  0.32683  1.0000 0.1392329694
H   H29       1.0  0.85458  0.23216  0.56010  1.0000 0.1197907519
H   H30       1.0  0.14542  0.76784  0.43990  1.0000 0.1197907519
H   H31       1.0  0.38533  0.50477  0.57271  1.0000 0.1197907519
H   H32       1.0  0.61467  0.49523  0.42729  1.0000 0.1197907519
H   H33       1.0  0.86555  0.24127  0.82580  1.0000 0.1197907519
H   H34       1.0  0.13445  0.75873  0.17420  1.0000 0.1197907519
H   H35       1.0  0.54731  0.18306  0.47829  1.0000 0.1298555167
H   H36       1.0  0.45269  0.81694  0.52171  1.0000 0.1298555167
C   C1        1.0  0.91960  0.99160  0.56780  1.0000 -0.027297855
C   C2        1.0  0.08040  0.00840  0.43220  1.0000 -0.027297855
C   C3        1.0  0.13130  0.05130  0.91620  1.0000 0.5486113609
C   C4        1.0  0.86870  0.94870  0.08380  1.0000 0.5486113609
C   C5        1.0  0.29450  0.38290  0.74520  1.0000 0.2073697926
C   C6        1.0  0.70550  0.61710  0.25480  1.0000 0.2073697926
C   C7        1.0  0.38830  0.66920  0.75490  1.0000 0.0907471633
C   C8        1.0  0.61170  0.33080  0.24510  1.0000 0.0907471633
C   C9        1.0  0.83040  0.98520  0.63970  1.0000 0.5558326424
C   C10       1.0  0.16960  0.01480  0.36030  1.0000 0.5558326424
C   C11       1.0  0.41310  0.30010  0.77340  1.0000 0.098740972
C   C12       1.0  0.58690  0.69990  0.22660  1.0000 0.098740972
C   C13       1.0  0.44420  0.12650  0.79840  1.0000 0.098740972
C   C14       1.0  0.55580  0.87350  0.20160  1.0000 0.098740972
C   C15       1.0  0.08990  0.53590  0.69120  1.0000 -0.2249771177
C   C16       1.0  0.91010  0.46410  0.30880  1.0000 -0.2249771177
C   C17       1.0  0.27810  0.56090  0.73780  1.0000 0.2018788786
C   C18       1.0  0.72190  0.43910  0.26220  1.0000 0.2018788786
C   C19       1.0  0.62030  0.31330  0.79290  1.0000 -0.1719349331
C   C20       1.0  0.37970  0.68670  0.20710  1.0000 -0.1719349331
C   C21       1.0  0.45390  0.83300  0.72380  1.0000 0.0801889909
C   C22       1.0  0.54610  0.16700  0.27620  1.0000 0.0801889909
C   C23       1.0  0.66870  0.79380  0.82290  1.0000 0.0907471633
C   C24       1.0  0.33130  0.20620  0.17710  1.0000 0.0907471633
C   C25       1.0  0.32140  0.02480  0.96090  1.0000 -0.027297855
C   C26       1.0  0.67860  0.97520  0.03910  1.0000 -0.027297855
C   C27       1.0  0.32640  0.20580  0.77910  1.0000 -0.1719349331
C   C28       1.0  0.67360  0.79420  0.22090  1.0000 -0.1719349331
C   C29       1.0  0.20140  0.02240  0.50700  1.0000 -0.114214678
C   C30       1.0  0.79860  0.97760  0.49300  1.0000 -0.114214678
C   C31       1.0  0.56000  0.69840  0.81260  1.0000 -0.1807984567
C   C32       1.0  0.44000  0.30160  0.18740  1.0000 -0.1807984567
C   C33       1.0  0.66320  0.47900  0.61960  1.0000 -0.1470590948
C   C34       1.0  0.33680  0.52100  0.38040  1.0000 -0.1470590948
C   C35       1.0  0.10880  0.35180  0.69720  1.0000 -0.2249771177
C   C36       1.0  0.89120  0.64820  0.30280  1.0000 -0.2276670703
C   C37       1.0  0.12210  0.01360  0.57380  1.0000 -0.1169352649
C   C38       1.0  0.87790  0.98640  0.42620  1.0000 -0.1169352649
C   C39       1.0  0.65770  0.07830  0.02790  1.0000 -0.1046742915
C   C40       1.0  0.34230  0.92170  0.97210  1.0000 -0.1046742915
C   C41       1.0  0.47960  0.10300  0.98960  1.0000 -0.1297226194
C   C42       1.0  0.52040  0.89700  0.01040  1.0000 -0.1297226194
C   C43       1.0  0.00240  0.42890  0.66910  1.0000 0.1197907519
C   C44       1.0  0.99760  0.57110  0.33090  1.0000 0.1197907519
C   C45       1.0  0.80580  0.39750  0.61680  1.0000 0.0801889909
C   C46       1.0  0.19420  0.60250  0.38320  1.0000 0.0801889909
C   C47       1.0  0.33460  0.74020  0.71100  1.0000 -0.1807984567
C   C48       1.0  0.66540  0.25980  0.28900  1.0000 -0.1807984567
C   C49       1.0  0.43670  0.33910  0.51820  1.0000 0.0468814386
C   C50       1.0  0.56330  0.66090  0.48180  1.0000 0.0468814386
C   C51       1.0  0.75990  0.28690  0.56300  1.0000 -0.1297226194
C   C52       1.0  0.24010  0.71310  0.43700  1.0000 -0.1297226194
C   C53       1.0  0.47980  0.45010  0.57060  1.0000 -0.1297226194
C   C54       1.0  0.52020  0.54990  0.42940  1.0000 -0.1297226194
C   C55       1.0  0.72810  0.23100  0.81240  1.0000 0.0907471633
C   C56       1.0  0.27190  0.76900  0.18760  1.0000 0.0907471633
C   C57       1.0  0.24390  0.31220  0.46590  1.0000 0.2699835183
C   C58       1.0  0.75610  0.68780  0.53410  1.0000 0.2699835183
C   C59       1.0  0.57610  0.25700  0.51370  1.0000 -0.1169352649
C   C60       1.0  0.42390  0.74300  0.48630  1.0000 -0.1169352649
N   N1        1.0  0.62170  0.86110  0.77891  1.0000 -0.2401684342
N   N2        1.0  0.37830  0.13890  0.22109  1.0000 -0.2401684342
N   N3        1.0  0.64350  0.13610  0.81305  1.0000 -0.2276670703
N   N4        1.0  0.35650  0.86390  0.18695  1.0000 -0.2276670703
N   N5        1.0  0.37900  0.48540  0.76489  1.0000 -0.3354596912
N   N6        1.0  0.62100  0.51460  0.23511  1.0000 -0.3354596912
N   N7        1.0  0.09720  0.29360  0.42480  1.0000 -0.3569195388
N   N8        1.0  0.90280  0.70640  0.57520  1.0000 -0.3569195388
O   O1        1.0  0.00870  0.96800  0.87783  1.0000 -0.5517684836
O   O2        1.0  0.99130  0.03200  0.12217  1.0000 -0.5517684836
O   O3        1.0  0.95220  0.99860  0.70722  1.0000 -0.55564211
O   O4        1.0  0.04780  0.00140  0.29278  1.0000 -0.55564211
O   O5        1.0  0.64940  0.96820  0.63355  1.0000 -0.5517684836
O   O6        1.0  0.35060  0.03180  0.36645  1.0000 -0.5517684836
O   O7        1.0  0.10240  0.14760  0.91528  1.0000 -0.5517684836
O   O8        1.0  0.89760  0.85240  0.08472  1.0000 -0.5517684836
