# DDEC6 charges by PACMAN v1.1 (https://github.com/mtap-research/PACMAN-charge/)
data_2023[CuMo][nan]2[ASR]1
_chemical_formula_sum              "Cu3 Mo16 H72 C30 N12 O32"
_cell_length_a       12.4703
_cell_length_b       16.1004
_cell_length_c       17.4477
_cell_angle_alpha    87.866
_cell_angle_beta     88.813
_cell_angle_gamma    76.859

_symmetry_space_group_name_H-M    "P 1"
_symmetry_Int_Tables_number       1

loop_
  _symmetry_equiv_pos_as_xyz
  'x, y, z'

loop_
  _atom_site_type_symbol
  _atom_site_label
  _atom_site_symmetry_multiplicity
  _atom_site_fract_x
  _atom_site_fract_y
  _atom_site_fract_z
  _atom_site_occupancy
  _atom_site_charge
Cu  Cu1       1.0  0.50000  0.50000  0.50000  1.0000 0.5656415279
Cu  Cu2       1.0  0.50000  0.00000  0.00000  1.0000 0.6208044346
Cu  Cu3       1.0  0.50000  0.50000  0.00000  1.0000 0.6724433954
Mo  Mo1       1.0  0.33673  0.25454  0.39767  1.0000 1.3960443194
Mo  Mo2       1.0  0.66327  0.74546  0.60233  1.0000 1.3948888238
Mo  Mo3       1.0  0.58629  0.26029  0.41676  1.0000 1.9653245862
Mo  Mo4       1.0  0.41371  0.73971  0.58324  1.0000 1.9610839541
Mo  Mo5       1.0  0.54968  0.14198  0.26821  1.0000 1.9528843816
Mo  Mo6       1.0  0.45032  0.85802  0.73179  1.0000 1.9395888503
Mo  Mo7       1.0  0.29137  0.14034  0.25389  1.0000 1.5173189099
Mo  Mo8       1.0  0.70863  0.85966  0.74611  1.0000 1.5173189099
Mo  Mo9       1.0  0.38653  0.33808  0.23507  1.0000 1.7704681809
Mo  Mo10      1.0  0.61347  0.66192  0.76493  1.0000 1.7704681809
Mo  Mo11      1.0  0.34700  0.21528  0.08935  1.0000 1.6727172787
Mo  Mo12      1.0  0.65300  0.78472  0.91065  1.0000 1.6727172787
Mo  Mo13      1.0  0.61543  0.27777  0.09959  1.0000 1.7141776736
Mo  Mo14      1.0  0.38457  0.72223  0.90041  1.0000 1.7141776736
Mo  Mo15      1.0  0.69385  0.37200  0.25482  1.0000 0.9856880362
Mo  Mo16      1.0  0.30615  0.62800  0.74518  1.0000 0.9826550539
H   H1        1.0  0.53684  0.51515  0.36121  1.0000 0.2021842952
H   H2        1.0  0.46316  0.48485  0.63879  1.0000 0.2021842952
H   H3        1.0  0.33587  0.46717  0.44179  1.0000 0.2118932858
H   H4        1.0  0.66413  0.53283  0.55821  1.0000 0.220247599
H   H5        1.0  0.51816  0.98485  0.14194  1.0000 0.220247599
H   H6        1.0  0.48184  0.01515  0.85806  1.0000 0.220247599
H   H7        1.0  0.36101  0.41645  0.04212  1.0000 0.2371467556
H   H8        1.0  0.63899  0.58355  0.95788  1.0000 0.2371467556
H   H9        1.0  0.39899  0.88815  0.97325  1.0000 0.2118932858
H   H10       1.0  0.60101  0.11185  0.02675  1.0000 0.2118932858
H   H11       1.0  0.50605  0.50706  0.14235  1.0000 0.220247599
H   H12       1.0  0.49395  0.49294  0.85765  1.0000 0.220247599
H   H13       1.0  0.67378  0.58283  0.35761  1.0000 0.0999487675
H   H14       1.0  0.32622  0.41717  0.64239  1.0000 0.0999487675
H   H15       1.0  0.63639  0.62870  0.43488  1.0000 0.1079789548
H   H16       1.0  0.36361  0.37130  0.56512  1.0000 0.1079789548
H   H17       1.0  0.21603  0.48245  0.53775  1.0000 0.0999487675
H   H18       1.0  0.78397  0.51755  0.46225  1.0000 0.0999487675
H   H19       1.0  0.27124  0.54708  0.57872  1.0000 0.0902239693
H   H20       1.0  0.72876  0.45292  0.42128  1.0000 0.0902239693
H   H21       1.0  0.27933  0.63974  0.47164  1.0000 0.0819687153
H   H22       1.0  0.72067  0.36026  0.52836  1.0000 0.0819687153
H   H23       1.0  0.20802  0.58956  0.42693  1.0000 0.0819687153
H   H24       1.0  0.79198  0.41044  0.57307  1.0000 0.0819687153
H   H25       1.0  0.34558  0.56483  0.32975  1.0000 0.1079789548
H   H26       1.0  0.65442  0.43517  0.67025  1.0000 0.1079789548
H   H27       1.0  0.28988  0.66172  0.33703  1.0000 0.1079789548
H   H28       1.0  0.71012  0.33828  0.66297  1.0000 0.1079789548
H   H29       1.0  0.47350  0.65168  0.32272  1.0000 0.0819687153
H   H30       1.0  0.52650  0.34832  0.67728  1.0000 0.0819687153
H   H31       1.0  0.44221  0.67844  0.40726  1.0000 0.0902239693
H   H32       1.0  0.55779  0.32156  0.59274  1.0000 0.0902239693
H   H33       1.0  0.48965  0.85791  0.16889  1.0000 0.0999487675
H   H34       1.0  0.51035  0.14209  0.83111  1.0000 0.0999487675
H   H35       1.0  0.52917  0.82441  0.08724  1.0000 0.0999487675
H   H36       1.0  0.47083  0.17559  0.91276  1.0000 0.0999487675
H   H37       1.0  0.27258  0.41210  0.93303  1.0000 0.0999487675
H   H38       1.0  0.72742  0.58790  0.06697  1.0000 0.0999487675
H   H39       1.0  0.29896  0.49766  0.90036  1.0000 0.0999487675
H   H40       1.0  0.70104  0.50234  0.09964  1.0000 0.0999487675
H   H41       1.0  0.33879  0.85446  0.08738  1.0000 0.0999487675
H   H42       1.0  0.66121  0.14554  0.91262  1.0000 0.0999487675
H   H43       1.0  0.33181  0.94590  0.11876  1.0000 0.1079789548
H   H44       1.0  0.66819  0.05410  0.88124  1.0000 0.1079789548
H   H45       1.0  0.45451  0.34325  0.92253  1.0000 0.1079789548
H   H46       1.0  0.54549  0.65675  0.07747  1.0000 0.1079789548
H   H47       1.0  0.41536  0.38576  0.84232  1.0000 0.0902239693
H   H48       1.0  0.58464  0.61424  0.15768  1.0000 0.0902239693
H   H49       1.0  0.24528  0.03454  0.01326  1.0000 0.0999487675
H   H50       1.0  0.75472  0.96546  0.98674  1.0000 0.0999487675
H   H51       1.0  0.21642  0.95003  0.98745  1.0000 0.0902239693
H   H52       1.0  0.78358  0.04997  0.01255  1.0000 0.0902239693
H   H53       1.0  0.35551  0.65588  0.09310  1.0000 0.0902239693
H   H54       1.0  0.64449  0.34412  0.90690  1.0000 0.0902239693
H   H55       1.0  0.37418  0.62184  0.17816  1.0000 0.0819687153
H   H56       1.0  0.62582  0.37816  0.82184  1.0000 0.0819687153
H   H57       1.0  0.19497  0.03705  0.88359  1.0000 0.1079789548
H   H58       1.0  0.80503  0.96295  0.11641  1.0000 0.1079789548
H   H59       1.0  0.30286  0.96765  0.86888  1.0000 0.1079789548
H   H60       1.0  0.69714  0.03235  0.13112  1.0000 0.1079789548
H   H61       1.0  0.30154  0.50462  0.15039  1.0000 0.0999487675
H   H62       1.0  0.69846  0.49538  0.84961  1.0000 0.0999487675
H   H63       1.0  0.21510  0.59095  0.13929  1.0000 0.1079789548
H   H64       1.0  0.78490  0.40905  0.86071  1.0000 0.1079789548
H   H65       1.0  0.69595  0.86625  0.08337  1.0000 0.0902239693
H   H66       1.0  0.30405  0.13375  0.91663  1.0000 0.0902239693
H   H67       1.0  0.67810  0.89307  0.16895  1.0000 0.0902239693
H   H68       1.0  0.32190  0.10693  0.83105  1.0000 0.0902239693
H   H69       1.0  0.19378  0.50880  0.04323  1.0000 0.0902239693
H   H70       1.0  0.80622  0.49120  0.95677  1.0000 0.0902239693
H   H71       1.0  0.24426  0.58240  0.00730  1.0000 0.0999487675
H   H72       1.0  0.75574  0.41760  0.99270  1.0000 0.0999487675
C   C1        1.0  0.64210  0.57610  0.40810  1.0000 -0.1482701284
C   C2        1.0  0.35790  0.42390  0.59190  1.0000 -0.1482701284
C   C3        1.0  0.28580  0.49650  0.54830  1.0000 -0.1262635906
C   C4        1.0  0.71420  0.50350  0.45170  1.0000 -0.1262635906
C   C5        1.0  0.28290  0.59310  0.43730  1.0000 -0.0817698049
C   C6        1.0  0.71710  0.40690  0.56270  1.0000 -0.0817698049
C   C7        1.0  0.33770  0.61310  0.36270  1.0000 -0.277948374
C   C8        1.0  0.66230  0.38690  0.63730  1.0000 -0.277948374
C   C9        1.0  0.44850  0.63250  0.37190  1.0000 -0.1006753893
C   C10       1.0  0.55150  0.36750  0.62810  1.0000 -0.1006753893
C   C11       1.0  0.49060  0.87390  0.11480  1.0000 -0.1403611918
C   C12       1.0  0.50940  0.12610  0.88520  1.0000 -0.1403611918
C   C13       1.0  0.32770  0.44600  0.93080  1.0000 -0.1222792027
C   C14       1.0  0.67230  0.55400  0.06920  1.0000 -0.1222792027
C   C15       1.0  0.37400  0.90240  0.08620  1.0000 -0.1262635906
C   C16       1.0  0.62600  0.09760  0.91380  1.0000 -0.1262635906
C   C17       1.0  0.42950  0.39740  0.89490  1.0000 -0.1482701284
C   C18       1.0  0.57050  0.60260  0.10510  1.0000 -0.1482701284
C   C19       1.0  0.26920  0.98570  0.98110  1.0000 -0.0817698049
C   C20       1.0  0.73080  0.01430  0.01890  1.0000 -0.0817698049
C   C21       1.0  0.37290  0.60450  0.12560  1.0000 -0.1006753893
C   C22       1.0  0.62710  0.39550  0.87440  1.0000 -0.1006753893
C   C23       1.0  0.27040  0.01600  0.89990  1.0000 -0.2414018196
C   C24       1.0  0.72960  0.98400  0.10010  1.0000 -0.2414018196
C   C25       1.0  0.28250  0.55630  0.11840  1.0000 -0.2414018196
C   C26       1.0  0.71750  0.44370  0.88160  1.0000 -0.2414018196
C   C27       1.0  0.66640  0.91370  0.11610  1.0000 -0.0817698049
C   C28       1.0  0.33360  0.08630  0.88390  1.0000 -0.0817698049
C   C29       1.0  0.25910  0.53200  0.04110  1.0000 -0.064622162
C   C30       1.0  0.74090  0.46800  0.95890  1.0000 -0.064622162
N   N1        1.0  0.52960  0.55810  0.40050  1.0000 -0.3513681237
N   N2        1.0  0.47040  0.44190  0.59950  1.0000 -0.3513681237
N   N3        1.0  0.34030  0.51340  0.47580  1.0000 -0.3392700697
N   N4        1.0  0.65970  0.48660  0.52420  1.0000 -0.3392700697
N   N5        1.0  0.54700  0.94290  0.10300  1.0000 -0.3392700697
N   N6        1.0  0.45300  0.05710  0.89700  1.0000 -0.3392700697
N   N7        1.0  0.35160  0.46840  0.00940  1.0000 -0.3239532356
N   N8        1.0  0.64840  0.53160  0.99060  1.0000 -0.3239532356
N   N9        1.0  0.37770  0.93710  0.00650  1.0000 -0.3392700697
N   N10       1.0  0.62230  0.06290  0.99350  1.0000 -0.3392700697
N   N11       1.0  0.48610  0.55370  0.10390  1.0000 -0.3281956558
N   N12       1.0  0.51390  0.44630  0.89610  1.0000 -0.3281956558
O   O1        1.0  0.38830  0.11210  0.05950  1.0000 -0.7719100659
O   O2        1.0  0.61170  0.88790  0.94050  1.0000 -0.7719100659
O   O3        1.0  0.46880  0.21530  0.45980  1.0000 -0.8702029928
O   O4        1.0  0.53120  0.78470  0.54020  1.0000 -0.8702029928
O   O5        1.0  0.54200  0.36430  0.44120  1.0000 -0.7607250755
O   O6        1.0  0.45800  0.63570  0.55880  1.0000 -0.7607250755
O   O7        1.0  0.62640  0.14140  0.35460  1.0000 -0.8361177091
O   O8        1.0  0.37360  0.85860  0.64540  1.0000 -0.8361177091
O   O9        1.0  0.67970  0.29530  0.33040  1.0000 -0.8015336488
O   O10       1.0  0.32030  0.70470  0.66960  1.0000 -0.8015336488
O   O11       1.0  0.62900  0.18230  0.19820  1.0000 -0.8015336488
O   O12       1.0  0.37100  0.81770  0.80180  1.0000 -0.8015336488
O   O13       1.0  0.23220  0.19790  0.15800  1.0000 -0.8751935904
O   O14       1.0  0.76780  0.80210  0.84200  1.0000 -0.8702029928
O   O15       1.0  0.30950  0.34290  0.14930  1.0000 -0.820326144
O   O16       1.0  0.69050  0.65710  0.85070  1.0000 -0.820326144
O   O17       1.0  0.51950  0.34410  0.19350  1.0000 -0.8898522799
O   O18       1.0  0.48050  0.65590  0.80650  1.0000 -0.8898522799
O   O19       1.0  0.49180  0.24230  0.07000  1.0000 -0.8898522799
O   O20       1.0  0.50820  0.75770  0.93000  1.0000 -0.8898522799
O   O21       1.0  0.59410  0.37030  0.04490  1.0000 -0.742456371
O   O22       1.0  0.40590  0.62970  0.95510  1.0000 -0.742456371
O   O23       1.0  0.72750  0.32070  0.16310  1.0000 -0.8535451834
O   O24       1.0  0.27250  0.67930  0.83690  1.0000 -0.8535451834
O   O25       1.0  0.47290  0.27010  0.32310  1.0000 -1.0517526214
O   O26       1.0  0.52710  0.72990  0.67690  1.0000 -1.0517526214
O   O27       1.0  0.39970  0.12960  0.33320  1.0000 -1.0134254043
O   O28       1.0  0.60030  0.87040  0.66680  1.0000 -1.0134254043
O   O29       1.0  0.27350  0.28190  0.29790  1.0000 -0.9685696904
O   O30       1.0  0.72650  0.71810  0.70210  1.0000 -0.9685696904
O   O31       1.0  0.41910  0.19430  0.20290  1.0000 -1.0652410333
O   O32       1.0  0.58090  0.80570  0.79710  1.0000 -1.0635805671
