# DDEC6 charges by PACMAN v1.1 (https://github.com/mtap-research/PACMAN-charge/)
data_2023[Tb][kgd]2[ASR]1
_chemical_formula_sum              "Tb4 H60 C108 O24"
_cell_length_a       15.0687
_cell_length_b       15.147
_cell_length_c       17.3697
_cell_angle_alpha    81.785
_cell_angle_beta     70.498
_cell_angle_gamma    73.508

_symmetry_space_group_name_H-M    "P 1"
_symmetry_Int_Tables_number       1

loop_
  _symmetry_equiv_pos_as_xyz
  'x, y, z'

loop_
  _atom_site_type_symbol
  _atom_site_label
  _atom_site_symmetry_multiplicity
  _atom_site_fract_x
  _atom_site_fract_y
  _atom_site_fract_z
  _atom_site_occupancy
  _atom_site_charge
Tb  Tb1       1.0  0.12009  0.45641  0.04886  1.0000 2.0084182778
Tb  Tb2       1.0  0.87991  0.54359  0.95114  1.0000 2.0084182778
Tb  Tb3       1.0  0.63714  0.45722  0.52012  1.0000 2.0084182778
Tb  Tb4       1.0  0.36286  0.54278  0.47988  1.0000 2.0084182778
H   H1        1.0  0.16874  0.20661  0.25145  1.0000 0.1194619968
H   H2        1.0  0.83126  0.79339  0.74855  1.0000 0.1194619968
H   H3        1.0  0.20667  0.12730  0.36580  1.0000 0.1096671072
H   H4        1.0  0.79333  0.87270  0.63420  1.0000 0.1096671072
H   H5        1.0  0.24074  0.35921  0.42919  1.0000 0.1194619968
H   H6        1.0  0.75926  0.64079  0.57081  1.0000 0.1194619968
H   H7        1.0  0.19704  0.44001  0.31752  1.0000 0.1292000608
H   H8        1.0  0.80296  0.55999  0.68248  1.0000 0.1292000608
H   H9        1.0  0.55468  0.77416  0.58534  1.0000 0.1194619968
H   H10       1.0  0.44532  0.22584  0.41466  1.0000 0.1194619968
H   H11       1.0  0.47264  0.92929  0.60125  1.0000 0.1096671072
H   H12       1.0  0.52736  0.07071  0.39875  1.0000 0.1096671072
H   H13       1.0  0.32161  0.90995  0.45359  1.0000 0.1096671072
H   H14       1.0  0.67839  0.09005  0.54641  1.0000 0.1096671072
H   H15       1.0  0.40156  0.75492  0.43856  1.0000 0.1292000608
H   H16       1.0  0.59844  0.24508  0.56144  1.0000 0.1292000608
H   H17       1.0  0.25682  0.42440  0.74145  1.0000 0.1292000608
H   H18       1.0  0.74318  0.57560  0.25855  1.0000 0.1292000608
H   H19       1.0  0.28628  0.34570  0.62647  1.0000 0.1194619968
H   H20       1.0  0.71372  0.65430  0.37353  1.0000 0.1194619968
H   H21       1.0  0.25210  0.11485  0.76987  1.0000 0.1096671072
H   H22       1.0  0.74790  0.88515  0.23013  1.0000 0.1096671072
H   H23       1.0  0.22970  0.19162  0.88407  1.0000 0.1096671072
H   H24       1.0  0.77030  0.80838  0.11593  1.0000 0.1096671072
H   H25       1.0  0.31464  0.05742  0.42629  1.0000 0.1096671072
H   H26       1.0  0.68536  0.94258  0.57371  1.0000 0.1096671072
H   H27       1.0  0.34721  0.04647  0.64973  1.0000 0.1096671072
H   H28       1.0  0.65279  0.95353  0.35027  1.0000 0.1096671072
H   H29       1.0  0.21606  0.28801  0.55366  1.0000 0.1194619968
H   H30       1.0  0.78394  0.71199  0.44634  1.0000 0.1194619968
H   H31       1.0  0.70351  0.20549  0.70851  1.0000 0.1194619968
H   H32       1.0  0.29649  0.79451  0.29149  1.0000 0.1194619968
H   H33       1.0  0.73241  0.12662  0.82602  1.0000 0.1096671072
H   H34       1.0  0.26759  0.87338  0.17398  1.0000 0.1096671072
H   H35       1.0  0.78965  0.35109  0.88188  1.0000 0.1194619968
H   H36       1.0  0.21035  0.64891  0.11812  1.0000 0.1194619968
H   H37       1.0  0.76006  0.43017  0.76437  1.0000 0.1292000608
H   H38       1.0  0.23994  0.56983  0.23563  1.0000 0.1292000608
H   H39       1.0  0.91927  0.75061  0.92684  1.0000 0.1292000608
H   H40       1.0  0.08073  0.24939  0.07316  1.0000 0.1292000608
H   H41       1.0  0.84297  0.90720  0.92687  1.0000 0.1194619968
H   H42       1.0  0.15703  0.09280  0.07313  1.0000 0.1194619968
H   H43       1.0  0.95609  0.93734  0.09955  1.0000 0.1096671072
H   H44       1.0  0.04391  0.06266  0.90045  1.0000 0.1096671072
H   H45       1.0  0.03341  0.78062  0.09882  1.0000 0.1194619968
H   H46       1.0  0.96659  0.21938  0.90118  1.0000 0.1194619968
H   H47       1.0  0.73557  0.43604  0.21303  1.0000 0.1292000608
H   H48       1.0  0.26443  0.56396  0.78697  1.0000 0.1292000608
H   H49       1.0  0.76976  0.35597  0.09783  1.0000 0.1194619968
H   H50       1.0  0.23024  0.64403  0.90217  1.0000 0.1194619968
H   H51       1.0  0.71821  0.13033  0.24270  1.0000 0.1096671072
H   H52       1.0  0.28179  0.86967  0.75730  1.0000 0.1096671072
H   H53       1.0  0.69718  0.20722  0.35675  1.0000 0.1096671072
H   H54       1.0  0.30282  0.79278  0.64325  1.0000 0.1096671072
H   H55       1.0  0.83826  0.05315  0.89655  1.0000 0.1096671072
H   H56       1.0  0.16174  0.94685  0.10345  1.0000 0.1096671072
H   H57       1.0  0.82641  0.05622  0.13221  1.0000 0.1096671072
H   H58       1.0  0.17359  0.94378  0.86779  1.0000 0.1096671072
H   H59       1.0  0.72655  0.29259  0.01215  1.0000 0.1194619968
H   H60       1.0  0.27345  0.70741  0.98785  1.0000 0.1194619968
C   C1        1.0  0.15900  0.38060  0.19670  1.0000 0.5602800408
C   C2        1.0  0.84100  0.61940  0.80330  1.0000 0.5602800408
C   C3        1.0  0.18050  0.33090  0.27200  1.0000 -0.0184263993
C   C4        1.0  0.81950  0.66910  0.72800  1.0000 -0.0184263993
C   C5        1.0  0.18310  0.23800  0.28760  1.0000 -0.0984086659
C   C6        1.0  0.81690  0.76200  0.71240  1.0000 -0.0984086659
C   C7        1.0  0.20640  0.19070  0.35550  1.0000 -0.157473762
C   C8        1.0  0.79360  0.80930  0.64450  1.0000 -0.157473762
C   C9        1.0  0.22960  0.23450  0.40900  1.0000 0.0627241888
C   C10       1.0  0.77040  0.76550  0.59100  1.0000 0.0627241888
C   C11       1.0  0.22580  0.32780  0.39340  1.0000 -0.1376047107
C   C12       1.0  0.77420  0.67220  0.60660  1.0000 -0.1376047107
C   C13       1.0  0.20060  0.37590  0.32640  1.0000 -0.0819252261
C   C14       1.0  0.79940  0.62410  0.67360  1.0000 -0.0819252261
C   C15       1.0  0.53470  0.64920  0.50610  1.0000 0.6093095103
C   C16       1.0  0.46530  0.35080  0.49390  1.0000 0.6093095103
C   C17       1.0  0.48580  0.74930  0.51080  1.0000 -0.037030696
C   C18       1.0  0.51420  0.25070  0.48920  1.0000 -0.037030696
C   C19       1.0  0.50690  0.80170  0.55870  1.0000 -0.089190671
C   C20       1.0  0.49310  0.19830  0.44130  1.0000 -0.089190671
C   C21       1.0  0.45830  0.89440  0.56780  1.0000 -0.157473762
C   C22       1.0  0.54170  0.10560  0.43220  1.0000 -0.157473762
C   C23       1.0  0.38920  0.93670  0.52880  1.0000 0.07016036
C   C24       1.0  0.61080  0.06330  0.47120  1.0000 0.07016036
C   C25       1.0  0.36900  0.88250  0.48060  1.0000 -0.1464989028
C   C26       1.0  0.63100  0.11750  0.51940  1.0000 -0.1464989028
C   C27       1.0  0.41630  0.79020  0.47150  1.0000 -0.0819252261
C   C28       1.0  0.58370  0.20980  0.52850  1.0000 -0.0819252261
C   C29       1.0  0.21460  0.36760  0.89980  1.0000 0.5718894163
C   C30       1.0  0.78540  0.63240  0.10020  1.0000 0.5718894163
C   C31       1.0  0.23860  0.31690  0.82440  1.0000 -0.0184263993
C   C32       1.0  0.76140  0.68310  0.17560  1.0000 -0.0184263993
C   C33       1.0  0.25600  0.36130  0.74740  1.0000 -0.0819252261
C   C34       1.0  0.74400  0.63870  0.25260  1.0000 -0.0819252261
C   C35       1.0  0.27230  0.31470  0.67900  1.0000 -0.1376047107
C   C36       1.0  0.72770  0.68530  0.32100  1.0000 -0.1376047107
C   C37       1.0  0.26850  0.22300  0.68600  1.0000 0.07016036
C   C38       1.0  0.73150  0.77700  0.31400  1.0000 0.07016036
C   C39       1.0  0.25300  0.17790  0.76380  1.0000 -0.157473762
C   C40       1.0  0.74700  0.82210  0.23620  1.0000 -0.157473762
C   C41       1.0  0.23900  0.22360  0.83200  1.0000 -0.0984086659
C   C42       1.0  0.76100  0.77640  0.16800  1.0000 -0.0984086659
C   C43       1.0  0.26000  0.18140  0.47880  1.0000 0.0818426646
C   C44       1.0  0.74000  0.81860  0.52120  1.0000 0.0818426646
C   C45       1.0  0.30560  0.08720  0.47390  1.0000 -0.2068475824
C   C46       1.0  0.69440  0.91280  0.52610  1.0000 -0.2014377019
C   C47       1.0  0.33830  0.03580  0.53710  1.0000 0.0818426646
C   C48       1.0  0.66170  0.96420  0.46290  1.0000 0.0818426646
C   C49       1.0  0.32540  0.08060  0.60630  1.0000 -0.2014377019
C   C50       1.0  0.67460  0.91940  0.39370  1.0000 -0.2014377019
C   C51       1.0  0.28090  0.17470  0.61280  1.0000 0.0865472712
C   C52       1.0  0.71910  0.82530  0.38720  1.0000 0.0865472712
C   C53       1.0  0.24760  0.22420  0.54900  1.0000 -0.1834440893
C   C54       1.0  0.75240  0.77580  0.45100  1.0000 -0.1834440893
C   C55       1.0  0.70730  0.37450  0.64950  1.0000 0.5602800408
C   C56       1.0  0.29270  0.62550  0.35050  1.0000 0.5602800408
C   C57       1.0  0.72760  0.32610  0.72540  1.0000 -0.0184263993
C   C58       1.0  0.27240  0.67390  0.27460  1.0000 -0.0184263993
C   C59       1.0  0.72040  0.23540  0.74410  1.0000 -0.0984086659
C   C60       1.0  0.27960  0.76460  0.25590  1.0000 -0.0984086659
C   C61       1.0  0.73770  0.18850  0.81390  1.0000 -0.157473762
C   C62       1.0  0.26230  0.81150  0.18610  1.0000 -0.157473762
C   C63       1.0  0.76270  0.23100  0.86690  1.0000 0.0627241888
C   C64       1.0  0.23730  0.76900  0.13310  1.0000 0.0627241888
C   C65       1.0  0.77150  0.32150  0.84690  1.0000 -0.1376047107
C   C66       1.0  0.22850  0.67850  0.15310  1.0000 -0.1376047107
C   C67       1.0  0.75400  0.36860  0.77710  1.0000 -0.0819252261
C   C68       1.0  0.24600  0.63140  0.22290  1.0000 -0.0819252261
C   C69       1.0  0.02800  0.64860  0.01730  1.0000 0.6093095103
C   C70       1.0  0.97200  0.35140  0.98270  1.0000 0.6093095103
C   C71       1.0  0.98220  0.74960  0.01360  1.0000 -0.0349073792
C   C72       1.0  0.01780  0.25040  0.98640  1.0000 -0.0349073792
C   C73       1.0  0.92650  0.78840  0.96240  1.0000 -0.0819252261
C   C74       1.0  0.07350  0.21160  0.03760  1.0000 -0.0819252261
C   C75       1.0  0.88110  0.88170  0.96240  1.0000 -0.1464989028
C   C76       1.0  0.11890  0.11830  0.03760  1.0000 -0.1464989028
C   C77       1.0  0.89070  0.93860  0.01390  1.0000 0.07016036
C   C78       1.0  0.10930  0.06140  0.98610  1.0000 0.07016036
C   C79       1.0  0.94820  0.89950  0.06440  1.0000 -0.157473762
C   C80       1.0  0.05180  0.10050  0.93560  1.0000 -0.157473762
C   C81       1.0  0.99400  0.80610  0.06430  1.0000 -0.089190671
C   C82       1.0  0.00600  0.19390  0.93570  1.0000 -0.089190671
C   C83       1.0  0.70020  0.37680  0.36990  1.0000 0.5756836691
C   C84       1.0  0.29980  0.62320  0.63010  1.0000 0.5756836691
C   C85       1.0  0.71560  0.32870  0.29580  1.0000 -0.0184263993
C   C86       1.0  0.28440  0.67130  0.70420  1.0000 -0.0184263993
C   C87       1.0  0.73510  0.37280  0.21890  1.0000 -0.0819252261
C   C88       1.0  0.26490  0.62720  0.78110  1.0000 -0.0819252261
C   C89       1.0  0.75380  0.32560  0.15050  1.0000 -0.1376047107
C   C90       1.0  0.24620  0.67440  0.84950  1.0000 -0.1376047107
C   C91       1.0  0.74940  0.23390  0.15790  1.0000 0.07016036
C   C92       1.0  0.25060  0.76610  0.84210  1.0000 0.07016036
C   C93       1.0  0.72500  0.19170  0.23600  1.0000 -0.157473762
C   C94       1.0  0.27500  0.80830  0.76400  1.0000 -0.157473762
C   C95       1.0  0.71060  0.23800  0.30410  1.0000 -0.089190671
C   C96       1.0  0.28940  0.76200  0.69590  1.0000 -0.089190671
C   C97       1.0  0.77940  0.18090  0.94270  1.0000 0.0818426646
C   C98       1.0  0.22060  0.81910  0.05730  1.0000 0.0818426646
C   C99       1.0  0.82210  0.08590  0.94410  1.0000 -0.2068475824
C   C100      1.0  0.17790  0.91410  0.05590  1.0000 -0.2068475824
C   C101      1.0  0.84140  0.03870  0.01420  1.0000 0.0818426646
C   C102      1.0  0.15860  0.96130  0.98580  1.0000 0.0818426646
C   C103      1.0  0.81530  0.08800  0.08370  1.0000 -0.2014377019
C   C104      1.0  0.18470  0.91200  0.91630  1.0000 -0.2014377019
C   C105      1.0  0.77320  0.18250  0.08390  1.0000 0.0865472712
C   C106      1.0  0.22680  0.81750  0.91610  1.0000 0.0865472712
C   C107      1.0  0.75550  0.22810  0.01270  1.0000 -0.1834440893
C   C108      1.0  0.24450  0.77190  0.98730  1.0000 -0.1834440893
O   O1        1.0  0.14770  0.46580  0.18470  1.0000 -0.6178813717
O   O2        1.0  0.85230  0.53420  0.81530  1.0000 -0.6178813717
O   O3        1.0  0.15490  0.33270  0.14380  1.0000 -0.6652840218
O   O4        1.0  0.84510  0.66730  0.85620  1.0000 -0.6652840218
O   O5        1.0  0.49740  0.59360  0.48574  1.0000 -0.7200498572
O   O6        1.0  0.50260  0.40640  0.51426  1.0000 -0.7200498572
O   O7        1.0  0.61330  0.61900  0.52340  1.0000 -0.6289011976
O   O8        1.0  0.38670  0.38100  0.47660  1.0000 -0.6289011976
O   O9        1.0  0.22280  0.32360  0.96520  1.0000 -0.6178813717
O   O10       1.0  0.77720  0.67640  0.03480  1.0000 -0.6178813717
O   O11       1.0  0.18150  0.45470  0.89736  1.0000 -0.6399770817
O   O12       1.0  0.81850  0.54530  0.10264  1.0000 -0.6399770817
O   O13       1.0  0.70530  0.45890  0.63380  1.0000 -0.6289011976
O   O14       1.0  0.29470  0.54110  0.36620  1.0000 -0.6289011976
O   O15       1.0  0.69170  0.32930  0.60200  1.0000 -0.6455645403
O   O16       1.0  0.30830  0.67070  0.39800  1.0000 -0.6455645403
O   O17       1.0  0.99630  0.59310  0.99095  1.0000 -0.7200498572
O   O18       1.0  0.00370  0.40690  0.00905  1.0000 -0.7200498572
O   O19       1.0  0.09540  0.61820  0.04820  1.0000 -0.6178813717
O   O20       1.0  0.90460  0.38180  0.95180  1.0000 -0.6178813717
O   O21       1.0  0.71670  0.32990  0.43175  1.0000 -0.6137434682
O   O22       1.0  0.28330  0.67010  0.56825  1.0000 -0.6137434682
O   O23       1.0  0.66890  0.46410  0.37118  1.0000 -0.6399770817
O   O24       1.0  0.33110  0.53590  0.62882  1.0000 -0.6399770817
