# DDEC6 charges by PACMAN v1.1 (https://github.com/mtap-research/PACMAN-charge/)
data_2023[Ni][nan]3[ASR]3
_chemical_formula_sum              "Ni4 H40 C72 N24 O16"
_cell_length_a       16.4573
_cell_length_b       16.4573
_cell_length_c       14.6993
_cell_angle_alpha    84.4924
_cell_angle_beta     95.5076
_cell_angle_gamma    47.7659

_symmetry_space_group_name_H-M    "P 1"
_symmetry_Int_Tables_number       1

loop_
  _symmetry_equiv_pos_as_xyz
  'x, y, z'

loop_
  _atom_site_type_symbol
  _atom_site_label
  _atom_site_symmetry_multiplicity
  _atom_site_fract_x
  _atom_site_fract_y
  _atom_site_fract_z
  _atom_site_occupancy
  _atom_site_charge
Ni  Ni1       1.0  0.00000  0.50000  0.00000  1.0000 0.7052605911
Ni  Ni2       1.0  0.50000  0.00000  0.50000  1.0000 0.7024368409
Ni  Ni3       1.0  0.54114  0.54114  0.75000  1.0000 0.7024368409
Ni  Ni4       1.0  0.45886  0.45886  0.25000  1.0000 0.7024368409
H   H1        1.0  0.76480  0.83200  0.56230  1.0000 0.1401352163
H   H2        1.0  0.83200  0.76480  0.93770  1.0000 0.1401352163
H   H3        1.0  0.23520  0.16800  0.43770  1.0000 0.1401352163
H   H4        1.0  0.16800  0.23520  0.06230  1.0000 0.1401352163
H   H5        1.0  0.59330  0.98070  0.30730  1.0000 0.1186038465
H   H6        1.0  0.98070  0.59330  0.19270  1.0000 0.1186038465
H   H7        1.0  0.40670  0.01930  0.69270  1.0000 0.1186038465
H   H8        1.0  0.01930  0.40670  0.80730  1.0000 0.1186038465
H   H9        1.0  0.96500  0.72560  0.33530  1.0000 0.1489883218
H   H10       1.0  0.72560  0.96500  0.16470  1.0000 0.1489883218
H   H11       1.0  0.03500  0.27440  0.66470  1.0000 0.1489883218
H   H12       1.0  0.27440  0.03500  0.83530  1.0000 0.1489883218
H   H13       1.0  0.24760  0.54000  0.54080  1.0000 0.1401352163
H   H14       1.0  0.54000  0.24760  0.95920  1.0000 0.1401352163
H   H15       1.0  0.75240  0.46000  0.45920  1.0000 0.1401352163
H   H16       1.0  0.46000  0.75240  0.04080  1.0000 0.1401352163
H   H17       1.0  0.94010  0.74510  0.60560  1.0000 0.1286191306
H   H18       1.0  0.74510  0.94010  0.89440  1.0000 0.1286191306
H   H19       1.0  0.05990  0.25490  0.39440  1.0000 0.1286191306
H   H20       1.0  0.25490  0.05990  0.10560  1.0000 0.1286191306
H   H21       1.0  0.28950  0.49090  0.94790  1.0000 0.1186038465
H   H22       1.0  0.49090  0.28950  0.55210  1.0000 0.1186038465
H   H23       1.0  0.71050  0.50910  0.05210  1.0000 0.1186038465
H   H24       1.0  0.50910  0.71050  0.44790  1.0000 0.1186038465
H   H25       1.0  0.28410  0.58670  0.68190  1.0000 0.1286191306
H   H26       1.0  0.58670  0.28410  0.81810  1.0000 0.1286191306
H   H27       1.0  0.71590  0.41330  0.31810  1.0000 0.1286191306
H   H28       1.0  0.41330  0.71590  0.18190  1.0000 0.1286191306
H   H29       1.0  0.04040  0.59880  0.73460  1.0000 0.1186038465
H   H30       1.0  0.59880  0.04040  0.76540  1.0000 0.1186038465
H   H31       1.0  0.95960  0.40120  0.26540  1.0000 0.1186038465
H   H32       1.0  0.40120  0.95960  0.23460  1.0000 0.1186038465
H   H33       1.0  0.33180  0.53200  0.41950  1.0000 0.1489883218
H   H34       1.0  0.53200  0.33180  0.08050  1.0000 0.1489883218
H   H35       1.0  0.66820  0.46800  0.58050  1.0000 0.1489883218
H   H36       1.0  0.46800  0.66820  0.91950  1.0000 0.1489883218
H   H37       1.0  0.22830  0.51590  0.17790  1.0000 0.1286191306
H   H38       1.0  0.51590  0.22830  0.32210  1.0000 0.1286191306
H   H39       1.0  0.77170  0.48410  0.82210  1.0000 0.1286191306
H   H40       1.0  0.48410  0.77170  0.67790  1.0000 0.1286191306
C   C1        1.0  0.74440  0.85580  0.49610  1.0000 0.0990709825
C   C2        1.0  0.85580  0.74440  0.00390  1.0000 0.0990709825
C   C3        1.0  0.25560  0.14420  0.50390  1.0000 0.0990709825
C   C4        1.0  0.14420  0.25560  0.99610  1.0000 0.0990709825
C   C5        1.0  0.65440  0.93500  0.36020  1.0000 0.1489883218
C   C6        1.0  0.93500  0.65440  0.13980  1.0000 0.1489883218
C   C7        1.0  0.34560  0.06500  0.63980  1.0000 0.1489883218
C   C8        1.0  0.06500  0.34560  0.86020  1.0000 0.1489883218
C   C9        1.0  0.93608  0.74548  0.46780  1.0000 0.1627219147
C   C10       1.0  0.74548  0.93608  0.03220  1.0000 0.1627219147
C   C11       1.0  0.06392  0.25452  0.53220  1.0000 0.1627219147
C   C12       1.0  0.25452  0.06392  0.96780  1.0000 0.1627219147
C   C13       1.0  0.99942  0.70342  0.39970  1.0000 -0.2393351035
C   C14       1.0  0.70342  0.99942  0.10030  1.0000 -0.2393351035
C   C15       1.0  0.00058  0.29658  0.60030  1.0000 -0.2393351035
C   C16       1.0  0.29658  0.00058  0.89970  1.0000 -0.2393351035
C   C17       1.0  0.11492  0.62792  0.43020  1.0000 0.1627219147
C   C18       1.0  0.62792  0.11492  0.06980  1.0000 0.1627219147
C   C19       1.0  0.88508  0.37208  0.56980  1.0000 0.1627219147
C   C20       1.0  0.37208  0.88508  0.93020  1.0000 0.1627219147
C   C21       1.0  0.16781  0.59261  0.52310  1.0000 -0.2296172591
C   C22       1.0  0.59261  0.16781  0.97690  1.0000 -0.2296172591
C   C23       1.0  0.83219  0.40739  0.47690  1.0000 -0.2296172591
C   C24       1.0  0.40739  0.83219  0.02310  1.0000 -0.2296172591
C   C25       1.0  0.10321  0.63481  0.59140  1.0000 0.1286191306
C   C26       1.0  0.63481  0.10321  0.90860  1.0000 0.1286191306
C   C27       1.0  0.89679  0.36519  0.40860  1.0000 0.1286191306
C   C28       1.0  0.36519  0.89679  0.09140  1.0000 0.1286191306
C   C29       1.0  0.98586  0.71346  0.56100  1.0000 -0.2594807879
C   C30       1.0  0.71346  0.98586  0.93900  1.0000 -0.2594807879
C   C31       1.0  0.01414  0.28654  0.43900  1.0000 -0.2594807879
C   C32       1.0  0.28654  0.01414  0.06100  1.0000 -0.2594807879
C   C33       1.0  0.09859  0.53119  0.91460  1.0000 0.5245771124
C   C34       1.0  0.53119  0.09859  0.58540  1.0000 0.5245771124
C   C35       1.0  0.90141  0.46881  0.08540  1.0000 0.5245771124
C   C36       1.0  0.46881  0.90141  0.41460  1.0000 0.5245771124
C   C37       1.0  0.15554  0.54514  0.85130  1.0000 -0.0099867104
C   C38       1.0  0.54514  0.15554  0.64870  1.0000 -0.0099867104
C   C39       1.0  0.84446  0.45486  0.14870  1.0000 -0.0099867104
C   C40       1.0  0.45486  0.84446  0.35130  1.0000 -0.0099867104
C   C41       1.0  0.25428  0.51988  0.88320  1.0000 -0.1346167872
C   C42       1.0  0.51988  0.25428  0.61680  1.0000 -0.1346167872
C   C43       1.0  0.74572  0.48012  0.11680  1.0000 -0.1346167872
C   C44       1.0  0.48012  0.74572  0.38320  1.0000 -0.1346167872
C   C45       1.0  0.30035  0.53775  0.81950  1.0000 -0.0099867104
C   C46       1.0  0.53775  0.30035  0.68050  1.0000 -0.0099867104
C   C47       1.0  0.69965  0.46225  0.18050  1.0000 -0.0099867104
C   C48       1.0  0.46225  0.69965  0.31950  1.0000 -0.0099867104
C   C49       1.0  0.25152  0.57532  0.72510  1.0000 -0.1376756118
C   C50       1.0  0.57532  0.25152  0.77490  1.0000 -0.1376756118
C   C51       1.0  0.74848  0.42468  0.27490  1.0000 -0.1376756118
C   C52       1.0  0.42468  0.74848  0.22510  1.0000 -0.1376756118
C   C53       1.0  0.15470  0.59710  0.69240  1.0000 0.0578480227
C   C54       1.0  0.59710  0.15470  0.80760  1.0000 0.0578480227
C   C55       1.0  0.84530  0.40290  0.30760  1.0000 0.0578480227
C   C56       1.0  0.40290  0.84530  0.19240  1.0000 0.0578480227
C   C57       1.0  0.10712  0.58272  0.75600  1.0000 -0.1579304175
C   C58       1.0  0.58272  0.10712  0.74400  1.0000 -0.1579304175
C   C59       1.0  0.89288  0.41728  0.24400  1.0000 -0.1579304175
C   C60       1.0  0.41728  0.89288  0.25600  1.0000 -0.1579304175
C   C61       1.0  0.28776  0.53756  0.36790  1.0000 0.1186038465
C   C62       1.0  0.53756  0.28776  0.13210  1.0000 0.1186038465
C   C63       1.0  0.71224  0.46244  0.63210  1.0000 0.1186038465
C   C64       1.0  0.46244  0.71224  0.86790  1.0000 0.1186038465
C   C65       1.0  0.22980  0.53020  0.23890  1.0000 0.1489883218
C   C66       1.0  0.53020  0.22980  0.26110  1.0000 0.1489883218
C   C67       1.0  0.77020  0.46980  0.76110  1.0000 0.1489883218
C   C68       1.0  0.46980  0.77020  0.73890  1.0000 0.1489883218
C   C69       1.0  0.40421  0.51761  0.84840  1.0000 0.5613889857
C   C70       1.0  0.51761  0.40421  0.65160  1.0000 0.5613889857
C   C71       1.0  0.59579  0.48239  0.15160  1.0000 0.5613889857
C   C72       1.0  0.48239  0.59579  0.34840  1.0000 0.5613889857
N   N1        1.0  0.81690  0.82270  0.44140  1.0000 0.1286191306
N   N2        1.0  0.82270  0.81690  0.05860  1.0000 0.1286191306
N   N3        1.0  0.18310  0.17730  0.55860  1.0000 0.1286191306
N   N4        1.0  0.17730  0.18310  0.94140  1.0000 0.1286191306
N   N5        1.0  0.64097  0.92577  0.44660  1.0000 -0.2844620781
N   N6        1.0  0.92577  0.64097  0.05340  1.0000 -0.2844620781
N   N7        1.0  0.35903  0.07423  0.55340  1.0000 -0.2844620781
N   N8        1.0  0.07423  0.35903  0.94660  1.0000 -0.2844620781
N   N9        1.0  0.76010  0.87510  0.35360  1.0000 -0.224544047
N   N10       1.0  0.87510  0.76010  0.14640  1.0000 -0.224544047
N   N11       1.0  0.23990  0.12490  0.64640  1.0000 -0.224544047
N   N12       1.0  0.12490  0.23990  0.85360  1.0000 -0.224544047
N   N13       1.0  0.18366  0.58046  0.36250  1.0000 0.1401352163
N   N14       1.0  0.58046  0.18366  0.13750  1.0000 0.1401352163
N   N15       1.0  0.81634  0.41954  0.63750  1.0000 0.1401352163
N   N16       1.0  0.41954  0.81634  0.86250  1.0000 0.1401352163
N   N17       1.0  0.31962  0.50422  0.29030  1.0000 -0.3120949702
N   N18       1.0  0.50422  0.31962  0.20970  1.0000 -0.3120949702
N   N19       1.0  0.68038  0.49578  0.70970  1.0000 -0.3120949702
N   N20       1.0  0.49578  0.68038  0.79030  1.0000 -0.3120949702
N   N21       1.0  0.14487  0.57647  0.27940  1.0000 -0.2296172591
N   N22       1.0  0.57647  0.14487  0.22060  1.0000 -0.2296172591
N   N23       1.0  0.85513  0.42353  0.72060  1.0000 -0.2296172591
N   N24       1.0  0.42353  0.85513  0.77940  1.0000 -0.2296172591
O   O1        1.0  0.99915  0.57435  0.88040  1.0000 -0.5468655066
O   O2        1.0  0.57435  0.99915  0.61960  1.0000 -0.5468655066
O   O3        1.0  0.00085  0.42565  0.11960  1.0000 -0.5468655066
O   O4        1.0  0.42565  0.00085  0.38040  1.0000 -0.5468655066
O   O5        1.0  0.14543  0.47643  0.99690  1.0000 -0.5231506364
O   O6        1.0  0.47643  0.14543  0.50310  1.0000 -0.5231506364
O   O7        1.0  0.85457  0.52357  0.00310  1.0000 -0.5231506364
O   O8        1.0  0.52357  0.85457  0.49690  1.0000 -0.5231506364
O   O9        1.0  0.40896  0.57836  0.79310  1.0000 -0.5438445644
O   O10       1.0  0.57836  0.40896  0.70690  1.0000 -0.5438445644
O   O11       1.0  0.59104  0.42164  0.20690  1.0000 -0.5438445644
O   O12       1.0  0.42164  0.59104  0.29310  1.0000 -0.5438445644
O   O13       1.0  0.47747  0.44427  0.91950  1.0000 -0.5621332364
O   O14       1.0  0.44427  0.47747  0.58050  1.0000 -0.5621332364
O   O15       1.0  0.52253  0.55573  0.08050  1.0000 -0.5621332364
O   O16       1.0  0.55573  0.52253  0.41950  1.0000 -0.5621332364
