# DDEC6 charges by PACMAN v1.1 (https://github.com/mtap-research/PACMAN-charge/)
data_2023[Co][sql]2[ASR]6
_chemical_formula_sum              "Co8 H32 C56 N24 O32"
_cell_length_a       7.0996
_cell_length_b       17.2791
_cell_length_c       17.487
_cell_angle_alpha    90
_cell_angle_beta     90
_cell_angle_gamma    90

_symmetry_space_group_name_H-M    "P 1"
_symmetry_Int_Tables_number       1

loop_
  _symmetry_equiv_pos_as_xyz
  'x, y, z'

loop_
  _atom_site_type_symbol
  _atom_site_label
  _atom_site_symmetry_multiplicity
  _atom_site_fract_x
  _atom_site_fract_y
  _atom_site_fract_z
  _atom_site_occupancy
  _atom_site_charge
Co  Co1       1.0  0.75000  0.29340  0.07428  1.0000 0.8202751204
Co  Co2       1.0  0.75000  0.79340  0.42572  1.0000 0.8202751204
Co  Co3       1.0  0.75000  0.39094  0.26027  1.0000 0.8202751204
Co  Co4       1.0  0.75000  0.89094  0.23973  1.0000 0.8202751204
Co  Co5       1.0  0.25000  0.20660  0.57428  1.0000 0.8202751204
Co  Co6       1.0  0.25000  0.70660  0.92572  1.0000 0.8202751204
Co  Co7       1.0  0.25000  0.10906  0.76027  1.0000 0.8202751204
Co  Co8       1.0  0.25000  0.60906  0.73973  1.0000 0.8202751204
H   H1        1.0  0.75000  0.43710  0.93490  1.0000 0.2742648646
H   H2        1.0  0.75000  0.93710  0.56510  1.0000 0.2742648646
H   H3        1.0  0.40860  0.18830  0.11760  1.0000 0.1375925168
H   H4        1.0  0.09140  0.68830  0.38240  1.0000 0.1375925168
H   H5        1.0  0.40860  0.68830  0.38240  1.0000 0.1375925168
H   H6        1.0  0.09140  0.18830  0.11760  1.0000 0.1375925168
H   H7        1.0  0.40960  0.39940  0.03870  1.0000 0.1224629804
H   H8        1.0  0.09040  0.89940  0.46130  1.0000 0.1224629804
H   H9        1.0  0.40960  0.89940  0.46130  1.0000 0.1224629804
H   H10       1.0  0.09040  0.39940  0.03870  1.0000 0.1224629804
H   H11       1.0  0.75000  0.26880  0.78730  1.0000 0.1589887515
H   H12       1.0  0.75000  0.76880  0.71270  1.0000 0.1589887515
H   H13       1.0  0.75000  0.07960  0.17560  1.0000 0.3125816211
H   H14       1.0  0.75000  0.57960  0.32440  1.0000 0.3125816211
H   H15       1.0  0.75000  0.14070  0.38960  1.0000 0.1589887515
H   H16       1.0  0.75000  0.64070  0.11040  1.0000 0.1589887515
H   H17       1.0  0.25000  0.06290  0.43490  1.0000 0.2742648646
H   H18       1.0  0.25000  0.56290  0.06510  1.0000 0.2742648646
H   H19       1.0  0.59140  0.31170  0.61760  1.0000 0.1375925168
H   H20       1.0  0.90860  0.81170  0.88240  1.0000 0.1375925168
H   H21       1.0  0.59140  0.81170  0.88240  1.0000 0.1375925168
H   H22       1.0  0.90860  0.31170  0.61760  1.0000 0.1375925168
H   H23       1.0  0.59040  0.10060  0.53870  1.0000 0.1224629804
H   H24       1.0  0.90960  0.60060  0.96130  1.0000 0.1224629804
H   H25       1.0  0.59040  0.60060  0.96130  1.0000 0.1224629804
H   H26       1.0  0.90960  0.10060  0.53870  1.0000 0.1224629804
H   H27       1.0  0.25000  0.23120  0.28730  1.0000 0.1589887515
H   H28       1.0  0.25000  0.73120  0.21270  1.0000 0.1589887515
H   H29       1.0  0.25000  0.42040  0.67560  1.0000 0.3125816211
H   H30       1.0  0.25000  0.92040  0.82440  1.0000 0.3125816211
H   H31       1.0  0.25000  0.35930  0.88960  1.0000 0.1589887515
H   H32       1.0  0.25000  0.85930  0.61040  1.0000 0.1589887515
C   C1        1.0  0.75000  0.19070  0.93970  1.0000 0.5496329888
C   C2        1.0  0.75000  0.69070  0.56030  1.0000 0.5496329888
C   C3        1.0  0.75000  0.21970  0.23780  1.0000 0.5575833842
C   C4        1.0  0.75000  0.71970  0.26220  1.0000 0.5575833842
C   C5        1.0  0.75000  0.26900  0.90600  1.0000 0.0413414414
C   C6        1.0  0.75000  0.76900  0.59400  1.0000 0.0413414414
C   C7        1.0  0.34540  0.23210  0.10030  1.0000 0.0413414414
C   C8        1.0  0.15460  0.73210  0.39970  1.0000 0.0413414414
C   C9        1.0  0.34540  0.73210  0.39970  1.0000 0.0413414414
C   C10       1.0  0.15460  0.23210  0.10030  1.0000 0.0413414414
C   C11       1.0  0.34640  0.35500  0.05440  1.0000 0.0462615601
C   C12       1.0  0.15360  0.85500  0.44560  1.0000 0.0462615601
C   C13       1.0  0.34640  0.85500  0.44560  1.0000 0.0462615601
C   C14       1.0  0.15360  0.35500  0.05440  1.0000 0.0462615601
C   C15       1.0  0.75000  0.13920  0.27100  1.0000 0.0706308279
C   C16       1.0  0.75000  0.63920  0.22900  1.0000 0.0706308279
C   C17       1.0  0.75000  0.37600  0.84030  1.0000 0.0413414414
C   C18       1.0  0.75000  0.87600  0.65970  1.0000 0.0413414414
C   C19       1.0  0.75000  0.29710  0.83250  1.0000 -0.2232817933
C   C20       1.0  0.75000  0.79710  0.66750  1.0000 -0.2232817933
C   C21       1.0  0.75000  0.11200  0.34450  1.0000 -0.2280920632
C   C22       1.0  0.75000  0.61200  0.15550  1.0000 -0.2280920632
C   C23       1.0  0.75000  0.43840  0.78250  1.0000 0.5328926518
C   C24       1.0  0.75000  0.93840  0.71750  1.0000 0.5328926518
C   C25       1.0  0.75000  0.03090  0.33660  1.0000 0.0706308279
C   C26       1.0  0.75000  0.53090  0.16340  1.0000 0.0706308279
C   C27       1.0  0.75000  0.96860  0.39430  1.0000 0.5575833842
C   C28       1.0  0.75000  0.46860  0.10570  1.0000 0.5575833842
C   C29       1.0  0.25000  0.30930  0.43970  1.0000 0.5496329888
C   C30       1.0  0.25000  0.80930  0.06030  1.0000 0.5496329888
C   C31       1.0  0.25000  0.28030  0.73780  1.0000 0.5575833842
C   C32       1.0  0.25000  0.78030  0.76220  1.0000 0.5575833842
C   C33       1.0  0.25000  0.23100  0.40600  1.0000 0.0413414414
C   C34       1.0  0.25000  0.73100  0.09400  1.0000 0.0413414414
C   C35       1.0  0.65460  0.26790  0.60030  1.0000 0.0413414414
C   C36       1.0  0.84540  0.76790  0.89970  1.0000 0.0413414414
C   C37       1.0  0.65460  0.76790  0.89970  1.0000 0.0413414414
C   C38       1.0  0.84540  0.26790  0.60030  1.0000 0.0413414414
C   C39       1.0  0.65360  0.14500  0.55440  1.0000 0.0462615601
C   C40       1.0  0.84640  0.64500  0.94560  1.0000 0.0462615601
C   C41       1.0  0.65360  0.64500  0.94560  1.0000 0.0462615601
C   C42       1.0  0.84640  0.14500  0.55440  1.0000 0.0462615601
C   C43       1.0  0.25000  0.36080  0.77100  1.0000 0.0706308279
C   C44       1.0  0.25000  0.86080  0.72900  1.0000 0.0706308279
C   C45       1.0  0.25000  0.12400  0.34030  1.0000 0.0413414414
C   C46       1.0  0.25000  0.62400  0.15970  1.0000 0.0413414414
C   C47       1.0  0.25000  0.20290  0.33250  1.0000 -0.2232817933
C   C48       1.0  0.25000  0.70290  0.16750  1.0000 -0.2232817933
C   C49       1.0  0.25000  0.38800  0.84450  1.0000 -0.2280920632
C   C50       1.0  0.25000  0.88800  0.65550  1.0000 -0.2280920632
C   C51       1.0  0.25000  0.06160  0.28250  1.0000 0.5328926518
C   C52       1.0  0.25000  0.56160  0.21750  1.0000 0.5328926518
C   C53       1.0  0.25000  0.46910  0.83660  1.0000 0.0706308279
C   C54       1.0  0.25000  0.96910  0.66340  1.0000 0.0706308279
C   C55       1.0  0.25000  0.53140  0.89430  1.0000 0.5575833842
C   C56       1.0  0.25000  0.03140  0.60570  1.0000 0.5575833842
N   N1        1.0  0.75000  0.32730  0.95710  1.0000 -0.2280920632
N   N2        1.0  0.75000  0.82730  0.54290  1.0000 -0.2280920632
N   N3        1.0  0.44720  0.29340  0.07620  1.0000 -0.1942793876
N   N4        1.0  0.05280  0.79340  0.42380  1.0000 -0.1942793876
N   N5        1.0  0.44720  0.79340  0.42380  1.0000 -0.1942793876
N   N6        1.0  0.05280  0.29340  0.07620  1.0000 -0.1942793876
N   N7        1.0  0.75000  0.39120  0.91580  1.0000 -0.0479004151
N   N8        1.0  0.75000  0.89120  0.58420  1.0000 -0.0479004151
N   N9        1.0  0.75000  0.01010  0.26390  1.0000 -0.2121190653
N   N10       1.0  0.75000  0.51010  0.23610  1.0000 -0.2121190653
N   N11       1.0  0.75000  0.07690  0.22470  1.0000 -0.0582941687
N   N12       1.0  0.75000  0.57690  0.27530  1.0000 -0.0582941687
N   N13       1.0  0.25000  0.17270  0.45710  1.0000 -0.2280920632
N   N14       1.0  0.25000  0.67270  0.04290  1.0000 -0.2280920632
N   N15       1.0  0.55280  0.20660  0.57620  1.0000 -0.1942793876
N   N16       1.0  0.94720  0.70660  0.92380  1.0000 -0.1942793876
N   N17       1.0  0.55280  0.70660  0.92380  1.0000 -0.1942793876
N   N18       1.0  0.94720  0.20660  0.57620  1.0000 -0.1942793876
N   N19       1.0  0.25000  0.10880  0.41580  1.0000 -0.0479004151
N   N20       1.0  0.25000  0.60880  0.08420  1.0000 -0.0479004151
N   N21       1.0  0.25000  0.48990  0.76390  1.0000 -0.2121190653
N   N22       1.0  0.25000  0.98990  0.73610  1.0000 -0.2121190653
N   N23       1.0  0.25000  0.42310  0.72470  1.0000 -0.0582941687
N   N24       1.0  0.25000  0.92310  0.77530  1.0000 -0.0582941687
O   O1        1.0  0.75000  0.18630  0.01130  1.0000 -0.5467903391
O   O2        1.0  0.75000  0.68630  0.48870  1.0000 -0.5467903391
O   O3        1.0  0.75000  0.22240  0.16730  1.0000 -0.5271631852
O   O4        1.0  0.75000  0.72240  0.33270  1.0000 -0.5271631852
O   O5        1.0  0.75000  0.89880  0.36640  1.0000 -0.5798412338
O   O6        1.0  0.75000  0.39880  0.13360  1.0000 -0.5798412338
O   O7        1.0  0.75000  0.13300  0.89450  1.0000 -0.5085575358
O   O8        1.0  0.75000  0.63300  0.60550  1.0000 -0.5085575358
O   O9        1.0  0.75000  0.27330  0.28380  1.0000 -0.4941292778
O   O10       1.0  0.75000  0.77330  0.21620  1.0000 -0.4941292778
O   O11       1.0  0.75000  0.50760  0.80920  1.0000 -0.5798412338
O   O12       1.0  0.75000  0.00760  0.69080  1.0000 -0.5798412338
O   O13       1.0  0.75000  0.42040  0.71470  1.0000 -0.5585183278
O   O14       1.0  0.75000  0.92040  0.78530  1.0000 -0.5585183278
O   O15       1.0  0.75000  0.98570  0.46140  1.0000 -0.4805052206
O   O16       1.0  0.75000  0.48570  0.03860  1.0000 -0.4805052206
O   O17       1.0  0.25000  0.31370  0.51130  1.0000 -0.5467903391
O   O18       1.0  0.25000  0.81370  0.98870  1.0000 -0.5467903391
O   O19       1.0  0.25000  0.27760  0.66730  1.0000 -0.5271631852
O   O20       1.0  0.25000  0.77760  0.83270  1.0000 -0.5271631852
O   O21       1.0  0.25000  0.60120  0.86640  1.0000 -0.5798412338
O   O22       1.0  0.25000  0.10120  0.63360  1.0000 -0.5798412338
O   O23       1.0  0.25000  0.36700  0.39450  1.0000 -0.5085575358
O   O24       1.0  0.25000  0.86700  0.10550  1.0000 -0.5085575358
O   O25       1.0  0.25000  0.22670  0.78380  1.0000 -0.4954162315
O   O26       1.0  0.25000  0.72670  0.71620  1.0000 -0.4954162315
O   O27       1.0  0.25000  0.99240  0.30920  1.0000 -0.5798412338
O   O28       1.0  0.25000  0.49240  0.19080  1.0000 -0.5798412338
O   O29       1.0  0.25000  0.07960  0.21470  1.0000 -0.5585183278
O   O30       1.0  0.25000  0.57960  0.28530  1.0000 -0.5585183278
O   O31       1.0  0.25000  0.51430  0.96140  1.0000 -0.4805052206
O   O32       1.0  0.25000  0.01430  0.53860  1.0000 -0.4805052206
