# DDEC6 charges by PACMAN v1.1 (https://github.com/mtap-research/PACMAN-charge/)
data_2023[La][mog]3[ASR]1
_chemical_formula_sum              "La4 H88 C84 O24"
_cell_length_a       12.3921
_cell_length_b       19.6854
_cell_length_c       12.4328
_cell_angle_alpha    90
_cell_angle_beta     109.522
_cell_angle_gamma    90

_symmetry_space_group_name_H-M    "P 1"
_symmetry_Int_Tables_number       1

loop_
  _symmetry_equiv_pos_as_xyz
  'x, y, z'

loop_
  _atom_site_type_symbol
  _atom_site_label
  _atom_site_symmetry_multiplicity
  _atom_site_fract_x
  _atom_site_fract_y
  _atom_site_fract_z
  _atom_site_occupancy
  _atom_site_charge
La  La1       1.0  0.39572  0.59105  0.62196  1.0000 1.8488693747
La  La2       1.0  0.10428  0.09105  0.37804  1.0000 1.8448804332
La  La3       1.0  0.60428  0.40895  0.37804  1.0000 1.8488693747
La  La4       1.0  0.89572  0.90895  0.62196  1.0000 1.8488693747
H   H1        1.0  0.43940  0.84279  0.23621  1.0000 0.120788583
H   H2        1.0  0.06060  0.34279  0.76379  1.0000 0.120788583
H   H3        1.0  0.56060  0.15721  0.76379  1.0000 0.120788583
H   H4        1.0  0.93940  0.65721  0.23621  1.0000 0.120788583
H   H5        1.0  0.51698  0.87844  0.35189  1.0000 0.1384882881
H   H6        1.0  0.98302  0.37844  0.64811  1.0000 0.1384882881
H   H7        1.0  0.48302  0.12156  0.64811  1.0000 0.1384882881
H   H8        1.0  0.01698  0.62156  0.35189  1.0000 0.1384882881
H   H9        1.0  0.39724  0.84471  0.34461  1.0000 0.1384882881
H   H10       1.0  0.10276  0.34471  0.65539  1.0000 0.1384882881
H   H11       1.0  0.60276  0.15529  0.65539  1.0000 0.1384882881
H   H12       1.0  0.89724  0.65529  0.34461  1.0000 0.1384882881
H   H13       1.0  0.42362  0.71731  0.22094  1.0000 0.120788583
H   H14       1.0  0.07638  0.21731  0.77906  1.0000 0.120788583
H   H15       1.0  0.57638  0.28269  0.77906  1.0000 0.120788583
H   H16       1.0  0.92362  0.78269  0.22094  1.0000 0.120788583
H   H17       1.0  0.37021  0.72063  0.32157  1.0000 0.1384882881
H   H18       1.0  0.12979  0.22063  0.67843  1.0000 0.1384882881
H   H19       1.0  0.62979  0.27937  0.67843  1.0000 0.1384882881
H   H20       1.0  0.87021  0.77937  0.32157  1.0000 0.1384882881
H   H21       1.0  0.47576  0.67115  0.33227  1.0000 0.1453888621
H   H22       1.0  0.02424  0.17115  0.66773  1.0000 0.1384882881
H   H23       1.0  0.52424  0.32885  0.66773  1.0000 0.1453888621
H   H24       1.0  0.97576  0.82885  0.33227  1.0000 0.1453888621
H   H25       1.0  0.60535  0.77111  0.23883  1.0000 0.120788583
H   H26       1.0  0.89465  0.27111  0.76117  1.0000 0.120788583
H   H27       1.0  0.39465  0.22889  0.76117  1.0000 0.120788583
H   H28       1.0  0.10535  0.72889  0.23883  1.0000 0.120788583
H   H29       1.0  0.66175  0.71913  0.34121  1.0000 0.1384882881
H   H30       1.0  0.83825  0.21913  0.65879  1.0000 0.1384882881
H   H31       1.0  0.33825  0.28087  0.65879  1.0000 0.1384882881
H   H32       1.0  0.16175  0.78087  0.34121  1.0000 0.1384882881
H   H33       1.0  0.68711  0.79878  0.35960  1.0000 0.1384882881
H   H34       1.0  0.81289  0.29878  0.64040  1.0000 0.1384882881
H   H35       1.0  0.31289  0.20122  0.64040  1.0000 0.1384882881
H   H36       1.0  0.18711  0.70122  0.35960  1.0000 0.1384882881
H   H37       1.0  0.51870  0.74054  0.88704  1.0000 0.1453888621
H   H38       1.0  0.98130  0.24054  0.11296  1.0000 0.1453888621
H   H39       1.0  0.48130  0.25946  0.11296  1.0000 0.1453888621
H   H40       1.0  0.01870  0.75946  0.88704  1.0000 0.1453888621
H   H41       1.0  0.50375  0.82127  0.87644  1.0000 0.1285220278
H   H42       1.0  0.99625  0.32127  0.12356  1.0000 0.1285220278
H   H43       1.0  0.49625  0.17873  0.12356  1.0000 0.1285220278
H   H44       1.0  0.00375  0.67873  0.87644  1.0000 0.1285220278
H   H45       1.0  0.57450  0.78763  0.99652  1.0000 0.1285220278
H   H46       1.0  0.92550  0.28763  0.00348  1.0000 0.1285220278
H   H47       1.0  0.42550  0.21237  0.00348  1.0000 0.1285220278
H   H48       1.0  0.07450  0.71237  0.99652  1.0000 0.1285220278
H   H49       1.0  0.71288  0.68857  0.91692  1.0000 0.1384882881
H   H50       1.0  0.78712  0.18857  0.08308  1.0000 0.1384882881
H   H51       1.0  0.28712  0.31143  0.08308  1.0000 0.1384882881
H   H52       1.0  0.21288  0.81143  0.91692  1.0000 0.1384882881
H   H53       1.0  0.76707  0.73644  0.02571  1.0000 0.1285220278
H   H54       1.0  0.73293  0.23644  0.97429  1.0000 0.1285220278
H   H55       1.0  0.23293  0.26356  0.97429  1.0000 0.1285220278
H   H56       1.0  0.26707  0.76356  0.02571  1.0000 0.1285220278
H   H57       1.0  0.81927  0.73659  0.92408  1.0000 0.1384882881
H   H58       1.0  0.68073  0.23659  0.07592  1.0000 0.1384882881
H   H59       1.0  0.18073  0.26341  0.07592  1.0000 0.1384882881
H   H60       1.0  0.31927  0.76341  0.92408  1.0000 0.1384882881
H   H61       1.0  0.79323  0.86317  0.91781  1.0000 0.1384882881
H   H62       1.0  0.70677  0.36317  0.08219  1.0000 0.1384882881
H   H63       1.0  0.20677  0.13683  0.08219  1.0000 0.1384882881
H   H64       1.0  0.29323  0.63683  0.91781  1.0000 0.1384882881
H   H65       1.0  0.73063  0.86136  0.01141  1.0000 0.120788583
H   H66       1.0  0.76937  0.36136  0.98859  1.0000 0.120788583
H   H67       1.0  0.26937  0.13864  0.98859  1.0000 0.120788583
H   H68       1.0  0.23063  0.63864  0.01141  1.0000 0.120788583
H   H69       1.0  0.66794  0.89500  0.88923  1.0000 0.1285220278
H   H70       1.0  0.83206  0.39500  0.11077  1.0000 0.1285220278
H   H71       1.0  0.33206  0.10500  0.11077  1.0000 0.1285220278
H   H72       1.0  0.16794  0.60500  0.88923  1.0000 0.1285220278
H   H73       1.0  0.17985  0.59141  0.27814  1.0000 0.1285220278
H   H74       1.0  0.32015  0.09141  0.72186  1.0000 0.1285220278
H   H75       1.0  0.82015  0.40859  0.72186  1.0000 0.1285220278
H   H76       1.0  0.67985  0.90859  0.27814  1.0000 0.1285220278
H   H77       1.0  0.01823  0.58888  0.11477  1.0000 0.120788583
H   H78       1.0  0.48177  0.08888  0.88523  1.0000 0.120788583
H   H79       1.0  0.98177  0.41112  0.88523  1.0000 0.120788583
H   H80       1.0  0.51823  0.91112  0.11477  1.0000 0.120788583
H   H81       1.0  0.12413  0.41462  0.02093  1.0000 0.120788583
H   H82       1.0  0.37587  0.91462  0.97907  1.0000 0.120788583
H   H83       1.0  0.87587  0.58538  0.97907  1.0000 0.120788583
H   H84       1.0  0.62413  0.08538  0.02093  1.0000 0.120788583
H   H85       1.0  0.28703  0.41748  0.18145  1.0000 0.120788583
H   H86       1.0  0.21297  0.91748  0.81855  1.0000 0.120788583
H   H87       1.0  0.71297  0.58252  0.81855  1.0000 0.120788583
H   H88       1.0  0.78703  0.08252  0.18145  1.0000 0.120788583
C   C1        1.0  0.56380  0.73180  0.69120  1.0000 0.2492493702
C   C2        1.0  0.93620  0.23180  0.30880  1.0000 0.2492493702
C   C3        1.0  0.43620  0.26820  0.30880  1.0000 0.2492493702
C   C4        1.0  0.06380  0.76820  0.69120  1.0000 0.2492493702
C   C5        1.0  0.52050  0.72960  0.55810  1.0000 0.2492493702
C   C6        1.0  0.97950  0.22960  0.44190  1.0000 0.2492493702
C   C7        1.0  0.47950  0.27040  0.44190  1.0000 0.2446878267
C   C8        1.0  0.02050  0.77040  0.55810  1.0000 0.2446878267
C   C9        1.0  0.56530  0.77200  0.49420  1.0000 -0.2260016637
C   C10       1.0  0.93470  0.27200  0.50580  1.0000 -0.2260016637
C   C11       1.0  0.43470  0.22800  0.50580  1.0000 -0.2260016637
C   C12       1.0  0.06530  0.72800  0.49420  1.0000 -0.2179669963
C   C13       1.0  0.64940  0.81840  0.55690  1.0000 0.2492493702
C   C14       1.0  0.85060  0.31840  0.44310  1.0000 0.2492493702
C   C15       1.0  0.35060  0.18160  0.44310  1.0000 0.2492493702
C   C16       1.0  0.14940  0.68160  0.55690  1.0000 0.2492493702
C   C17       1.0  0.69140  0.82050  0.69000  1.0000 0.2492493702
C   C18       1.0  0.80860  0.32050  0.31000  1.0000 0.2492493702
C   C19       1.0  0.30860  0.17950  0.31000  1.0000 0.2492493702
C   C20       1.0  0.19140  0.67950  0.69000  1.0000 0.2492493702
C   C21       1.0  0.63740  0.78310  0.75320  1.0000 -0.2179669963
C   C22       1.0  0.86260  0.28310  0.24680  1.0000 -0.2179669963
C   C23       1.0  0.36260  0.21690  0.24680  1.0000 -0.2179669963
C   C24       1.0  0.13740  0.71690  0.75320  1.0000 -0.2179669963
C   C25       1.0  0.52530  0.77270  0.36130  1.0000 0.3176284297
C   C26       1.0  0.97470  0.27270  0.63870  1.0000 0.3176284297
C   C27       1.0  0.47470  0.22730  0.63870  1.0000 0.3176284297
C   C28       1.0  0.02530  0.72730  0.36130  1.0000 0.3176284297
C   C29       1.0  0.46410  0.84090  0.31970  1.0000 -0.4697976397
C   C30       1.0  0.03590  0.34090  0.68030  1.0000 -0.4697976397
C   C31       1.0  0.53590  0.15910  0.68030  1.0000 -0.4697976397
C   C32       1.0  0.96410  0.65910  0.31970  1.0000 -0.4697976397
C   C33       1.0  0.44100  0.71520  0.30380  1.0000 -0.4800004238
C   C34       1.0  0.05900  0.21520  0.69620  1.0000 -0.4800004238
C   C35       1.0  0.55900  0.28480  0.69620  1.0000 -0.4800004238
C   C36       1.0  0.94100  0.78480  0.30380  1.0000 -0.4800004238
C   C37       1.0  0.62930  0.76470  0.32170  1.0000 -0.4800004238
C   C38       1.0  0.87070  0.26470  0.67830  1.0000 -0.4800004238
C   C39       1.0  0.37070  0.23530  0.67830  1.0000 -0.4800004238
C   C40       1.0  0.12930  0.73530  0.32170  1.0000 -0.4800004238
C   C41       1.0  0.66620  0.78960  0.88360  1.0000 0.3176284297
C   C42       1.0  0.83380  0.28960  0.11640  1.0000 0.3176284297
C   C43       1.0  0.33380  0.21040  0.11640  1.0000 0.3176284297
C   C44       1.0  0.16620  0.71040  0.88360  1.0000 0.3176284297
C   C45       1.0  0.55580  0.78430  0.91360  1.0000 -0.4888097556
C   C46       1.0  0.94420  0.28430  0.08640  1.0000 -0.4888097556
C   C47       1.0  0.44420  0.21570  0.08640  1.0000 -0.4888097556
C   C48       1.0  0.05580  0.71570  0.91360  1.0000 -0.4888097556
C   C49       1.0  0.74880  0.73270  0.94290  1.0000 -0.4697976397
C   C50       1.0  0.75120  0.23270  0.05710  1.0000 -0.4697976397
C   C51       1.0  0.25120  0.26730  0.05710  1.0000 -0.4697976397
C   C52       1.0  0.24880  0.76730  0.94290  1.0000 -0.4697976397
C   C53       1.0  0.71930  0.85850  0.92970  1.0000 -0.4697976397
C   C54       1.0  0.78070  0.35850  0.07030  1.0000 -0.4697976397
C   C55       1.0  0.28070  0.14150  0.07030  1.0000 -0.4697976397
C   C56       1.0  0.21930  0.64150  0.92970  1.0000 -0.4697976397
C   C57       1.0  0.35030  0.50560  0.35560  1.0000 0.6282800151
C   C58       1.0  0.14970  0.00560  0.64440  1.0000 0.6282800151
C   C59       1.0  0.64970  0.49440  0.64440  1.0000 0.6282800151
C   C60       1.0  0.85030  0.99440  0.35560  1.0000 0.6282800151
C   C61       1.0  0.24910  0.50520  0.24700  1.0000 -0.030462422
C   C62       1.0  0.25090  0.00520  0.75300  1.0000 -0.030462422
C   C63       1.0  0.75090  0.49480  0.75300  1.0000 -0.030462422
C   C64       1.0  0.74910  0.99480  0.24700  1.0000 -0.030462422
C   C65       1.0  0.16950  0.55480  0.22590  1.0000 -0.0812129961
C   C66       1.0  0.33050  0.05480  0.77410  1.0000 -0.0812129961
C   C67       1.0  0.83050  0.44520  0.77410  1.0000 -0.0812129961
C   C68       1.0  0.66950  0.94520  0.22590  1.0000 -0.0812129961
C   C69       1.0  0.07230  0.55290  0.12830  1.0000 -0.1435825961
C   C70       1.0  0.42770  0.05290  0.87170  1.0000 -0.1435825961
C   C71       1.0  0.92770  0.44710  0.87170  1.0000 -0.1435825961
C   C72       1.0  0.57230  0.94710  0.12830  1.0000 -0.1435825961
C   C73       1.0  0.05280  0.50100  0.05210  1.0000 0.0795655375
C   C74       1.0  0.44720  0.00100  0.94790  1.0000 0.0795655375
C   C75       1.0  0.94720  0.49900  0.94790  1.0000 0.0795655375
C   C76       1.0  0.55280  0.99900  0.05210  1.0000 0.0795655375
C   C77       1.0  0.13460  0.45120  0.07340  1.0000 -0.1503777677
C   C78       1.0  0.36540  0.95120  0.92660  1.0000 -0.1503777677
C   C79       1.0  0.86540  0.54880  0.92660  1.0000 -0.1503777677
C   C80       1.0  0.63460  0.04880  0.07340  1.0000 -0.1503777677
C   C81       1.0  0.23180  0.45270  0.16910  1.0000 -0.1008443596
C   C82       1.0  0.26820  0.95270  0.83090  1.0000 -0.1008443596
C   C83       1.0  0.76820  0.54730  0.83090  1.0000 -0.1008443596
C   C84       1.0  0.73180  0.04730  0.16910  1.0000 -0.1008443596
O   O1        1.0  0.52620  0.68322  0.73510  1.0000 -0.5169518428
O   O2        1.0  0.97380  0.18322  0.26490  1.0000 -0.5169518428
O   O3        1.0  0.47380  0.31678  0.26490  1.0000 -0.5169518428
O   O4        1.0  0.02620  0.81678  0.73510  1.0000 -0.5169518428
O   O5        1.0  0.44250  0.68635  0.51900  1.0000 -0.4888097556
O   O6        1.0  0.05750  0.18635  0.48100  1.0000 -0.4888097556
O   O7        1.0  0.55750  0.31365  0.48100  1.0000 -0.4888097556
O   O8        1.0  0.94250  0.81365  0.51900  1.0000 -0.4888097556
O   O9        1.0  0.69730  0.86213  0.51420  1.0000 -0.49997229
O   O10       1.0  0.80270  0.36213  0.48580  1.0000 -0.49997229
O   O11       1.0  0.30270  0.13787  0.48580  1.0000 -0.49997229
O   O12       1.0  0.19730  0.63787  0.51420  1.0000 -0.49997229
O   O13       1.0  0.77890  0.85798  0.73170  1.0000 -0.5319090175
O   O14       1.0  0.72110  0.35798  0.26830  1.0000 -0.5319090175
O   O15       1.0  0.22110  0.14202  0.26830  1.0000 -0.5319090175
O   O16       1.0  0.27890  0.64202  0.73170  1.0000 -0.5319090175
O   O17       1.0  0.35350  0.55122  0.42650  1.0000 -0.5923710452
O   O18       1.0  0.14650  0.05122  0.57350  1.0000 -0.5923710452
O   O19       1.0  0.64650  0.44878  0.57350  1.0000 -0.5923710452
O   O20       1.0  0.85350  0.94878  0.42650  1.0000 -0.5923710452
O   O21       1.0  0.42280  0.45880  0.37000  1.0000 -0.6336608814
O   O22       1.0  0.07720  0.95880  0.63000  1.0000 -0.635508387
O   O23       1.0  0.57720  0.54120  0.63000  1.0000 -0.6336608814
O   O24       1.0  0.92280  0.04120  0.37000  1.0000 -0.6336608814
