# DDEC6 charges by PACMAN v1.1 (https://github.com/mtap-research/PACMAN-charge/)
data_2023[U][dia]3[ASR]1
_chemical_formula_sum              "U8 H128 C224 O40"
_cell_length_a       10.0604
_cell_length_b       18.3854
_cell_length_c       33.1
_cell_angle_alpha    90
_cell_angle_beta     90
_cell_angle_gamma    90

_symmetry_space_group_name_H-M    "P 1"
_symmetry_Int_Tables_number       1

loop_
  _symmetry_equiv_pos_as_xyz
  'x, y, z'

loop_
  _atom_site_type_symbol
  _atom_site_label
  _atom_site_symmetry_multiplicity
  _atom_site_fract_x
  _atom_site_fract_y
  _atom_site_fract_z
  _atom_site_occupancy
  _atom_site_charge
U   U1        1.0  0.46368  0.22451  0.04703  1.0000 1.9527898872
U   U2        1.0  0.03632  0.22451  0.95297  1.0000 1.9599408114
U   U3        1.0  0.03632  0.72451  0.54703  1.0000 1.9527898872
U   U4        1.0  0.46368  0.72451  0.45297  1.0000 1.9599408114
U   U5        1.0  0.96368  0.27549  0.45297  1.0000 1.9655759776
U   U6        1.0  0.53632  0.27549  0.54703  1.0000 1.9599408114
U   U7        1.0  0.53632  0.77549  0.95297  1.0000 1.9599408114
U   U8        1.0  0.96368  0.77549  0.04703  1.0000 1.9599408114
H   H1        1.0  0.88720  0.80300  0.44010  1.0000 0.1299968319
H   H2        1.0  0.61280  0.80300  0.55990  1.0000 0.1299968319
H   H3        1.0  0.61280  0.30300  0.94010  1.0000 0.1299968319
H   H4        1.0  0.88720  0.30300  0.05990  1.0000 0.1299968319
H   H5        1.0  0.77750  0.86730  0.39110  1.0000 0.1203940796
H   H6        1.0  0.72250  0.86730  0.60890  1.0000 0.1203940796
H   H7        1.0  0.72250  0.36730  0.89110  1.0000 0.1203940796
H   H8        1.0  0.77750  0.36730  0.10890  1.0000 0.1203940796
H   H9        1.0  0.10560  0.86430  0.32410  1.0000 0.1203940796
H   H10       1.0  0.39440  0.86430  0.67590  1.0000 0.1203940796
H   H11       1.0  0.39440  0.36430  0.82410  1.0000 0.1203940796
H   H12       1.0  0.10560  0.36430  0.17590  1.0000 0.1203940796
H   H13       1.0  0.21220  0.80260  0.37500  1.0000 0.1203940796
H   H14       1.0  0.28780  0.80260  0.62500  1.0000 0.1203940796
H   H15       1.0  0.28780  0.30260  0.87500  1.0000 0.1203940796
H   H16       1.0  0.21220  0.30260  0.12500  1.0000 0.1203940796
H   H17       1.0  0.66560  0.73000  0.25990  1.0000 0.1027791554
H   H18       1.0  0.83440  0.73000  0.74010  1.0000 0.1027791554
H   H19       1.0  0.83440  0.23000  0.75990  1.0000 0.1027791554
H   H20       1.0  0.66560  0.23000  0.24010  1.0000 0.1027791554
H   H21       1.0  0.58820  0.79850  0.20660  1.0000 0.1027791554
H   H22       1.0  0.91180  0.79850  0.79340  1.0000 0.1027791554
H   H23       1.0  0.91180  0.29850  0.70660  1.0000 0.1027791554
H   H24       1.0  0.58820  0.29850  0.29340  1.0000 0.1027791554
H   H25       1.0  0.62010  0.92200  0.20610  1.0000 0.1027791554
H   H26       1.0  0.87990  0.92200  0.79390  1.0000 0.1027791554
H   H27       1.0  0.87990  0.42200  0.70610  1.0000 0.1027791554
H   H28       1.0  0.62010  0.42200  0.29390  1.0000 0.1027791554
H   H29       1.0  0.79590  0.77770  0.30870  1.0000 0.1027791554
H   H30       1.0  0.70410  0.77770  0.69130  1.0000 0.1027791554
H   H31       1.0  0.70410  0.27770  0.80870  1.0000 0.1027791554
H   H32       1.0  0.79590  0.27770  0.19130  1.0000 0.1027791554
H   H33       1.0  0.82500  0.14230  0.26730  1.0000 0.1027791554
H   H34       1.0  0.67500  0.14230  0.73270  1.0000 0.1027791554
H   H35       1.0  0.67500  0.64230  0.76730  1.0000 0.1027791554
H   H36       1.0  0.82500  0.64230  0.23270  1.0000 0.1027791554
H   H37       1.0  0.93960  0.19520  0.31810  1.0000 0.1027791554
H   H38       1.0  0.56040  0.19520  0.68190  1.0000 0.1027791554
H   H39       1.0  0.56040  0.69520  0.81810  1.0000 0.1027791554
H   H40       1.0  0.93960  0.69520  0.18190  1.0000 0.1027791554
H   H41       1.0  0.02590  0.12400  0.37020  1.0000 0.1027791554
H   H42       1.0  0.47410  0.12400  0.62980  1.0000 0.1027791554
H   H43       1.0  0.47410  0.62400  0.87020  1.0000 0.1027791554
H   H44       1.0  0.02590  0.62400  0.12980  1.0000 0.1027791554
H   H45       1.0  0.99730  0.00280  0.37040  1.0000 0.1086648418
H   H46       1.0  0.50270  0.00280  0.62960  1.0000 0.1086648418
H   H47       1.0  0.50270  0.50280  0.87040  1.0000 0.1086648418
H   H48       1.0  0.99730  0.50280  0.12960  1.0000 0.1086648418
H   H49       1.0  0.51720  0.06260  0.24350  1.0000 0.1086648418
H   H50       1.0  0.98280  0.06260  0.75650  1.0000 0.1086648418
H   H51       1.0  0.98280  0.56260  0.74350  1.0000 0.1086648418
H   H52       1.0  0.51720  0.56260  0.25650  1.0000 0.1086648418
H   H53       1.0  0.43180  0.12830  0.19020  1.0000 0.1203940796
H   H54       1.0  0.06820  0.12830  0.80980  1.0000 0.1203940796
H   H55       1.0  0.06820  0.62830  0.69020  1.0000 0.1203940796
H   H56       1.0  0.43180  0.62830  0.30980  1.0000 0.1203940796
H   H57       1.0  0.79290  0.12710  0.13900  1.0000 0.1203940796
H   H58       1.0  0.70710  0.12710  0.86100  1.0000 0.1203940796
H   H59       1.0  0.70710  0.62710  0.63900  1.0000 0.1203940796
H   H60       1.0  0.79290  0.62710  0.36100  1.0000 0.1203940796
H   H61       1.0  0.86690  0.05110  0.19010  1.0000 0.1086648418
H   H62       1.0  0.63310  0.05110  0.80990  1.0000 0.1086648418
H   H63       1.0  0.63310  0.55110  0.69010  1.0000 0.1086648418
H   H64       1.0  0.86690  0.55110  0.30990  1.0000 0.1086648418
H   H65       1.0  0.38720  0.69700  0.05990  1.0000 0.1299968319
H   H66       1.0  0.11280  0.69700  0.94010  1.0000 0.1299968319
H   H67       1.0  0.11280  0.19700  0.55990  1.0000 0.1299968319
H   H68       1.0  0.38720  0.19700  0.44010  1.0000 0.1299968319
H   H69       1.0  0.27750  0.63270  0.10890  1.0000 0.1203940796
H   H70       1.0  0.22250  0.63270  0.89110  1.0000 0.1203940796
H   H71       1.0  0.22250  0.13270  0.60890  1.0000 0.1203940796
H   H72       1.0  0.27750  0.13270  0.39110  1.0000 0.1203940796
H   H73       1.0  0.60560  0.63570  0.17590  1.0000 0.1203940796
H   H74       1.0  0.89440  0.63570  0.82410  1.0000 0.1203940796
H   H75       1.0  0.89440  0.13570  0.67590  1.0000 0.1203940796
H   H76       1.0  0.60560  0.13570  0.32410  1.0000 0.1203940796
H   H77       1.0  0.71220  0.69740  0.12500  1.0000 0.1203940796
H   H78       1.0  0.78780  0.69740  0.87500  1.0000 0.1203940796
H   H79       1.0  0.78780  0.19740  0.62500  1.0000 0.1203940796
H   H80       1.0  0.71220  0.19740  0.37500  1.0000 0.1203940796
H   H81       1.0  0.16560  0.77000  0.24010  1.0000 0.1027791554
H   H82       1.0  0.33440  0.77000  0.75990  1.0000 0.1027791554
H   H83       1.0  0.33440  0.27000  0.74010  1.0000 0.1027791554
H   H84       1.0  0.16560  0.27000  0.25990  1.0000 0.1027791554
H   H85       1.0  0.08820  0.70150  0.29340  1.0000 0.1027791554
H   H86       1.0  0.41180  0.70150  0.70660  1.0000 0.1027791554
H   H87       1.0  0.41180  0.20150  0.79340  1.0000 0.1027791554
H   H88       1.0  0.08820  0.20150  0.20660  1.0000 0.1027791554
H   H89       1.0  0.12010  0.57800  0.29390  1.0000 0.1027791554
H   H90       1.0  0.37990  0.57800  0.70610  1.0000 0.1027791554
H   H91       1.0  0.37990  0.07800  0.79390  1.0000 0.1027791554
H   H92       1.0  0.12010  0.07800  0.20610  1.0000 0.1027791554
H   H93       1.0  0.29590  0.72230  0.19130  1.0000 0.1027791554
H   H94       1.0  0.20410  0.72230  0.80870  1.0000 0.1027791554
H   H95       1.0  0.20410  0.22230  0.69130  1.0000 0.1027791554
H   H96       1.0  0.29590  0.22230  0.30870  1.0000 0.1027791554
H   H97       1.0  0.32500  0.35770  0.23270  1.0000 0.1027791554
H   H98       1.0  0.17500  0.35770  0.76730  1.0000 0.1027791554
H   H99       1.0  0.17500  0.85770  0.73270  1.0000 0.1027791554
H   H100      1.0  0.32500  0.85770  0.26730  1.0000 0.1027791554
H   H101      1.0  0.43960  0.30480  0.18190  1.0000 0.1027791554
H   H102      1.0  0.06040  0.30480  0.81810  1.0000 0.1027791554
H   H103      1.0  0.06040  0.80480  0.68190  1.0000 0.1027791554
H   H104      1.0  0.43960  0.80480  0.31810  1.0000 0.1027791554
H   H105      1.0  0.52590  0.37600  0.12980  1.0000 0.1027791554
H   H106      1.0  0.97410  0.37600  0.87020  1.0000 0.1027791554
H   H107      1.0  0.97410  0.87600  0.62980  1.0000 0.1027791554
H   H108      1.0  0.52590  0.87600  0.37020  1.0000 0.1027791554
H   H109      1.0  0.49730  0.49720  0.12960  1.0000 0.1086648418
H   H110      1.0  0.00270  0.49720  0.87040  1.0000 0.1086648418
H   H111      1.0  0.00270  0.99720  0.62960  1.0000 0.1086648418
H   H112      1.0  0.49730  0.99720  0.37040  1.0000 0.1086648418
H   H113      1.0  0.01720  0.43740  0.25650  1.0000 0.1086648418
H   H114      1.0  0.48280  0.43740  0.74350  1.0000 0.1086648418
H   H115      1.0  0.48280  0.93740  0.75650  1.0000 0.1086648418
H   H116      1.0  0.01720  0.93740  0.24350  1.0000 0.1086648418
H   H117      1.0  0.93180  0.37170  0.30980  1.0000 0.1203940796
H   H118      1.0  0.56820  0.37170  0.69020  1.0000 0.1203940796
H   H119      1.0  0.56820  0.87170  0.80980  1.0000 0.1203940796
H   H120      1.0  0.93180  0.87170  0.19020  1.0000 0.1203940796
H   H121      1.0  0.29290  0.37290  0.36100  1.0000 0.1203940796
H   H122      1.0  0.20710  0.37290  0.63900  1.0000 0.1203940796
H   H123      1.0  0.20710  0.87290  0.86100  1.0000 0.1203940796
H   H124      1.0  0.29290  0.87290  0.13900  1.0000 0.1203940796
H   H125      1.0  0.36690  0.44890  0.30990  1.0000 0.1086648418
H   H126      1.0  0.13310  0.44890  0.69010  1.0000 0.1086648418
H   H127      1.0  0.13310  0.94890  0.80990  1.0000 0.1086648418
H   H128      1.0  0.36690  0.94890  0.19010  1.0000 0.1086648418
C   C1        1.0  0.13800  0.76890  0.44800  1.0000 0.6419723922
C   C2        1.0  0.36200  0.76890  0.55200  1.0000 0.6419723922
C   C3        1.0  0.36200  0.26890  0.94800  1.0000 0.6419723922
C   C4        1.0  0.13800  0.26890  0.05200  1.0000 0.6419723922
C   C5        1.0  0.05880  0.80160  0.41340  1.0000 -0.0471292476
C   C6        1.0  0.44120  0.80160  0.58660  1.0000 -0.0471292476
C   C7        1.0  0.44120  0.30160  0.91340  1.0000 -0.0471292476
C   C8        1.0  0.05880  0.30160  0.08660  1.0000 -0.0471292476
C   C9        1.0  0.93280  0.81730  0.41700  1.0000 -0.1088838473
C   C10       1.0  0.56720  0.81730  0.58300  1.0000 -0.1088838473
C   C11       1.0  0.56720  0.31730  0.91700  1.0000 -0.1088838473
C   C12       1.0  0.93280  0.31730  0.08300  1.0000 -0.1088838473
C   C13       1.0  0.86600  0.85460  0.38720  1.0000 -0.1669620877
C   C14       1.0  0.63400  0.85460  0.61280  1.0000 -0.1669620877
C   C15       1.0  0.63400  0.35460  0.88720  1.0000 -0.1669620877
C   C16       1.0  0.86600  0.35460  0.11280  1.0000 -0.1669620877
C   C17       1.0  0.92920  0.87360  0.35120  1.0000 0.0811866293
C   C18       1.0  0.57080  0.87360  0.64880  1.0000 0.0811866293
C   C19       1.0  0.57080  0.37360  0.85120  1.0000 0.0811866293
C   C20       1.0  0.92920  0.37360  0.14880  1.0000 0.0811866293
C   C21       1.0  0.05960  0.85330  0.34770  1.0000 -0.1587597219
C   C22       1.0  0.44040  0.85330  0.65230  1.0000 -0.1587597219
C   C23       1.0  0.44040  0.35330  0.84770  1.0000 -0.1587597219
C   C24       1.0  0.05960  0.35330  0.15230  1.0000 -0.1587597219
C   C25       1.0  0.12400  0.81680  0.37830  1.0000 -0.1198927505
C   C26       1.0  0.37600  0.81680  0.62170  1.0000 -0.1198927505
C   C27       1.0  0.37600  0.31680  0.87830  1.0000 -0.1198927505
C   C28       1.0  0.12400  0.31680  0.12170  1.0000 -0.1198927505
C   C29       1.0  0.68500  0.77940  0.25910  1.0000 -0.1088838473
C   C30       1.0  0.81500  0.77940  0.74090  1.0000 -0.1088838473
C   C31       1.0  0.81500  0.27940  0.75910  1.0000 -0.1088838473
C   C32       1.0  0.68500  0.27940  0.24090  1.0000 -0.1088838473
C   C33       1.0  0.63520  0.82080  0.22740  1.0000 -0.1088838473
C   C34       1.0  0.86480  0.82080  0.77260  1.0000 -0.1088838473
C   C35       1.0  0.86480  0.32080  0.72740  1.0000 -0.1088838473
C   C36       1.0  0.63520  0.32080  0.27260  1.0000 -0.1088838473
C   C37       1.0  0.65530  0.89430  0.22700  1.0000 -0.1587597219
C   C38       1.0  0.84470  0.89430  0.77300  1.0000 -0.1587597219
C   C39       1.0  0.84470  0.39430  0.72700  1.0000 -0.1587597219
C   C40       1.0  0.65530  0.39430  0.27300  1.0000 -0.1587597219
C   C41       1.0  0.72960  0.92870  0.25810  1.0000 0.0226727793
C   C42       1.0  0.77040  0.92870  0.74190  1.0000 0.0226727793
C   C43       1.0  0.77040  0.42870  0.75810  1.0000 0.0226727793
C   C44       1.0  0.72960  0.42870  0.24190  1.0000 0.0226727793
C   C45       1.0  0.78690  0.88580  0.28890  1.0000 0.0226727793
C   C46       1.0  0.71310  0.88580  0.71110  1.0000 0.0226727793
C   C47       1.0  0.71310  0.38580  0.78890  1.0000 0.0226727793
C   C48       1.0  0.78690  0.38580  0.21110  1.0000 0.0226727793
C   C49       1.0  0.76070  0.80750  0.28860  1.0000 -0.154650169
C   C50       1.0  0.73930  0.80750  0.71140  1.0000 -0.154650169
C   C51       1.0  0.73930  0.30750  0.78860  1.0000 -0.154650169
C   C52       1.0  0.76070  0.30750  0.21140  1.0000 -0.154650169
C   C53       1.0  0.86420  0.91810  0.31900  1.0000 -0.0471292476
C   C54       1.0  0.63580  0.91810  0.68100  1.0000 -0.0471292476
C   C55       1.0  0.63580  0.41810  0.81900  1.0000 -0.0471292476
C   C56       1.0  0.86420  0.41810  0.18100  1.0000 -0.0471292476
C   C57       1.0  0.88080  0.99340  0.31930  1.0000 0.0226727793
C   C58       1.0  0.61920  0.99340  0.68070  1.0000 0.0226727793
C   C59       1.0  0.61920  0.49340  0.81930  1.0000 0.0226727793
C   C60       1.0  0.88080  0.49340  0.18070  1.0000 0.0226727793
C   C61       1.0  0.82850  0.03710  0.28720  1.0000 0.0253162951
C   C62       1.0  0.67150  0.03710  0.71280  1.0000 0.0253162951
C   C63       1.0  0.67150  0.53710  0.78720  1.0000 0.0253162951
C   C64       1.0  0.82850  0.53710  0.21280  1.0000 0.0253162951
C   C65       1.0  0.75290  0.00470  0.25710  1.0000 -0.0471292476
C   C66       1.0  0.74710  0.00470  0.74290  1.0000 -0.0471292476
C   C67       1.0  0.74710  0.50470  0.75710  1.0000 -0.0471292476
C   C68       1.0  0.75290  0.50470  0.24290  1.0000 -0.0471292476
C   C69       1.0  0.85640  0.11330  0.28830  1.0000 -0.1587597219
C   C70       1.0  0.64360  0.11330  0.71170  1.0000 -0.1587597219
C   C71       1.0  0.64360  0.61330  0.78830  1.0000 -0.1587597219
C   C72       1.0  0.85640  0.61330  0.21170  1.0000 -0.1587597219
C   C73       1.0  0.92600  0.14520  0.31820  1.0000 -0.1004450429
C   C74       1.0  0.57400  0.14520  0.68180  1.0000 -0.1004450429
C   C75       1.0  0.57400  0.64520  0.81820  1.0000 -0.1004450429
C   C76       1.0  0.92600  0.64520  0.18180  1.0000 -0.1004450429
C   C77       1.0  0.97790  0.10210  0.34950  1.0000 -0.1088838473
C   C78       1.0  0.52210  0.10210  0.65050  1.0000 -0.1088838473
C   C79       1.0  0.52210  0.60210  0.84950  1.0000 -0.1088838473
C   C80       1.0  0.97790  0.60210  0.15050  1.0000 -0.1088838473
C   C81       1.0  0.95890  0.03020  0.34990  1.0000 -0.1587597219
C   C82       1.0  0.54110  0.03020  0.65010  1.0000 -0.1587597219
C   C83       1.0  0.54110  0.53020  0.84990  1.0000 -0.1587597219
C   C84       1.0  0.95890  0.53020  0.15010  1.0000 -0.1587597219
C   C85       1.0  0.70220  0.04970  0.22280  1.0000 0.069658562
C   C86       1.0  0.79780  0.04970  0.77720  1.0000 0.069658562
C   C87       1.0  0.79780  0.54970  0.72280  1.0000 0.069658562
C   C88       1.0  0.70220  0.54970  0.27720  1.0000 0.069658562
C   C89       1.0  0.57220  0.07350  0.22180  1.0000 -0.177299433
C   C90       1.0  0.92780  0.07350  0.77820  1.0000 -0.177299433
C   C91       1.0  0.92780  0.57350  0.72180  1.0000 -0.177299433
C   C92       1.0  0.57220  0.57350  0.27820  1.0000 -0.177299433
C   C93       1.0  0.51990  0.11300  0.18990  1.0000 -0.1088838473
C   C94       1.0  0.98010  0.11300  0.81010  1.0000 -0.1088838473
C   C95       1.0  0.98010  0.61300  0.68990  1.0000 -0.1088838473
C   C96       1.0  0.51990  0.61300  0.31010  1.0000 -0.1088838473
C   C97       1.0  0.60160  0.12920  0.15750  1.0000 -0.0226234366
C   C98       1.0  0.89840  0.12920  0.84250  1.0000 -0.0226234366
C   C99       1.0  0.89840  0.62920  0.65750  1.0000 -0.0226234366
C   C100      1.0  0.60160  0.62920  0.34250  1.0000 -0.0226234366
C   C101      1.0  0.73500  0.11100  0.15890  1.0000 -0.1198927505
C   C102      1.0  0.76500  0.11100  0.84110  1.0000 -0.1198927505
C   C103      1.0  0.76500  0.61100  0.65890  1.0000 -0.1198927505
C   C104      1.0  0.73500  0.61100  0.34110  1.0000 -0.1198927505
C   C105      1.0  0.77980  0.06800  0.19080  1.0000 -0.1587597219
C   C106      1.0  0.72020  0.06800  0.80920  1.0000 -0.1587597219
C   C107      1.0  0.72020  0.56800  0.69080  1.0000 -0.1587597219
C   C108      1.0  0.77980  0.56800  0.30920  1.0000 -0.1587597219
C   C109      1.0  0.56130  0.17130  0.12080  1.0000 0.5201392168
C   C110      1.0  0.93870  0.17130  0.87920  1.0000 0.5201392168
C   C111      1.0  0.93870  0.67130  0.62080  1.0000 0.5201392168
C   C112      1.0  0.56130  0.67130  0.37920  1.0000 0.5201392168
C   C113      1.0  0.63800  0.73110  0.05200  1.0000 0.6419723922
C   C114      1.0  0.86200  0.73110  0.94800  1.0000 0.6419723922
C   C115      1.0  0.86200  0.23110  0.55200  1.0000 0.6419723922
C   C116      1.0  0.63800  0.23110  0.44800  1.0000 0.6419723922
C   C117      1.0  0.55880  0.69840  0.08660  1.0000 -0.0471292476
C   C118      1.0  0.94120  0.69840  0.91340  1.0000 -0.0471292476
C   C119      1.0  0.94120  0.19840  0.58660  1.0000 -0.0471292476
C   C120      1.0  0.55880  0.19840  0.41340  1.0000 -0.0471292476
C   C121      1.0  0.43280  0.68270  0.08300  1.0000 -0.1088838473
C   C122      1.0  0.06720  0.68270  0.91700  1.0000 -0.1088838473
C   C123      1.0  0.06720  0.18270  0.58300  1.0000 -0.1088838473
C   C124      1.0  0.43280  0.18270  0.41700  1.0000 -0.1088838473
C   C125      1.0  0.36600  0.64540  0.11280  1.0000 -0.1669620877
C   C126      1.0  0.13400  0.64540  0.88720  1.0000 -0.1669620877
C   C127      1.0  0.13400  0.14540  0.61280  1.0000 -0.1669620877
C   C128      1.0  0.36600  0.14540  0.38720  1.0000 -0.1669620877
C   C129      1.0  0.42920  0.62640  0.14880  1.0000 0.0811866293
C   C130      1.0  0.07080  0.62640  0.85120  1.0000 0.0811866293
C   C131      1.0  0.07080  0.12640  0.64880  1.0000 0.0811866293
C   C132      1.0  0.42920  0.12640  0.35120  1.0000 0.0811866293
C   C133      1.0  0.55960  0.64670  0.15230  1.0000 -0.1587597219
C   C134      1.0  0.94040  0.64670  0.84770  1.0000 -0.1587597219
C   C135      1.0  0.94040  0.14670  0.65230  1.0000 -0.1587597219
C   C136      1.0  0.55960  0.14670  0.34770  1.0000 -0.1587597219
C   C137      1.0  0.62400  0.68320  0.12170  1.0000 -0.1198927505
C   C138      1.0  0.87600  0.68320  0.87830  1.0000 -0.1198927505
C   C139      1.0  0.87600  0.18320  0.62170  1.0000 -0.1198927505
C   C140      1.0  0.62400  0.18320  0.37830  1.0000 -0.1198927505
C   C141      1.0  0.18500  0.72060  0.24090  1.0000 -0.1088838473
C   C142      1.0  0.31500  0.72060  0.75910  1.0000 -0.1088838473
C   C143      1.0  0.31500  0.22060  0.74090  1.0000 -0.1088838473
C   C144      1.0  0.18500  0.22060  0.25910  1.0000 -0.1088838473
C   C145      1.0  0.13520  0.67920  0.27260  1.0000 -0.1088838473
C   C146      1.0  0.36480  0.67920  0.72740  1.0000 -0.1088838473
C   C147      1.0  0.36480  0.17920  0.77260  1.0000 -0.1088838473
C   C148      1.0  0.13520  0.17920  0.22740  1.0000 -0.1088838473
C   C149      1.0  0.15530  0.60570  0.27300  1.0000 -0.1587597219
C   C150      1.0  0.34470  0.60570  0.72700  1.0000 -0.1587597219
C   C151      1.0  0.34470  0.10570  0.77300  1.0000 -0.1587597219
C   C152      1.0  0.15530  0.10570  0.22700  1.0000 -0.1587597219
C   C153      1.0  0.22960  0.57130  0.24190  1.0000 0.0226727793
C   C154      1.0  0.27040  0.57130  0.75810  1.0000 0.0226727793
C   C155      1.0  0.27040  0.07130  0.74190  1.0000 0.0226727793
C   C156      1.0  0.22960  0.07130  0.25810  1.0000 0.0226727793
C   C157      1.0  0.28690  0.61420  0.21110  1.0000 0.0226727793
C   C158      1.0  0.21310  0.61420  0.78890  1.0000 0.0226727793
C   C159      1.0  0.21310  0.11420  0.71110  1.0000 0.0226727793
C   C160      1.0  0.28690  0.11420  0.28890  1.0000 0.0226727793
C   C161      1.0  0.26070  0.69250  0.21140  1.0000 -0.154650169
C   C162      1.0  0.23930  0.69250  0.78860  1.0000 -0.154650169
C   C163      1.0  0.23930  0.19250  0.71140  1.0000 -0.154650169
C   C164      1.0  0.26070  0.19250  0.28860  1.0000 -0.154650169
C   C165      1.0  0.36420  0.58190  0.18100  1.0000 -0.0471292476
C   C166      1.0  0.13580  0.58190  0.81900  1.0000 -0.0471292476
C   C167      1.0  0.13580  0.08190  0.68100  1.0000 -0.0471292476
C   C168      1.0  0.36420  0.08190  0.31900  1.0000 -0.0471292476
C   C169      1.0  0.38080  0.50660  0.18070  1.0000 0.0226727793
C   C170      1.0  0.11920  0.50660  0.81930  1.0000 0.0226727793
C   C171      1.0  0.11920  0.00660  0.68070  1.0000 0.0226727793
C   C172      1.0  0.38080  0.00660  0.31930  1.0000 0.0226727793
C   C173      1.0  0.32850  0.46290  0.21280  1.0000 0.0253162951
C   C174      1.0  0.17150  0.46290  0.78720  1.0000 0.0253162951
C   C175      1.0  0.17150  0.96290  0.71280  1.0000 0.0253162951
C   C176      1.0  0.32850  0.96290  0.28720  1.0000 0.0253162951
C   C177      1.0  0.25290  0.49530  0.24290  1.0000 -0.0471292476
C   C178      1.0  0.24710  0.49530  0.75710  1.0000 -0.0471292476
C   C179      1.0  0.24710  0.99530  0.74290  1.0000 -0.0471292476
C   C180      1.0  0.25290  0.99530  0.25710  1.0000 -0.0471292476
C   C181      1.0  0.35640  0.38670  0.21170  1.0000 -0.1587597219
C   C182      1.0  0.14360  0.38670  0.78830  1.0000 -0.1587597219
C   C183      1.0  0.14360  0.88670  0.71170  1.0000 -0.1587597219
C   C184      1.0  0.35640  0.88670  0.28830  1.0000 -0.1587597219
C   C185      1.0  0.42600  0.35480  0.18180  1.0000 -0.1004450429
C   C186      1.0  0.07400  0.35480  0.81820  1.0000 -0.1004450429
C   C187      1.0  0.07400  0.85480  0.68180  1.0000 -0.1004450429
C   C188      1.0  0.42600  0.85480  0.31820  1.0000 -0.1004450429
C   C189      1.0  0.47790  0.39790  0.15050  1.0000 -0.1088838473
C   C190      1.0  0.02210  0.39790  0.84950  1.0000 -0.1088838473
C   C191      1.0  0.02210  0.89790  0.65050  1.0000 -0.1088838473
C   C192      1.0  0.47790  0.89790  0.34950  1.0000 -0.1088838473
C   C193      1.0  0.45890  0.46980  0.15010  1.0000 -0.1587597219
C   C194      1.0  0.04110  0.46980  0.84990  1.0000 -0.1587597219
C   C195      1.0  0.04110  0.96980  0.65010  1.0000 -0.1587597219
C   C196      1.0  0.45890  0.96980  0.34990  1.0000 -0.1587597219
C   C197      1.0  0.20220  0.45030  0.27720  1.0000 0.069658562
C   C198      1.0  0.29780  0.45030  0.72280  1.0000 0.069658562
C   C199      1.0  0.29780  0.95030  0.77720  1.0000 0.069658562
C   C200      1.0  0.20220  0.95030  0.22280  1.0000 0.069658562
C   C201      1.0  0.07220  0.42650  0.27820  1.0000 -0.177299433
C   C202      1.0  0.42780  0.42650  0.72180  1.0000 -0.177299433
C   C203      1.0  0.42780  0.92650  0.77820  1.0000 -0.177299433
C   C204      1.0  0.07220  0.92650  0.22180  1.0000 -0.177299433
C   C205      1.0  0.01990  0.38700  0.31010  1.0000 -0.1088838473
C   C206      1.0  0.48010  0.38700  0.68990  1.0000 -0.1088838473
C   C207      1.0  0.48010  0.88700  0.81010  1.0000 -0.1088838473
C   C208      1.0  0.01990  0.88700  0.18990  1.0000 -0.1088838473
C   C209      1.0  0.10160  0.37080  0.34250  1.0000 -0.0226234366
C   C210      1.0  0.39840  0.37080  0.65750  1.0000 -0.0226234366
C   C211      1.0  0.39840  0.87080  0.84250  1.0000 -0.0226234366
C   C212      1.0  0.10160  0.87080  0.15750  1.0000 -0.0226234366
C   C213      1.0  0.23500  0.38900  0.34110  1.0000 -0.1198927505
C   C214      1.0  0.26500  0.38900  0.65890  1.0000 -0.1198927505
C   C215      1.0  0.26500  0.88900  0.84110  1.0000 -0.1198927505
C   C216      1.0  0.23500  0.88900  0.15890  1.0000 -0.1198927505
C   C217      1.0  0.27980  0.43200  0.30920  1.0000 -0.1587597219
C   C218      1.0  0.22020  0.43200  0.69080  1.0000 -0.1587597219
C   C219      1.0  0.22020  0.93200  0.80920  1.0000 -0.1587597219
C   C220      1.0  0.27980  0.93200  0.19080  1.0000 -0.1587597219
C   C221      1.0  0.06130  0.32870  0.37920  1.0000 0.5201392168
C   C222      1.0  0.43870  0.32870  0.62080  1.0000 0.5201392168
C   C223      1.0  0.43870  0.82870  0.87920  1.0000 0.5201392168
C   C224      1.0  0.06130  0.82870  0.12080  1.0000 0.5201392168
O   O1        1.0  0.43870  0.18950  0.11840  1.0000 -0.603736118
O   O2        1.0  0.06130  0.18950  0.88160  1.0000 -0.6051293766
O   O3        1.0  0.06130  0.68950  0.61840  1.0000 -0.603736118
O   O4        1.0  0.43870  0.68950  0.38160  1.0000 -0.6051293766
O   O5        1.0  0.63120  0.17870  0.09200  1.0000 -0.5231841162
O   O6        1.0  0.86880  0.17870  0.90800  1.0000 -0.5254261171
O   O7        1.0  0.86880  0.67870  0.59200  1.0000 -0.5231841162
O   O8        1.0  0.63120  0.67870  0.40800  1.0000 -0.5254261171
O   O9        1.0  0.25800  0.75460  0.44360  1.0000 -0.6219018107
O   O10       1.0  0.24200  0.75460  0.55640  1.0000 -0.6219018107
O   O11       1.0  0.24200  0.25460  0.94360  1.0000 -0.6219018107
O   O12       1.0  0.25800  0.25460  0.05640  1.0000 -0.6219018107
O   O13       1.0  0.66840  0.16790  0.00670  1.0000 -0.4037751412
O   O14       1.0  0.83160  0.16790  0.99330  1.0000 -0.406778466
O   O15       1.0  0.83160  0.66790  0.50670  1.0000 -0.406778466
O   O16       1.0  0.66840  0.66790  0.49330  1.0000 -0.406778466
O   O17       1.0  0.08100  0.76200  0.48100  1.0000 -0.6434320025
O   O18       1.0  0.41900  0.76200  0.51900  1.0000 -0.6434320025
O   O19       1.0  0.41900  0.26200  0.98100  1.0000 -0.6434320025
O   O20       1.0  0.08100  0.26200  0.01900  1.0000 -0.6434320025
O   O21       1.0  0.93870  0.31050  0.38160  1.0000 -0.6051293766
O   O22       1.0  0.56130  0.31050  0.61840  1.0000 -0.6051293766
O   O23       1.0  0.56130  0.81050  0.88160  1.0000 -0.6051293766
O   O24       1.0  0.93870  0.81050  0.11840  1.0000 -0.603736118
O   O25       1.0  0.13120  0.32130  0.40800  1.0000 -0.5254261171
O   O26       1.0  0.36880  0.32130  0.59200  1.0000 -0.5254261171
O   O27       1.0  0.36880  0.82130  0.90800  1.0000 -0.5254261171
O   O28       1.0  0.13120  0.82130  0.09200  1.0000 -0.5231841162
O   O29       1.0  0.75800  0.74540  0.05640  1.0000 -0.6219018107
O   O30       1.0  0.74200  0.74540  0.94360  1.0000 -0.6219018107
O   O31       1.0  0.74200  0.24540  0.55640  1.0000 -0.6219018107
O   O32       1.0  0.75800  0.24540  0.44360  1.0000 -0.6219018107
O   O33       1.0  0.16840  0.33210  0.49330  1.0000 -0.406778466
O   O34       1.0  0.33160  0.33210  0.50670  1.0000 -0.406778466
O   O35       1.0  0.33160  0.83210  0.99330  1.0000 -0.406778466
O   O36       1.0  0.16840  0.83210  0.00670  1.0000 -0.406778466
O   O37       1.0  0.58100  0.73800  0.01900  1.0000 -0.6434320025
O   O38       1.0  0.91900  0.73800  0.98100  1.0000 -0.6434320025
O   O39       1.0  0.91900  0.23800  0.51900  1.0000 -0.645546869
O   O40       1.0  0.58100  0.23800  0.48100  1.0000 -0.6434320025
