# DDEC6 charges by PACMAN v1.3 (https://github.com/mtap-research/PACMAN-charge/)
data_2023[Ga][bpq]3[ASR]1_pacman
_symmetry_space_group_name_H-M   'P 1'
_cell_length_a   11.06870000
_cell_length_b   11.06870000
_cell_length_c   6.75150000
_cell_angle_alpha   73.77580000
_cell_angle_beta   106.22400000
_cell_angle_gamma   119.57500000
_symmetry_Int_Tables_number   1
_chemical_formula_structural   GaH5C8O5
_chemical_formula_sum   'Ga2 H10 C16 O10'
_cell_volume   680.75917382
_cell_formula_units_Z   2
loop_
 _symmetry_equiv_pos_site_id
 _symmetry_equiv_pos_as_xyz
  1  'x, y, z'
loop_
 _atom_site_type_symbol
 _atom_site_label
 _atom_site_symmetry_multiplicity
 _atom_site_fract_x
 _atom_site_fract_y
 _atom_site_fract_z
 _atom_site_occupancy
 _atom_site_charge
Ga  Ga1  1  0.50000000  0.50000000  0.00000000  1.0 1.4222721326
Ga  Ga2  1  0.50000000  0.50000000  0.50000000  1.0 1.4222721326
H  H1  1  0.66046000  0.66046000  0.75000000  1.0 0.415907042
H  H2  1  0.33954000  0.33954000  0.25000000  1.0 0.415907042
H  H3  1  0.46024000  0.09964000  0.21863000  1.0 0.1256200689
H  H4  1  0.09964000  0.46024000  0.28137000  1.0 0.1256200689
H  H5  1  0.53976000  0.90036000  0.78137000  1.0 0.1256200689
H  H6  1  0.90036000  0.53976000  0.71863000  1.0 0.1256200689
H  H7  1  0.48267000  0.89353000  0.34501000  1.0 0.1238767224
H  H8  1  0.89353000  0.48267000  0.15499000  1.0 0.1238767224
H  H9  1  0.51733000  0.10647000  0.65499000  1.0 0.1238767224
H  H10  1  0.10647000  0.51733000  0.84501000  1.0 0.1238767224
C  C1  1  0.47394000  0.25926000  0.84314000  1.0 0.6081918347
C  C2  1  0.25926000  0.47394000  0.65686000  1.0 0.6081918347
C  C3  1  0.52606000  0.74074000  0.15686000  1.0 0.6081918347
C  C4  1  0.74074000  0.52606000  0.34314000  1.0 0.6081918347
C  C5  1  0.48740000  0.12440000  0.92460000  1.0 -0.0235153177
C  C6  1  0.12440000  0.48740000  0.57540000  1.0 -0.0235153177
C  C7  1  0.51260000  0.87560000  0.07540000  1.0 -0.0235153177
C  C8  1  0.87560000  0.51260000  0.42460000  1.0 -0.0235153177
C  C9  1  0.47640000  0.05980000  0.13040000  1.0 -0.0990946908
C  C10  1  0.05980000  0.47640000  0.36960000  1.0 -0.0990946908
C  C11  1  0.52360000  0.94020000  0.86960000  1.0 -0.0990946908
C  C12  1  0.94020000  0.52360000  0.63040000  1.0 -0.0990946908
C  C13  1  0.48950000  0.93610000  0.20610000  1.0 -0.1061196905
C  C14  1  0.93610000  0.48950000  0.29390000  1.0 -0.1061196905
C  C15  1  0.51050000  0.06390000  0.79390000  1.0 -0.1061196905
C  C16  1  0.06390000  0.51050000  0.70610000  1.0 -0.1061196905
O  O1  1  0.48732000  0.31268000  0.65592000  1.0 -0.5532816184
O  O2  1  0.31268000  0.48732000  0.84408000  1.0 -0.5532816184
O  O3  1  0.51268000  0.68732000  0.34408000  1.0 -0.5532816184
O  O4  1  0.68732000  0.51268000  0.15592000  1.0 -0.5532816184
O  O5  1  0.44915000  0.30465000  0.97025000  1.0 -0.5613224042
O  O6  1  0.30465000  0.44915000  0.52975000  1.0 -0.5613224042
O  O7  1  0.55085000  0.69535000  0.02975000  1.0 -0.5613224042
O  O8  1  0.69535000  0.55085000  0.47025000  1.0 -0.5613224042
O  O9  1  0.57700000  0.57700000  0.75000000  1.0 -0.8668889833
O  O10  1  0.42300000  0.42300000  0.25000000  1.0 -0.8668889833
