# DDEC6 charges by PACMAN v1.1 (https://github.com/mtap-research/PACMAN-charge/)
data_2023[Co][nan]3[ASR]11
_chemical_formula_sum              "Co8 H64 C108 N16 O44"
_cell_length_a       14.0657
_cell_length_b       19.7007
_cell_length_c       19.3489
_cell_angle_alpha    90
_cell_angle_beta     108.341
_cell_angle_gamma    90

_symmetry_space_group_name_H-M    "P 1"
_symmetry_Int_Tables_number       1

loop_
  _symmetry_equiv_pos_as_xyz
  'x, y, z'

loop_
  _atom_site_type_symbol
  _atom_site_label
  _atom_site_symmetry_multiplicity
  _atom_site_fract_x
  _atom_site_fract_y
  _atom_site_fract_z
  _atom_site_occupancy
  _atom_site_charge
Co  Co1       1.0  0.75487  0.84107  0.66953  1.0000 0.9690109509
Co  Co2       1.0  0.24513  0.34107  0.83047  1.0000 0.9690109509
Co  Co3       1.0  0.24513  0.15893  0.33047  1.0000 0.9690109509
Co  Co4       1.0  0.75487  0.65893  0.16953  1.0000 0.9690109509
Co  Co5       1.0  0.01278  0.82287  0.78833  1.0000 0.9061329532
Co  Co6       1.0  0.98722  0.32287  0.71167  1.0000 0.9061329532
Co  Co7       1.0  0.98722  0.17713  0.21167  1.0000 0.9061329532
Co  Co8       1.0  0.01278  0.67713  0.28833  1.0000 0.9041051435
H   H1        1.0  0.19810  0.88690  0.75540  1.0000 0.1031850271
H   H2        1.0  0.80190  0.38690  0.74460  1.0000 0.1031850271
H   H3        1.0  0.80190  0.11310  0.24460  1.0000 0.1031850271
H   H4        1.0  0.19810  0.61310  0.25540  1.0000 0.1031850271
H   H5        1.0  0.23280  0.65730  0.38560  1.0000 0.1031850271
H   H6        1.0  0.76720  0.15730  0.11440  1.0000 0.1031850271
H   H7        1.0  0.76720  0.34270  0.61440  1.0000 0.1031850271
H   H8        1.0  0.23280  0.84270  0.88560  1.0000 0.1031850271
H   H9        1.0  0.56570  0.83180  0.54050  1.0000 0.1116180121
H   H10       1.0  0.43430  0.33180  0.95950  1.0000 0.1116180121
H   H11       1.0  0.43430  0.16820  0.45950  1.0000 0.1116180121
H   H12       1.0  0.56570  0.66820  0.04050  1.0000 0.1116180121
H   H13       1.0  0.62610  0.80070  0.97390  1.0000 0.1278854686
H   H14       1.0  0.37390  0.30070  0.52610  1.0000 0.1278854686
H   H15       1.0  0.37390  0.19930  0.02610  1.0000 0.1278854686
H   H16       1.0  0.62610  0.69930  0.47390  1.0000 0.1278854686
H   H17       1.0  0.39830  0.80110  0.50930  1.0000 0.139842257
H   H18       1.0  0.60170  0.30110  0.99070  1.0000 0.139842257
H   H19       1.0  0.60170  0.19890  0.49070  1.0000 0.139842257
H   H20       1.0  0.39830  0.69890  0.00930  1.0000 0.139842257
H   H21       1.0  0.07270  0.70820  0.70410  1.0000 0.1205421615
H   H22       1.0  0.92730  0.20820  0.79590  1.0000 0.1205421615
H   H23       1.0  0.92730  0.29180  0.29590  1.0000 0.1205421615
H   H24       1.0  0.07270  0.79180  0.20410  1.0000 0.1205421615
H   H25       1.0  0.33810  0.68470  0.50050  1.0000 0.139842257
H   H26       1.0  0.66190  0.18470  0.99950  1.0000 0.139842257
H   H27       1.0  0.66190  0.31530  0.49950  1.0000 0.139842257
H   H28       1.0  0.33810  0.81530  0.00050  1.0000 0.139842257
H   H29       1.0  0.01620  0.76810  0.41320  1.0000 0.1278854686
H   H30       1.0  0.98380  0.26810  0.08680  1.0000 0.1278854686
H   H31       1.0  0.98380  0.23190  0.58680  1.0000 0.1278854686
H   H32       1.0  0.01620  0.73190  0.91320  1.0000 0.1278854686
H   H33       1.0  0.60440  0.80040  0.74740  1.0000 0.1116180121
H   H34       1.0  0.39560  0.30040  0.75260  1.0000 0.1116180121
H   H35       1.0  0.39560  0.19960  0.25260  1.0000 0.1116180121
H   H36       1.0  0.60440  0.69960  0.24740  1.0000 0.1116180121
H   H37       1.0  0.11410  0.80120  0.52690  1.0000 0.1491197862
H   H38       1.0  0.88590  0.30120  0.97310  1.0000 0.1491197862
H   H39       1.0  0.88590  0.19880  0.47310  1.0000 0.1554368603
H   H40       1.0  0.11410  0.69880  0.02690  1.0000 0.1491197862
H   H41       1.0  0.17570  0.68370  0.63470  1.0000 0.1491197862
H   H42       1.0  0.82430  0.18370  0.86530  1.0000 0.1491197862
H   H43       1.0  0.82430  0.31630  0.36530  1.0000 0.1491197862
H   H44       1.0  0.17570  0.81630  0.13470  1.0000 0.1491197862
H   H45       1.0  0.63180  0.86860  0.86380  1.0000 0.1205421615
H   H46       1.0  0.36820  0.36860  0.63620  1.0000 0.1205421615
H   H47       1.0  0.36820  0.13140  0.13620  1.0000 0.1205421615
H   H48       1.0  0.63180  0.63140  0.36380  1.0000 0.1205421615
H   H49       1.0  0.28860  0.13150  0.87650  1.0000 0.1491197862
H   H50       1.0  0.71140  0.63150  0.62350  1.0000 0.1491197862
H   H51       1.0  0.71140  0.86850  0.12350  1.0000 0.1491197862
H   H52       1.0  0.28860  0.36850  0.37650  1.0000 0.1491197862
H   H53       1.0  0.30310  0.86820  0.68580  1.0000 0.139842257
H   H54       1.0  0.69690  0.36820  0.81420  1.0000 0.139842257
H   H55       1.0  0.69690  0.13180  0.31420  1.0000 0.139842257
H   H56       1.0  0.30310  0.63180  0.18580  1.0000 0.139842257
H   H57       1.0  0.43860  0.76890  0.72310  1.0000 0.1491197862
H   H58       1.0  0.56140  0.26890  0.77690  1.0000 0.1491197862
H   H59       1.0  0.56140  0.23110  0.27690  1.0000 0.1491197862
H   H60       1.0  0.43860  0.73110  0.22310  1.0000 0.1491197862
H   H61       1.0  0.24200  0.00710  0.88260  1.0000 0.139842257
H   H62       1.0  0.75800  0.50710  0.61740  1.0000 0.139842257
H   H63       1.0  0.75800  0.99290  0.11740  1.0000 0.139842257
H   H64       1.0  0.24200  0.49290  0.38260  1.0000 0.139842257
C   C1        1.0  0.77440  0.83030  0.88530  1.0000 0.0787479858
C   C2        1.0  0.22560  0.33030  0.61470  1.0000 0.0787479858
C   C3        1.0  0.22560  0.16970  0.11470  1.0000 0.0787479858
C   C4        1.0  0.77440  0.66970  0.38530  1.0000 0.0787479858
C   C5        1.0  0.19200  0.84550  0.72920  1.0000 0.1031850271
C   C6        1.0  0.80800  0.34550  0.77080  1.0000 0.1031850271
C   C7        1.0  0.80800  0.15450  0.27080  1.0000 0.1031850271
C   C8        1.0  0.19200  0.65450  0.22920  1.0000 0.1031850271
C   C9        1.0  0.82100  0.85250  0.83050  1.0000 0.5558284837
C   C10       1.0  0.17900  0.35250  0.66950  1.0000 0.5558284837
C   C11       1.0  0.17900  0.14750  0.16950  1.0000 0.5558284837
C   C12       1.0  0.82100  0.64750  0.33050  1.0000 0.5558284837
C   C13       1.0  0.80990  0.72420  0.04370  1.0000 0.5230770576
C   C14       1.0  0.19010  0.22420  0.45630  1.0000 0.5230770576
C   C15       1.0  0.19010  0.27580  0.95630  1.0000 0.5230770576
C   C16       1.0  0.80990  0.77580  0.54370  1.0000 0.5230770576
C   C17       1.0  0.04980  0.97200  0.77290  1.0000 0.5113901066
C   C18       1.0  0.95020  0.47200  0.72710  1.0000 0.5113901066
C   C19       1.0  0.95020  0.02800  0.22710  1.0000 0.5113901066
C   C20       1.0  0.04980  0.52800  0.27290  1.0000 0.5113901066
C   C21       1.0  0.13470  0.20990  0.76890  1.0000 0.5470680612
C   C22       1.0  0.86530  0.70990  0.73110  1.0000 0.5470680612
C   C23       1.0  0.86530  0.79010  0.23110  1.0000 0.5470680612
C   C24       1.0  0.13470  0.29010  0.26890  1.0000 0.5470680612
C   C25       1.0  0.23760  0.74760  0.52620  1.0000 0.2122573423
C   C26       1.0  0.76240  0.24760  0.97380  1.0000 0.2122573423
C   C27       1.0  0.76240  0.25240  0.47380  1.0000 0.2122573423
C   C28       1.0  0.23760  0.75240  0.02620  1.0000 0.2122573423
C   C29       1.0  0.39940  0.78310  0.61370  1.0000 0.217048468
C   C30       1.0  0.60060  0.28310  0.88630  1.0000 0.217048468
C   C31       1.0  0.60060  0.21690  0.38630  1.0000 0.217048468
C   C32       1.0  0.39940  0.71690  0.11370  1.0000 0.217048468
C   C33       1.0  0.20860  0.68660  0.41530  1.0000 0.0893993427
C   C34       1.0  0.79140  0.18660  0.08470  1.0000 0.0893993427
C   C35       1.0  0.79140  0.31340  0.58470  1.0000 0.0893993427
C   C36       1.0  0.20860  0.81340  0.91530  1.0000 0.0893993427
C   C37       1.0  0.53920  0.81920  0.57810  1.0000 0.1116180121
C   C38       1.0  0.46080  0.31920  0.92190  1.0000 0.1116180121
C   C39       1.0  0.46080  0.18080  0.42190  1.0000 0.1116180121
C   C40       1.0  0.53920  0.68080  0.07810  1.0000 0.1116180121
C   C41       1.0  0.11350  0.03270  0.79940  1.0000 0.0893993427
C   C42       1.0  0.88650  0.53270  0.70060  1.0000 0.0893993427
C   C43       1.0  0.88650  0.96730  0.20060  1.0000 0.0893993427
C   C44       1.0  0.11350  0.46730  0.29940  1.0000 0.0893993427
C   C45       1.0  0.68050  0.80310  0.95480  1.0000 -0.1863107316
C   C46       1.0  0.31950  0.30310  0.54520  1.0000 -0.1863107316
C   C47       1.0  0.31950  0.19690  0.04520  1.0000 -0.1863107316
C   C48       1.0  0.68050  0.69690  0.45480  1.0000 -0.1863107316
C   C49       1.0  0.15340  0.13850  0.79490  1.0000 0.0893993427
C   C50       1.0  0.84660  0.63850  0.70510  1.0000 0.0893993427
C   C51       1.0  0.84660  0.86150  0.20510  1.0000 0.0893993427
C   C52       1.0  0.15340  0.36150  0.29490  1.0000 0.0893993427
C   C53       1.0  0.43900  0.80110  0.55890  1.0000 -0.2399535545
C   C54       1.0  0.56100  0.30110  0.94110  1.0000 -0.2399535545
C   C55       1.0  0.56100  0.19890  0.44110  1.0000 -0.2399535545
C   C56       1.0  0.43900  0.69890  0.05890  1.0000 -0.2399535545
C   C57       1.0  0.11930  0.74150  0.69960  1.0000 0.1205421615
C   C58       1.0  0.88070  0.24150  0.80040  1.0000 0.1205421615
C   C59       1.0  0.88070  0.25850  0.30040  1.0000 0.1205421615
C   C60       1.0  0.11930  0.75850  0.19960  1.0000 0.1205421615
C   C61       1.0  0.27240  0.70310  0.48330  1.0000 -0.2399535545
C   C62       1.0  0.72760  0.20310  0.01670  1.0000 -0.2324115616
C   C63       1.0  0.72760  0.29690  0.51670  1.0000 -0.2324115616
C   C64       1.0  0.27240  0.79690  0.98330  1.0000 -0.2399535545
C   C65       1.0  0.08270  0.75130  0.43100  1.0000 0.1278854686
C   C66       1.0  0.91730  0.25130  0.06900  1.0000 0.139842257
C   C67       1.0  0.91730  0.24870  0.56900  1.0000 0.1278854686
C   C68       1.0  0.08270  0.74870  0.93100  1.0000 0.139842257
C   C69       1.0  0.76950  0.77100  0.98100  1.0000 0.0787479858
C   C70       1.0  0.23050  0.27100  0.51900  1.0000 0.0787479858
C   C71       1.0  0.23050  0.22900  0.01900  1.0000 0.0787479858
C   C72       1.0  0.76950  0.72900  0.48100  1.0000 0.0787479858
C   C73       1.0  0.56170  0.80100  0.69830  1.0000 0.1205421615
C   C74       1.0  0.43830  0.30100  0.80170  1.0000 0.1205421615
C   C75       1.0  0.43830  0.19900  0.30170  1.0000 0.1205421615
C   C76       1.0  0.56170  0.69900  0.19830  1.0000 0.1205421615
C   C77       1.0  0.14040  0.77130  0.49890  1.0000 -0.2187278253
C   C78       1.0  0.85960  0.27130  0.00110  1.0000 -0.2187278253
C   C79       1.0  0.85960  0.22870  0.50110  1.0000 -0.2187278253
C   C80       1.0  0.14040  0.72870  0.99890  1.0000 -0.2187278253
C   C81       1.0  0.17950  0.72670  0.65750  1.0000 -0.2090310194
C   C82       1.0  0.82050  0.22670  0.84250  1.0000 -0.2090310194
C   C83       1.0  0.82050  0.27330  0.34250  1.0000 -0.2090310194
C   C84       1.0  0.17950  0.77330  0.15750  1.0000 -0.2090310194
C   C85       1.0  0.68380  0.84080  0.89360  1.0000 -0.2090310194
C   C86       1.0  0.31620  0.34080  0.60640  1.0000 -0.2090310194
C   C87       1.0  0.31620  0.15920  0.10640  1.0000 -0.2090310194
C   C88       1.0  0.68380  0.65920  0.39360  1.0000 -0.2090310194
C   C89       1.0  0.24570  0.77590  0.64910  1.0000 0.1920475568
C   C90       1.0  0.75430  0.27590  0.85090  1.0000 0.1920475568
C   C91       1.0  0.75430  0.22410  0.35090  1.0000 0.1920475568
C   C92       1.0  0.24570  0.72410  0.14910  1.0000 0.1920475568
C   C93       1.0  0.22930  0.10970  0.84740  1.0000 -0.1776925622
C   C94       1.0  0.77070  0.60970  0.65260  1.0000 -0.1776925622
C   C95       1.0  0.77070  0.89030  0.15260  1.0000 -0.1776925622
C   C96       1.0  0.22930  0.39030  0.34740  1.0000 -0.1776925622
C   C97       1.0  0.25490  0.83510  0.68750  1.0000 -0.2324115616
C   C98       1.0  0.74510  0.33510  0.81250  1.0000 -0.2324115616
C   C99       1.0  0.74510  0.16490  0.31250  1.0000 -0.2324115616
C   C100      1.0  0.25490  0.66490  0.18750  1.0000 -0.2324115616
C   C101      1.0  0.46260  0.78220  0.68440  1.0000 -0.2324115616
C   C102      1.0  0.53740  0.28220  0.81560  1.0000 -0.2324115616
C   C103      1.0  0.53740  0.21780  0.31560  1.0000 -0.2324115616
C   C104      1.0  0.46260  0.71780  0.18440  1.0000 -0.2324115616
C   C105      1.0  0.20370  0.04080  0.85080  1.0000 -0.1863107316
C   C106      1.0  0.79630  0.54080  0.64920  1.0000 -0.1776925622
C   C107      1.0  0.79630  0.95920  0.14920  1.0000 -0.1863107316
C   C108      1.0  0.20370  0.45920  0.35080  1.0000 -0.1776925622
N   N1        1.0  0.60060  0.81990  0.64660  1.0000 -0.2511954439
N   N2        1.0  0.39940  0.31990  0.85340  1.0000 -0.2511954439
N   N3        1.0  0.39940  0.18010  0.35340  1.0000 -0.2511954439
N   N4        1.0  0.60060  0.68010  0.14660  1.0000 -0.2511954439
N   N5        1.0  0.29810  0.76410  0.59760  1.0000 -0.1776925622
N   N6        1.0  0.70190  0.26410  0.90240  1.0000 -0.1776925622
N   N7        1.0  0.70190  0.23590  0.40240  1.0000 -0.1746985001
N   N8        1.0  0.29810  0.73590  0.09760  1.0000 -0.1776925622
N   N9        1.0  0.12370  0.80080  0.73460  1.0000 -0.2399535545
N   N10       1.0  0.87630  0.30080  0.76540  1.0000 -0.2399535545
N   N11       1.0  0.87630  0.19920  0.26540  1.0000 -0.2399535545
N   N12       1.0  0.12370  0.69920  0.23460  1.0000 -0.2399535545
N   N13       1.0  0.11370  0.70980  0.38840  1.0000 -0.2399535545
N   N14       1.0  0.88630  0.20980  0.11160  1.0000 -0.2324115616
N   N15       1.0  0.88630  0.29020  0.61160  1.0000 -0.2399535545
N   N16       1.0  0.11370  0.79020  0.88840  1.0000 -0.2399535545
O   O1        1.0  0.07350  0.91924  0.81118  1.0000 -0.5608013105
O   O2        1.0  0.92650  0.41924  0.68882  1.0000 -0.5608013105
O   O3        1.0  0.92650  0.08076  0.18882  1.0000 -0.5608013105
O   O4        1.0  0.07350  0.58076  0.31118  1.0000 -0.5608013105
O   O5        1.0  0.82960  0.78693  0.93916  1.0000 -0.0962653887
O   O6        1.0  0.17040  0.28693  0.56084  1.0000 -0.0962653887
O   O7        1.0  0.17040  0.21307  0.06084  1.0000 -0.0962653887
O   O8        1.0  0.82960  0.71307  0.43916  1.0000 -0.0962653887
O   O9        1.0  0.08050  0.09204  0.76469  1.0000 -0.0938600023
O   O10       1.0  0.91950  0.59204  0.73531  1.0000 -0.0938600023
O   O11       1.0  0.91950  0.90796  0.23531  1.0000 -0.0938600023
O   O12       1.0  0.08050  0.40796  0.26469  1.0000 -0.0938600023
O   O13       1.0  0.76380  0.87886  0.77307  1.0000 -0.5608013105
O   O14       1.0  0.23620  0.37886  0.72693  1.0000 -0.5608013105
O   O15       1.0  0.23620  0.12114  0.22693  1.0000 -0.5608013105
O   O16       1.0  0.76380  0.62114  0.27307  1.0000 -0.5608013105
O   O17       1.0  0.97990  0.97741  0.71410  1.0000 -0.464106106
O   O18       1.0  0.02010  0.47741  0.78590  1.0000 -0.464106106
O   O19       1.0  0.02010  0.02259  0.28590  1.0000 -0.466053648
O   O20       1.0  0.97990  0.52259  0.21410  1.0000 -0.464106106
O   O21       1.0  0.91370  0.84171  0.84514  1.0000 -0.5242149266
O   O22       1.0  0.08630  0.34171  0.65486  1.0000 -0.5284910393
O   O23       1.0  0.08630  0.15829  0.15486  1.0000 -0.5242149266
O   O24       1.0  0.91370  0.65829  0.34514  1.0000 -0.5242149266
O   O25       1.0  0.74380  0.70230  0.06990  1.0000 -0.5824184251
O   O26       1.0  0.25620  0.20230  0.43010  1.0000 -0.5824184251
O   O27       1.0  0.25620  0.29770  0.93010  1.0000 -0.5824184251
O   O28       1.0  0.74380  0.79770  0.56990  1.0000 -0.5824184251
O   O29       1.0  0.90080  0.71040  0.06580  1.0000 -0.5023376328
O   O30       1.0  0.09920  0.21040  0.43420  1.0000 -0.5023376328
O   O31       1.0  0.09920  0.28960  0.93420  1.0000 -0.5023376328
O   O32       1.0  0.90080  0.78960  0.56580  1.0000 -0.5023376328
O   O33       1.0  0.91130  0.85676  0.68507  1.0000 -0.2511954439
O   O34       1.0  0.08870  0.35676  0.81493  1.0000 -0.2511954439
O   O35       1.0  0.08870  0.14324  0.31493  1.0000 -0.2511954439
O   O36       1.0  0.91130  0.64324  0.18507  1.0000 -0.2399535545
O   O37       1.0  0.04600  0.22624  0.73557  1.0000 -0.5284910393
O   O38       1.0  0.95400  0.72624  0.76443  1.0000 -0.5284910393
O   O39       1.0  0.95400  0.77376  0.26443  1.0000 -0.5284910393
O   O40       1.0  0.04600  0.27376  0.23557  1.0000 -0.5284910393
O   O41       1.0  0.21220  0.24678  0.78400  1.0000 -0.5395358634
O   O42       1.0  0.78780  0.74678  0.71600  1.0000 -0.5395358634
O   O43       1.0  0.78780  0.75322  0.21600  1.0000 -0.5395358634
O   O44       1.0  0.21220  0.25322  0.28400  1.0000 -0.5395358634
