# DDEC6 charges by PACMAN v1.1 (https://github.com/mtap-research/PACMAN-charge/)
data_2023[Zn][nan]2[ASR]5
_chemical_formula_sum              "Zn4 H100 C136 N20 O24"
_cell_length_a       8.4127
_cell_length_b       12.8129
_cell_length_c       32.6219
_cell_angle_alpha    90
_cell_angle_beta     103.715
_cell_angle_gamma    90

_symmetry_space_group_name_H-M    "P 1"
_symmetry_Int_Tables_number       1

loop_
  _symmetry_equiv_pos_as_xyz
  'x, y, z'

loop_
  _atom_site_type_symbol
  _atom_site_label
  _atom_site_symmetry_multiplicity
  _atom_site_fract_x
  _atom_site_fract_y
  _atom_site_fract_z
  _atom_site_occupancy
  _atom_site_charge
Zn  Zn1       1.0  0.14530  0.17765  0.18510  1.0000 0.7432493462
Zn  Zn2       1.0  0.14530  0.32235  0.68510  1.0000 0.7432493462
Zn  Zn3       1.0  0.85470  0.67765  0.31490  1.0000 0.7432493462
Zn  Zn4       1.0  0.85470  0.82235  0.81490  1.0000 0.7432493462
H   H1        1.0  0.99319  0.36714  0.59587  1.0000 0.1207618021
H   H2        1.0  0.99319  0.13286  0.09587  1.0000 0.1207618021
H   H3        1.0  0.97107  0.29649  0.53089  1.0000 0.1294309292
H   H4        1.0  0.97107  0.20351  0.03089  1.0000 0.1294309292
H   H5        1.0  0.32668  0.09931  0.58171  1.0000 0.1294309292
H   H6        1.0  0.32668  0.40069  0.08171  1.0000 0.1294309292
H   H7        1.0  0.34232  0.17718  0.64518  1.0000 0.1022695458
H   H8        1.0  0.34232  0.32282  0.14518  1.0000 0.1022695458
H   H9        1.0  0.95616  0.22935  0.47192  1.0000 0.1207618021
H   H10       1.0  0.95616  0.27065  0.97192  1.0000 0.1207618021
H   H11       1.0  0.08860  0.99044  0.40914  1.0000 0.1294309292
H   H12       1.0  0.08860  0.50956  0.90914  1.0000 0.1294309292
H   H13       1.0  0.26075  0.86804  0.41150  1.0000 0.1294309292
H   H14       1.0  0.26075  0.63196  0.91150  1.0000 0.1294309292
H   H15       1.0  0.40565  0.71736  0.41899  1.0000 0.1116458249
H   H16       1.0  0.40565  0.78264  0.91899  1.0000 0.1116458249
H   H17       1.0  0.53798  0.75248  0.53908  1.0000 0.1116458249
H   H18       1.0  0.53798  0.74752  0.03908  1.0000 0.1116458249
H   H19       1.0  0.39019  0.90116  0.53592  1.0000 0.1207618021
H   H20       1.0  0.39019  0.59884  0.03592  1.0000 0.1207618021
H   H21       1.0  0.82603  0.28964  0.41565  1.0000 0.1207618021
H   H22       1.0  0.82603  0.21036  0.91565  1.0000 0.1207618021
H   H23       1.0  0.63776  0.34279  0.35679  1.0000 0.1294309292
H   H24       1.0  0.63776  0.15721  0.85679  1.0000 0.1294309292
H   H25       1.0  0.70429  0.07795  0.29928  1.0000 0.1207618021
H   H26       1.0  0.70429  0.42205  0.79928  1.0000 0.1207618021
H   H27       1.0  0.89051  0.02477  0.35837  1.0000 0.1207618021
H   H28       1.0  0.89051  0.47523  0.85837  1.0000 0.1207618021
H   H29       1.0  0.45575  0.11376  0.25444  1.0000 0.1116458249
H   H30       1.0  0.45575  0.38624  0.75444  1.0000 0.1116458249
H   H31       1.0  0.29074  0.39610  0.22795  1.0000 0.1294309292
H   H32       1.0  0.29074  0.10390  0.72795  1.0000 0.1294309292
H   H33       1.0  0.50797  0.40718  0.29182  1.0000 0.1294309292
H   H34       1.0  0.50797  0.09282  0.79182  1.0000 0.1294309292
H   H35       1.0  0.74972  0.38009  0.21842  1.0000 0.1116458249
H   H36       1.0  0.74972  0.11991  0.71842  1.0000 0.1116458249
H   H37       1.0  0.65914  0.29278  0.18809  1.0000 0.1294309292
H   H38       1.0  0.65914  0.20722  0.68809  1.0000 0.1294309292
H   H39       1.0  0.87783  0.52304  0.21997  1.0000 0.1207618021
H   H40       1.0  0.87783  0.97696  0.71997  1.0000 0.1207618021
H   H41       1.0  0.96433  0.69300  0.22085  1.0000 0.1207618021
H   H42       1.0  0.96433  0.80700  0.72085  1.0000 0.1207618021
H   H43       1.0  0.65109  0.74065  0.11022  1.0000 0.1207618021
H   H44       1.0  0.65109  0.75935  0.61022  1.0000 0.1207618021
H   H45       1.0  0.56272  0.57280  0.10994  1.0000 0.1294309292
H   H46       1.0  0.56272  0.92720  0.60994  1.0000 0.1294309292
H   H47       1.0  0.96575  0.87854  0.21960  1.0000 0.1207618021
H   H48       1.0  0.96575  0.62146  0.71960  1.0000 0.1207618021
H   H49       1.0  0.09110  0.83217  0.19554  1.0000 0.1207618021
H   H50       1.0  0.09110  0.66783  0.69554  1.0000 0.1207618021
H   H51       1.0  0.00681  0.86714  0.90413  1.0000 0.1207618021
H   H52       1.0  0.00681  0.63286  0.40413  1.0000 0.1207618021
H   H53       1.0  0.02893  0.79649  0.96911  1.0000 0.1294309292
H   H54       1.0  0.02893  0.70351  0.46911  1.0000 0.1294309292
H   H55       1.0  0.67332  0.59931  0.91829  1.0000 0.1294309292
H   H56       1.0  0.67332  0.90069  0.41829  1.0000 0.1294309292
H   H57       1.0  0.65768  0.67718  0.85482  1.0000 0.1022695458
H   H58       1.0  0.65768  0.82282  0.35482  1.0000 0.1022695458
H   H59       1.0  0.04384  0.72935  0.02808  1.0000 0.1207618021
H   H60       1.0  0.04384  0.77065  0.52808  1.0000 0.1207618021
H   H61       1.0  0.91140  0.49044  0.09086  1.0000 0.1294309292
H   H62       1.0  0.91140  0.00956  0.59086  1.0000 0.1294309292
H   H63       1.0  0.73925  0.36804  0.08850  1.0000 0.1294309292
H   H64       1.0  0.73925  0.13196  0.58850  1.0000 0.1294309292
H   H65       1.0  0.59435  0.21736  0.08101  1.0000 0.1116458249
H   H66       1.0  0.59435  0.28264  0.58101  1.0000 0.1116458249
H   H67       1.0  0.46202  0.25248  0.96092  1.0000 0.1116458249
H   H68       1.0  0.46202  0.24752  0.46092  1.0000 0.1116458249
H   H69       1.0  0.60981  0.40116  0.96408  1.0000 0.1207618021
H   H70       1.0  0.60981  0.09884  0.46408  1.0000 0.1207618021
H   H71       1.0  0.17397  0.78964  0.08435  1.0000 0.1207618021
H   H72       1.0  0.17397  0.71036  0.58435  1.0000 0.1207618021
H   H73       1.0  0.36224  0.84279  0.14321  1.0000 0.1294309292
H   H74       1.0  0.36224  0.65721  0.64321  1.0000 0.1294309292
H   H75       1.0  0.29571  0.57795  0.20072  1.0000 0.1207618021
H   H76       1.0  0.29571  0.92205  0.70072  1.0000 0.1207618021
H   H77       1.0  0.10949  0.52477  0.14163  1.0000 0.1207618021
H   H78       1.0  0.10949  0.97523  0.64163  1.0000 0.1207618021
H   H79       1.0  0.54425  0.61376  0.24556  1.0000 0.1116458249
H   H80       1.0  0.54425  0.88624  0.74556  1.0000 0.1116458249
H   H81       1.0  0.70926  0.89610  0.27205  1.0000 0.1294309292
H   H82       1.0  0.70926  0.60390  0.77205  1.0000 0.1294309292
H   H83       1.0  0.49203  0.90718  0.20818  1.0000 0.1294309292
H   H84       1.0  0.49203  0.59282  0.70818  1.0000 0.1294309292
H   H85       1.0  0.25028  0.88009  0.28158  1.0000 0.1116458249
H   H86       1.0  0.25028  0.61991  0.78158  1.0000 0.1116458249
H   H87       1.0  0.34086  0.79278  0.31191  1.0000 0.1294309292
H   H88       1.0  0.34086  0.70722  0.81191  1.0000 0.1294309292
H   H89       1.0  0.12217  0.02304  0.28003  1.0000 0.1207618021
H   H90       1.0  0.12217  0.47696  0.78003  1.0000 0.1207618021
H   H91       1.0  0.03567  0.19300  0.27915  1.0000 0.1207618021
H   H92       1.0  0.03567  0.30700  0.77915  1.0000 0.1207618021
H   H93       1.0  0.34891  0.24065  0.38978  1.0000 0.1207618021
H   H94       1.0  0.34891  0.25935  0.88978  1.0000 0.1207618021
H   H95       1.0  0.43728  0.07280  0.39006  1.0000 0.1294309292
H   H96       1.0  0.43728  0.42720  0.89006  1.0000 0.1294309292
H   H97       1.0  0.03425  0.37854  0.28040  1.0000 0.1207618021
H   H98       1.0  0.03425  0.12146  0.78040  1.0000 0.1207618021
H   H99       1.0  0.90890  0.33217  0.30446  1.0000 0.1207618021
H   H100      1.0  0.90890  0.16783  0.80446  1.0000 0.1207618021
C   C1        1.0  0.06224  0.31230  0.59304  1.0000 0.0757310396
C   C2        1.0  0.06224  0.18770  0.09304  1.0000 0.0757310396
C   C3        1.0  0.04737  0.26960  0.55387  1.0000 -0.1815483609
C   C4        1.0  0.04737  0.23040  0.05387  1.0000 -0.1815483609
C   C5        1.0  0.14432  0.18740  0.54832  1.0000 0.0889777138
C   C6        1.0  0.14432  0.31260  0.04832  1.0000 0.0889777138
C   C7        1.0  0.25647  0.15410  0.58367  1.0000 -0.1815483609
C   C8        1.0  0.25647  0.34590  0.08367  1.0000 -0.1815483609
C   C9        1.0  0.26519  0.20140  0.62179  1.0000 0.0715979791
C   C10       1.0  0.26519  0.29860  0.12179  1.0000 0.0715979791
C   C11       1.0  0.12694  0.13460  0.50694  1.0000 0.1995109121
C   C12       1.0  0.12694  0.36540  0.00694  1.0000 0.1995109121
C   C13       1.0  0.01758  0.16960  0.47078  1.0000 -0.233549516
C   C14       1.0  0.01758  0.33040  0.97078  1.0000 -0.233549516
C   C15       1.0  0.99905  0.11640  0.43305  1.0000 0.1207618021
C   C16       1.0  0.99905  0.38360  0.93305  1.0000 0.1207618021
C   C17       1.0  0.09552  0.02870  0.43372  1.0000 -0.2221550302
C   C18       1.0  0.09552  0.47130  0.93372  1.0000 -0.2221550302
C   C19       1.0  0.20229  0.99760  0.47089  1.0000 0.1995109121
C   C20       1.0  0.20229  0.50240  0.97089  1.0000 0.1995109121
C   C21       1.0  0.30334  0.90200  0.47324  1.0000 0.0715979791
C   C22       1.0  0.30334  0.59800  0.97324  1.0000 0.0715979791
C   C23       1.0  0.31381  0.84520  0.43831  1.0000 -0.1906668255
C   C24       1.0  0.31381  0.65480  0.93831  1.0000 -0.1906668255
C   C25       1.0  0.40279  0.75490  0.44319  1.0000 0.0609287899
C   C26       1.0  0.40279  0.74510  0.94319  1.0000 0.0609287899
C   C27       1.0  0.47841  0.77490  0.51281  1.0000 0.0609287899
C   C28       1.0  0.47841  0.72510  0.01281  1.0000 0.0609287899
C   C29       1.0  0.39062  0.86500  0.51122  1.0000 -0.1906668255
C   C30       1.0  0.39062  0.63500  0.01122  1.0000 -0.1906668255
C   C31       1.0  0.87899  0.15000  0.39439  1.0000 0.0609287899
C   C32       1.0  0.87899  0.35000  0.89439  1.0000 0.0609287899
C   C33       1.0  0.80099  0.24580  0.39229  1.0000 -0.1369284795
C   C34       1.0  0.80099  0.25420  0.89229  1.0000 -0.1369284795
C   C35       1.0  0.68824  0.27810  0.35704  1.0000 -0.1815483609
C   C36       1.0  0.68824  0.22190  0.85704  1.0000 -0.1815483609
C   C37       1.0  0.65009  0.21520  0.32219  1.0000 0.144171734
C   C38       1.0  0.65009  0.28480  0.82219  1.0000 0.144171734
C   C39       1.0  0.72779  0.12070  0.32299  1.0000 -0.1906668255
C   C40       1.0  0.72779  0.37930  0.82299  1.0000 -0.1906668255
C   C41       1.0  0.83954  0.08920  0.35844  1.0000 -0.117078706
C   C42       1.0  0.83954  0.41080  0.85844  1.0000 -0.117078706
C   C43       1.0  0.44135  0.18560  0.25565  1.0000 0.1022695458
C   C44       1.0  0.44135  0.31440  0.75565  1.0000 0.1022695458
C   C45       1.0  0.35192  0.34010  0.24142  1.0000 -0.0527208292
C   C46       1.0  0.35192  0.15990  0.74142  1.0000 -0.0527208292
C   C47       1.0  0.47131  0.34690  0.27661  1.0000 -0.0997464613
C   C48       1.0  0.47131  0.15310  0.77661  1.0000 -0.0997464613
C   C49       1.0  0.89309  0.31810  0.18149  1.0000 0.5636278881
C   C50       1.0  0.89309  0.18190  0.68149  1.0000 0.5636278881
C   C51       1.0  0.73030  0.35300  0.18990  1.0000 -0.1815483609
C   C52       1.0  0.73030  0.14700  0.68990  1.0000 -0.1815483609
C   C53       1.0  0.71275  0.53010  0.16495  1.0000 0.2168052176
C   C54       1.0  0.71275  0.96990  0.66495  1.0000 0.2168052176
C   C55       1.0  0.83176  0.56710  0.19766  1.0000 -0.1956394271
C   C56       1.0  0.83176  0.93290  0.69766  1.0000 -0.1956394271
C   C57       1.0  0.88431  0.66850  0.19811  1.0000 -0.2100472388
C   C58       1.0  0.88431  0.83150  0.69811  1.0000 -0.2100472388
C   C59       1.0  0.81923  0.73380  0.16513  1.0000 0.2168052176
C   C60       1.0  0.81923  0.76620  0.66513  1.0000 0.2168052176
C   C61       1.0  0.69778  0.69660  0.13248  1.0000 -0.1906668255
C   C62       1.0  0.69778  0.80340  0.63248  1.0000 -0.1906668255
C   C63       1.0  0.64507  0.59670  0.13227  1.0000 -0.1906668255
C   C64       1.0  0.64507  0.90330  0.63227  1.0000 -0.1906668255
C   C65       1.0  0.99533  0.87630  0.19263  1.0000 -0.1730141746
C   C66       1.0  0.99533  0.62370  0.69263  1.0000 -0.1730141746
C   C67       1.0  0.03248  0.98420  0.17978  1.0000 0.582303275
C   C68       1.0  0.03248  0.51580  0.67978  1.0000 0.582303275
C   C69       1.0  0.93776  0.81230  0.90696  1.0000 0.0757310396
C   C70       1.0  0.93776  0.68770  0.40696  1.0000 0.0757310396
C   C71       1.0  0.95263  0.76960  0.94613  1.0000 -0.1815483609
C   C72       1.0  0.95263  0.73040  0.44613  1.0000 -0.1815483609
C   C73       1.0  0.85568  0.68740  0.95168  1.0000 0.0889777138
C   C74       1.0  0.85568  0.81260  0.45168  1.0000 0.0889777138
C   C75       1.0  0.74353  0.65410  0.91633  1.0000 -0.1815483609
C   C76       1.0  0.74353  0.84590  0.41633  1.0000 -0.1815483609
C   C77       1.0  0.73481  0.70140  0.87821  1.0000 0.0715979791
C   C78       1.0  0.73481  0.79860  0.37821  1.0000 0.0715979791
C   C79       1.0  0.87306  0.63460  0.99306  1.0000 0.1995109121
C   C80       1.0  0.87306  0.86540  0.49306  1.0000 0.1995109121
C   C81       1.0  0.98242  0.66960  0.02922  1.0000 -0.233549516
C   C82       1.0  0.98242  0.83040  0.52922  1.0000 -0.233549516
C   C83       1.0  0.00095  0.61640  0.06695  1.0000 0.1207618021
C   C84       1.0  0.00095  0.88360  0.56695  1.0000 0.1207618021
C   C85       1.0  0.90448  0.52870  0.06628  1.0000 -0.2221550302
C   C86       1.0  0.90448  0.97130  0.56628  1.0000 -0.2221550302
C   C87       1.0  0.79771  0.49760  0.02911  1.0000 0.1995109121
C   C88       1.0  0.79771  0.00240  0.52911  1.0000 0.1995109121
C   C89       1.0  0.69666  0.40200  0.02676  1.0000 0.0715979791
C   C90       1.0  0.69666  0.09800  0.52676  1.0000 0.0715979791
C   C91       1.0  0.68619  0.34520  0.06169  1.0000 -0.1906668255
C   C92       1.0  0.68619  0.15480  0.56169  1.0000 -0.1906668255
C   C93       1.0  0.59721  0.25490  0.05681  1.0000 0.0609287899
C   C94       1.0  0.59721  0.24510  0.55681  1.0000 0.0609287899
C   C95       1.0  0.52159  0.27490  0.98719  1.0000 0.0609287899
C   C96       1.0  0.52159  0.22510  0.48719  1.0000 0.0609287899
C   C97       1.0  0.60938  0.36500  0.98878  1.0000 -0.1906668255
C   C98       1.0  0.60938  0.13500  0.48878  1.0000 -0.1906668255
C   C99       1.0  0.12101  0.65000  0.10561  1.0000 0.0609287899
C   C100      1.0  0.12101  0.85000  0.60561  1.0000 0.0609287899
C   C101      1.0  0.19901  0.74580  0.10771  1.0000 -0.1369284795
C   C102      1.0  0.19901  0.75420  0.60771  1.0000 -0.1369284795
C   C103      1.0  0.31176  0.77810  0.14296  1.0000 -0.1815483609
C   C104      1.0  0.31176  0.72190  0.64296  1.0000 -0.1815483609
C   C105      1.0  0.34991  0.71520  0.17781  1.0000 0.144171734
C   C106      1.0  0.34991  0.78480  0.67781  1.0000 0.144171734
C   C107      1.0  0.27221  0.62070  0.17701  1.0000 -0.1906668255
C   C108      1.0  0.27221  0.87930  0.67701  1.0000 -0.1906668255
C   C109      1.0  0.16046  0.58920  0.14156  1.0000 -0.117078706
C   C110      1.0  0.16046  0.91080  0.64156  1.0000 -0.117078706
C   C111      1.0  0.55865  0.68560  0.24435  1.0000 0.1022695458
C   C112      1.0  0.55865  0.81440  0.74435  1.0000 0.1022695458
C   C113      1.0  0.64808  0.84010  0.25858  1.0000 -0.0527208292
C   C114      1.0  0.64808  0.65990  0.75858  1.0000 -0.0527208292
C   C115      1.0  0.52869  0.84690  0.22339  1.0000 -0.0997464613
C   C116      1.0  0.52869  0.65310  0.72339  1.0000 -0.0997464613
C   C117      1.0  0.10691  0.81810  0.31851  1.0000 0.5636278881
C   C118      1.0  0.10691  0.68190  0.81851  1.0000 0.5636278881
C   C119      1.0  0.26970  0.85300  0.31010  1.0000 -0.1815483609
C   C120      1.0  0.26970  0.64700  0.81010  1.0000 -0.1815483609
C   C121      1.0  0.28725  0.03010  0.33505  1.0000 0.2145756228
C   C122      1.0  0.28725  0.46990  0.83505  1.0000 0.2168052176
C   C123      1.0  0.16824  0.06710  0.30234  1.0000 -0.1956394271
C   C124      1.0  0.16824  0.43290  0.80234  1.0000 -0.1956394271
C   C125      1.0  0.11569  0.16850  0.30189  1.0000 -0.2100472388
C   C126      1.0  0.11569  0.33150  0.80189  1.0000 -0.2100472388
C   C127      1.0  0.18077  0.23380  0.33487  1.0000 0.2168052176
C   C128      1.0  0.18077  0.26620  0.83487  1.0000 0.2168052176
C   C129      1.0  0.30222  0.19660  0.36752  1.0000 -0.1906668255
C   C130      1.0  0.30222  0.30340  0.86752  1.0000 -0.1906668255
C   C131      1.0  0.35493  0.09670  0.36773  1.0000 -0.1906668255
C   C132      1.0  0.35493  0.40330  0.86773  1.0000 -0.1906668255
C   C133      1.0  0.00467  0.37630  0.30737  1.0000 -0.1730141746
C   C134      1.0  0.00467  0.12370  0.80737  1.0000 -0.1730141746
C   C135      1.0  0.96752  0.48420  0.32022  1.0000 0.582303275
C   C136      1.0  0.96752  0.01580  0.82022  1.0000 0.582303275
N   N1        1.0  0.16967  0.27972  0.62707  1.0000 -0.2100472388
N   N2        1.0  0.16967  0.22028  0.12707  1.0000 -0.2100472388
N   N3        1.0  0.21806  0.04954  0.50726  1.0000 -0.3168041812
N   N4        1.0  0.21806  0.45046  0.00726  1.0000 -0.3168041812
N   N5        1.0  0.48461  0.71730  0.47961  1.0000 -0.2443808348
N   N6        1.0  0.48461  0.78270  0.97961  1.0000 -0.2443808348
N   N7        1.0  0.52905  0.24760  0.28585  1.0000 0.005931256
N   N8        1.0  0.52905  0.25240  0.78585  1.0000 0.005931256
N   N9        1.0  0.33320  0.23862  0.22820  1.0000 -0.281246263
N   N10       1.0  0.33320  0.26138  0.72820  1.0000 -0.281246263
N   N11       1.0  0.83033  0.77972  0.87293  1.0000 -0.2100472388
N   N12       1.0  0.83033  0.72028  0.37293  1.0000 -0.2100472388
N   N13       1.0  0.78194  0.54954  0.99274  1.0000 -0.3168041812
N   N14       1.0  0.78194  0.95046  0.49274  1.0000 -0.3168041812
N   N15       1.0  0.51539  0.21730  0.02039  1.0000 -0.2443808348
N   N16       1.0  0.51539  0.28270  0.52039  1.0000 -0.2443808348
N   N17       1.0  0.47095  0.74760  0.21415  1.0000 0.005931256
N   N18       1.0  0.47095  0.75240  0.71415  1.0000 0.005931256
N   N19       1.0  0.66680  0.73862  0.27180  1.0000 -0.281246263
N   N20       1.0  0.66680  0.76138  0.77180  1.0000 -0.281246263
O   O1        1.0  0.94728  0.23389  0.20008  1.0000 -0.5402448879
O   O2        1.0  0.94728  0.26611  0.70008  1.0000 -0.5402448879
O   O3        1.0  0.95972  0.36878  0.15912  1.0000 -0.5181691603
O   O4        1.0  0.95972  0.13122  0.65912  1.0000 -0.5181691603
O   O5        1.0  0.64944  0.43025  0.16154  1.0000 -0.1815483609
O   O6        1.0  0.64944  0.06975  0.66154  1.0000 -0.1815483609
O   O7        1.0  0.86520  0.83545  0.16160  1.0000 -0.1462197559
O   O8        1.0  0.86520  0.66455  0.66160  1.0000 -0.1462197559
O   O9        1.0  0.94349  0.02639  0.14879  1.0000 -0.5181691603
O   O10       1.0  0.94349  0.47361  0.64879  1.0000 -0.5181691603
O   O11       1.0  0.15640  0.02823  0.20250  1.0000 -0.5499545442
O   O12       1.0  0.15640  0.47177  0.70250  1.0000 -0.5499545442
O   O13       1.0  0.05272  0.73389  0.29992  1.0000 -0.5402448879
O   O14       1.0  0.05272  0.76611  0.79992  1.0000 -0.5402448879
O   O15       1.0  0.04028  0.86878  0.34088  1.0000 -0.5181691603
O   O16       1.0  0.04028  0.63122  0.84088  1.0000 -0.5181691603
O   O17       1.0  0.35056  0.93025  0.33846  1.0000 -0.1815483609
O   O18       1.0  0.35056  0.56975  0.83846  1.0000 -0.1815483609
O   O19       1.0  0.13480  0.33545  0.33840  1.0000 -0.1462197559
O   O20       1.0  0.13480  0.16455  0.83840  1.0000 -0.1462197559
O   O21       1.0  0.05651  0.52639  0.35121  1.0000 -0.5181691603
O   O22       1.0  0.05651  0.97361  0.85121  1.0000 -0.5181691603
O   O23       1.0  0.84360  0.52823  0.29750  1.0000 -0.5499545442
O   O24       1.0  0.84360  0.97177  0.79750  1.0000 -0.5499545442
