# DDEC6 charges by PACMAN v1.1 (https://github.com/mtap-research/PACMAN-charge/)
data_2023[Cd][eta]3[ASR]1
_chemical_formula_sum              "Cd12 H168 C120 Br12 N36"
_cell_length_a       16.8644
_cell_length_b       16.8644
_cell_length_c       26.7222
_cell_angle_alpha    90
_cell_angle_beta     90
_cell_angle_gamma    120

_symmetry_space_group_name_H-M    "P 1"
_symmetry_Int_Tables_number       1

loop_
  _symmetry_equiv_pos_as_xyz
  'x, y, z'

loop_
  _atom_site_type_symbol
  _atom_site_label
  _atom_site_symmetry_multiplicity
  _atom_site_fract_x
  _atom_site_fract_y
  _atom_site_fract_z
  _atom_site_occupancy
  _atom_site_charge
Cd  Cd1       1.0  0.50364  0.80950  0.64049  1.0000 0.7046112838
Cd  Cd2       1.0  0.19050  0.69414  0.30716  1.0000 0.7046112838
Cd  Cd3       1.0  0.30586  0.49636  0.97382  1.0000 0.7046112838
Cd  Cd4       1.0  0.49636  0.19050  0.14049  1.0000 0.7046112838
Cd  Cd5       1.0  0.80950  0.30586  0.80716  1.0000 0.7046112838
Cd  Cd6       1.0  0.69414  0.50364  0.47382  1.0000 0.7046112838
Cd  Cd7       1.0  0.50597  0.15531  0.62921  1.0000 0.7223904355
Cd  Cd8       1.0  0.84469  0.35066  0.29588  1.0000 0.7223904355
Cd  Cd9       1.0  0.64934  0.49403  0.96254  1.0000 0.7223904355
Cd  Cd10      1.0  0.49403  0.84469  0.12921  1.0000 0.7223904355
Cd  Cd11      1.0  0.15531  0.64934  0.79588  1.0000 0.7223904355
Cd  Cd12      1.0  0.35066  0.50597  0.46254  1.0000 0.7223904355
H   H1        1.0  0.24277  0.53654  0.53202  1.0000 0.1102406322
H   H2        1.0  0.46346  0.70623  0.19869  1.0000 0.1102406322
H   H3        1.0  0.29377  0.75723  0.86535  1.0000 0.1102406322
H   H4        1.0  0.75723  0.46346  0.03202  1.0000 0.1102406322
H   H5        1.0  0.53654  0.29377  0.69869  1.0000 0.1102406322
H   H6        1.0  0.70623  0.24277  0.36535  1.0000 0.1102406322
H   H7        1.0  0.19578  0.52461  0.58425  1.0000 0.1197794978
H   H8        1.0  0.47539  0.67117  0.25092  1.0000 0.1197794978
H   H9        1.0  0.32883  0.80422  0.91758  1.0000 0.1197794978
H   H10       1.0  0.80422  0.47539  0.08425  1.0000 0.1197794978
H   H11       1.0  0.52461  0.32883  0.75092  1.0000 0.1197794978
H   H12       1.0  0.67117  0.19578  0.41758  1.0000 0.1197794978
H   H13       1.0  0.26721  0.49204  0.57653  1.0000 0.1268607465
H   H14       1.0  0.50796  0.77517  0.24320  1.0000 0.1268607465
H   H15       1.0  0.22483  0.73279  0.90986  1.0000 0.1268607465
H   H16       1.0  0.73279  0.50796  0.07653  1.0000 0.1268607465
H   H17       1.0  0.49204  0.22483  0.74320  1.0000 0.1268607465
H   H18       1.0  0.77517  0.26721  0.40986  1.0000 0.1268607465
H   H19       1.0  0.30616  0.67408  0.57895  1.0000 0.1197794978
H   H20       1.0  0.32592  0.63208  0.24562  1.0000 0.1197794978
H   H21       1.0  0.36792  0.69384  0.91228  1.0000 0.1197794978
H   H22       1.0  0.69384  0.32592  0.07895  1.0000 0.1197794978
H   H23       1.0  0.67408  0.36792  0.74562  1.0000 0.1197794978
H   H24       1.0  0.63208  0.30616  0.41228  1.0000 0.1197794978
H   H25       1.0  0.33952  0.62845  0.61835  1.0000 0.1197794978
H   H26       1.0  0.37155  0.71107  0.28502  1.0000 0.1197794978
H   H27       1.0  0.28893  0.66048  0.95168  1.0000 0.1197794978
H   H28       1.0  0.66048  0.37155  0.11835  1.0000 0.1197794978
H   H29       1.0  0.62845  0.28893  0.78502  1.0000 0.1197794978
H   H30       1.0  0.71107  0.33952  0.45168  1.0000 0.1197794978
H   H31       1.0  0.65497  0.88003  0.51948  1.0000 0.1197794978
H   H32       1.0  0.11997  0.77494  0.18615  1.0000 0.1197794978
H   H33       1.0  0.22506  0.34503  0.85281  1.0000 0.1197794978
H   H34       1.0  0.34503  0.11997  0.01948  1.0000 0.1197794978
H   H35       1.0  0.88003  0.22506  0.68615  1.0000 0.1197794978
H   H36       1.0  0.77494  0.65497  0.35281  1.0000 0.1197794978
H   H37       1.0  0.69112  0.81075  0.51603  1.0000 0.1418210937
H   H38       1.0  0.18925  0.88037  0.18270  1.0000 0.1418210937
H   H39       1.0  0.11963  0.30888  0.84936  1.0000 0.1418210937
H   H40       1.0  0.30888  0.18925  0.01603  1.0000 0.1418210937
H   H41       1.0  0.81075  0.11963  0.68270  1.0000 0.1418210937
H   H42       1.0  0.88037  0.69112  0.34936  1.0000 0.1418210937
H   H43       1.0  0.67406  0.84119  0.56847  1.0000 0.1460449669
H   H44       1.0  0.15881  0.83287  0.23514  1.0000 0.1460449669
H   H45       1.0  0.16713  0.32594  0.90180  1.0000 0.1460449669
H   H46       1.0  0.32594  0.15881  0.06847  1.0000 0.1460449669
H   H47       1.0  0.84119  0.16713  0.73514  1.0000 0.1460449669
H   H48       1.0  0.83287  0.67406  0.40180  1.0000 0.1460449669
H   H49       1.0  0.61125  0.68421  0.44954  1.0000 0.1197794978
H   H50       1.0  0.31579  0.92704  0.11621  1.0000 0.1197794978
H   H51       1.0  0.07296  0.38875  0.78287  1.0000 0.1197794978
H   H52       1.0  0.38875  0.31579  0.94954  1.0000 0.1197794978
H   H53       1.0  0.68421  0.07296  0.61621  1.0000 0.1197794978
H   H54       1.0  0.92704  0.61125  0.28287  1.0000 0.1197794978
H   H55       1.0  0.60234  0.58763  0.39168  1.0000 0.0921520142
H   H56       1.0  0.41237  0.01471  0.05835  1.0000 0.0921520142
H   H57       1.0  0.98529  0.39766  0.72501  1.0000 0.0921520142
H   H58       1.0  0.39766  0.41237  0.89168  1.0000 0.0921520142
H   H59       1.0  0.58763  0.98529  0.55835  1.0000 0.0921520142
H   H60       1.0  0.01471  0.60234  0.22501  1.0000 0.0921520142
H   H61       1.0  0.52717  0.64143  0.33997  1.0000 0.1268607465
H   H62       1.0  0.35857  0.88574  0.00664  1.0000 0.1268607465
H   H63       1.0  0.11426  0.47283  0.67330  1.0000 0.1268607465
H   H64       1.0  0.47283  0.35857  0.83997  1.0000 0.1268607465
H   H65       1.0  0.64143  0.11426  0.50664  1.0000 0.1268607465
H   H66       1.0  0.88574  0.52717  0.17330  1.0000 0.1268607465
H   H67       1.0  0.43491  0.54781  0.34378  1.0000 0.1197794978
H   H68       1.0  0.45219  0.88710  0.01045  1.0000 0.1197794978
H   H69       1.0  0.11290  0.56509  0.67711  1.0000 0.1197794978
H   H70       1.0  0.56509  0.45219  0.84378  1.0000 0.1197794978
H   H71       1.0  0.54781  0.11290  0.51045  1.0000 0.1197794978
H   H72       1.0  0.88710  0.43491  0.17711  1.0000 0.1197794978
H   H73       1.0  0.50502  0.55340  0.26614  1.0000 0.1102406322
H   H74       1.0  0.44660  0.95162  0.93281  1.0000 0.1102406322
H   H75       1.0  0.04838  0.49498  0.59947  1.0000 0.1102406322
H   H76       1.0  0.49498  0.44660  0.76614  1.0000 0.1102406322
H   H77       1.0  0.55340  0.04838  0.43281  1.0000 0.1102406322
H   H78       1.0  0.95162  0.50502  0.09947  1.0000 0.1102406322
H   H79       1.0  0.59479  0.57124  0.29355  1.0000 0.103882171
H   H80       1.0  0.42876  0.02355  0.96022  1.0000 0.103882171
H   H81       1.0  0.97645  0.40521  0.62688  1.0000 0.103882171
H   H82       1.0  0.40521  0.42876  0.79355  1.0000 0.103882171
H   H83       1.0  0.57124  0.97645  0.46022  1.0000 0.103882171
H   H84       1.0  0.02355  0.59479  0.12688  1.0000 0.103882171
H   H85       1.0  0.50936  0.41703  0.27004  1.0000 0.103882171
H   H86       1.0  0.58297  0.09233  0.93671  1.0000 0.103882171
H   H87       1.0  0.90767  0.49064  0.60337  1.0000 0.103882171
H   H88       1.0  0.49064  0.58297  0.77004  1.0000 0.103882171
H   H89       1.0  0.41703  0.90767  0.43671  1.0000 0.103882171
H   H90       1.0  0.09233  0.50936  0.10337  1.0000 0.103882171
H   H91       1.0  0.42520  0.40614  0.30095  1.0000 0.1102406322
H   H92       1.0  0.59386  0.01906  0.96762  1.0000 0.1102406322
H   H93       1.0  0.98094  0.57480  0.63428  1.0000 0.1102406322
H   H94       1.0  0.57480  0.59386  0.80095  1.0000 0.1102406322
H   H95       1.0  0.40614  0.98094  0.46762  1.0000 0.1102406322
H   H96       1.0  0.01906  0.42520  0.13428  1.0000 0.1102406322
H   H97       1.0  0.50512  0.35059  0.34902  1.0000 0.1268607465
H   H98       1.0  0.64941  0.15453  0.01569  1.0000 0.1268607465
H   H99       1.0  0.84547  0.49488  0.68235  1.0000 0.1268607465
H   H100      1.0  0.49488  0.64941  0.84902  1.0000 0.1268607465
H   H101      1.0  0.35059  0.84547  0.51569  1.0000 0.1268607465
H   H102      1.0  0.15453  0.50512  0.18235  1.0000 0.1268607465
H   H103      1.0  0.59556  0.44574  0.34451  1.0000 0.1268607465
H   H104      1.0  0.55426  0.14982  0.01118  1.0000 0.1268607465
H   H105      1.0  0.85018  0.40444  0.67784  1.0000 0.1268607465
H   H106      1.0  0.40444  0.55426  0.84451  1.0000 0.1268607465
H   H107      1.0  0.44574  0.85018  0.51118  1.0000 0.1268607465
H   H108      1.0  0.14982  0.59556  0.17784  1.0000 0.1268607465
H   H109      1.0  0.43543  0.41651  0.39615  1.0000 0.0817563904
H   H110      1.0  0.58349  0.01892  0.06282  1.0000 0.0817563904
H   H111      1.0  0.98108  0.56457  0.72948  1.0000 0.0817563904
H   H112      1.0  0.56457  0.58349  0.89615  1.0000 0.0817563904
H   H113      1.0  0.41651  0.98108  0.56282  1.0000 0.0817563904
H   H114      1.0  0.01892  0.43543  0.22948  1.0000 0.0817563904
H   H115      1.0  0.42740  0.32313  0.45151  1.0000 0.1102406322
H   H116      1.0  0.67687  0.10427  0.11818  1.0000 0.1102406322
H   H117      1.0  0.89573  0.57260  0.78484  1.0000 0.1102406322
H   H118      1.0  0.57260  0.67687  0.95151  1.0000 0.1102406322
H   H119      1.0  0.32313  0.89573  0.61818  1.0000 0.1102406322
H   H120      1.0  0.10427  0.42740  0.28484  1.0000 0.1102406322
H   H121      1.0  0.37603  0.12639  0.51763  1.0000 0.1197794978
H   H122      1.0  0.87361  0.24964  0.18430  1.0000 0.1197794978
H   H123      1.0  0.75036  0.62397  0.85096  1.0000 0.1197794978
H   H124      1.0  0.62397  0.87361  0.01763  1.0000 0.1197794978
H   H125      1.0  0.12639  0.75036  0.68430  1.0000 0.1197794978
H   H126      1.0  0.24964  0.37603  0.35096  1.0000 0.1197794978
H   H127      1.0  0.34203  0.19722  0.51273  1.0000 0.1418210937
H   H128      1.0  0.80278  0.14481  0.17940  1.0000 0.1418210937
H   H129      1.0  0.85519  0.65797  0.84606  1.0000 0.1418210937
H   H130      1.0  0.65797  0.80278  0.01273  1.0000 0.1418210937
H   H131      1.0  0.19722  0.85519  0.67940  1.0000 0.1418210937
H   H132      1.0  0.14481  0.34203  0.34606  1.0000 0.1418210937
H   H133      1.0  0.35043  0.16209  0.56568  1.0000 0.1460449669
H   H134      1.0  0.83791  0.18834  0.23235  1.0000 0.1460449669
H   H135      1.0  0.81166  0.64957  0.89901  1.0000 0.1460449669
H   H136      1.0  0.64957  0.83791  0.06568  1.0000 0.1460449669
H   H137      1.0  0.16209  0.81166  0.73235  1.0000 0.1460449669
H   H138      1.0  0.18834  0.35043  0.39901  1.0000 0.1460449669
H   H139      1.0  0.68782  0.35332  0.62492  1.0000 0.1102406322
H   H140      1.0  0.64668  0.33450  0.29159  1.0000 0.1102406322
H   H141      1.0  0.66550  0.31218  0.95825  1.0000 0.1102406322
H   H142      1.0  0.31218  0.64668  0.12492  1.0000 0.1102406322
H   H143      1.0  0.35332  0.66550  0.79159  1.0000 0.1102406322
H   H144      1.0  0.33450  0.68782  0.45825  1.0000 0.1102406322
H   H145      1.0  0.74067  0.43365  0.58668  1.0000 0.1102406322
H   H146      1.0  0.56635  0.30702  0.25335  1.0000 0.1102406322
H   H147      1.0  0.69298  0.25933  0.92001  1.0000 0.1102406322
H   H148      1.0  0.25933  0.56635  0.08668  1.0000 0.1102406322
H   H149      1.0  0.43365  0.69298  0.75335  1.0000 0.1102406322
H   H150      1.0  0.30702  0.74067  0.42001  1.0000 0.1102406322
H   H151      1.0  0.77834  0.34458  0.53701  1.0000 0.1268607465
H   H152      1.0  0.65542  0.43376  0.20368  1.0000 0.1268607465
H   H153      1.0  0.56624  0.22166  0.87034  1.0000 0.1268607465
H   H154      1.0  0.22166  0.65542  0.03701  1.0000 0.1268607465
H   H155      1.0  0.34458  0.56624  0.70368  1.0000 0.1268607465
H   H156      1.0  0.43376  0.77834  0.37034  1.0000 0.1268607465
H   H157      1.0  0.70919  0.25479  0.56527  1.0000 0.1197794978
H   H158      1.0  0.74521  0.45440  0.23194  1.0000 0.1197794978
H   H159      1.0  0.54560  0.29081  0.89860  1.0000 0.1197794978
H   H160      1.0  0.29081  0.74521  0.06527  1.0000 0.1197794978
H   H161      1.0  0.25479  0.54560  0.73194  1.0000 0.1197794978
H   H162      1.0  0.45440  0.70919  0.39860  1.0000 0.1197794978
H   H163      1.0  0.79950  0.32745  0.59180  1.0000 0.1102406322
H   H164      1.0  0.67255  0.47205  0.25847  1.0000 0.1102406322
H   H165      1.0  0.52795  0.20050  0.92513  1.0000 0.1102406322
H   H166      1.0  0.20050  0.67255  0.09180  1.0000 0.1102406322
H   H167      1.0  0.32745  0.52795  0.75847  1.0000 0.1102406322
H   H168      1.0  0.47205  0.79950  0.42513  1.0000 0.1102406322
C   C1        1.0  0.25140  0.53750  0.56760  1.0000 -0.3417861439
C   C2        1.0  0.46250  0.71390  0.23427  1.0000 -0.3417861439
C   C3        1.0  0.28610  0.74860  0.90093  1.0000 -0.3417861439
C   C4        1.0  0.74860  0.46250  0.06760  1.0000 -0.3417861439
C   C5        1.0  0.53750  0.28610  0.73427  1.0000 -0.3417861439
C   C6        1.0  0.71390  0.25140  0.40093  1.0000 -0.3417861439
C   C7        1.0  0.32710  0.63030  0.58310  1.0000 -0.2487245651
C   C8        1.0  0.36970  0.69680  0.24977  1.0000 -0.2487245651
C   C9        1.0  0.30320  0.67290  0.91643  1.0000 -0.2487245651
C   C10       1.0  0.67290  0.36970  0.08310  1.0000 -0.2487245651
C   C11       1.0  0.63030  0.30320  0.74977  1.0000 -0.2487245651
C   C12       1.0  0.69680  0.32710  0.41643  1.0000 -0.2487245651
C   C13       1.0  0.41400  0.66360  0.55470  1.0000 0.335883878
C   C14       1.0  0.33640  0.75040  0.22137  1.0000 0.335883878
C   C15       1.0  0.24960  0.58600  0.88803  1.0000 0.335883878
C   C16       1.0  0.58600  0.33640  0.05470  1.0000 0.335883878
C   C17       1.0  0.66360  0.24960  0.72137  1.0000 0.335883878
C   C18       1.0  0.75040  0.41400  0.38803  1.0000 0.335883878
C   C19       1.0  0.65280  0.82730  0.53450  1.0000 -0.4623439363
C   C20       1.0  0.17270  0.82550  0.20117  1.0000 -0.4623439363
C   C21       1.0  0.17450  0.34720  0.86783  1.0000 -0.4623439363
C   C22       1.0  0.34720  0.17270  0.03450  1.0000 -0.4623439363
C   C23       1.0  0.82730  0.17450  0.70117  1.0000 -0.4623439363
C   C24       1.0  0.82550  0.65280  0.36783  1.0000 -0.4623439363
C   C25       1.0  0.55760  0.75020  0.53400  1.0000 0.1944733484
C   C26       1.0  0.24980  0.80740  0.20067  1.0000 0.1944733484
C   C27       1.0  0.19260  0.44240  0.86733  1.0000 0.1944733484
C   C28       1.0  0.44240  0.24980  0.03400  1.0000 0.1944733484
C   C29       1.0  0.75020  0.19260  0.70067  1.0000 0.1944733484
C   C30       1.0  0.80740  0.55760  0.36733  1.0000 0.1944733484
C   C31       1.0  0.51570  0.67640  0.50140  1.0000 0.0396000505
C   C32       1.0  0.32360  0.83930  0.16807  1.0000 0.0396000505
C   C33       1.0  0.16070  0.48430  0.83473  1.0000 0.0396000505
C   C34       1.0  0.48430  0.32360  0.00140  1.0000 0.0396000505
C   C35       1.0  0.67640  0.16070  0.66807  1.0000 0.0396000505
C   C36       1.0  0.83930  0.51570  0.33473  1.0000 0.0396000505
C   C37       1.0  0.55020  0.64880  0.45890  1.0000 0.0726921283
C   C38       1.0  0.35120  0.90140  0.12557  1.0000 0.0726921283
C   C39       1.0  0.09860  0.44980  0.79223  1.0000 0.0726921283
C   C40       1.0  0.44980  0.35120  0.95890  1.0000 0.0726921283
C   C41       1.0  0.64880  0.09860  0.62557  1.0000 0.0726921283
C   C42       1.0  0.90140  0.55020  0.29223  1.0000 0.0726921283
C   C43       1.0  0.53530  0.55250  0.39060  1.0000 0.0567825211
C   C44       1.0  0.44750  0.98280  0.05727  1.0000 0.0567825211
C   C45       1.0  0.01720  0.46470  0.72393  1.0000 0.0567825211
C   C46       1.0  0.46470  0.44750  0.89060  1.0000 0.0567825211
C   C47       1.0  0.55250  0.01720  0.55727  1.0000 0.0567825211
C   C48       1.0  0.98280  0.53530  0.22393  1.0000 0.0567825211
C   C49       1.0  0.50100  0.57560  0.34250  1.0000 -0.2304576116
C   C50       1.0  0.42440  0.92540  0.00917  1.0000 -0.2304576116
C   C51       1.0  0.07460  0.49900  0.67583  1.0000 -0.2304576116
C   C52       1.0  0.49900  0.42440  0.84250  1.0000 -0.2304576116
C   C53       1.0  0.57560  0.07460  0.50917  1.0000 -0.2304576116
C   C54       1.0  0.92540  0.50100  0.17583  1.0000 -0.2304576116
C   C55       1.0  0.52860  0.53990  0.29610  1.0000 -0.161369987
C   C56       1.0  0.46010  0.98870  0.96277  1.0000 -0.161369987
C   C57       1.0  0.01130  0.47140  0.62943  1.0000 -0.161369987
C   C58       1.0  0.47140  0.46010  0.79610  1.0000 -0.161369987
C   C59       1.0  0.53990  0.01130  0.46277  1.0000 -0.161369987
C   C60       1.0  0.98870  0.52860  0.12943  1.0000 -0.161369987
C   C61       1.0  0.49150  0.43790  0.29950  1.0000 -0.161369987
C   C62       1.0  0.56210  0.05360  0.96617  1.0000 -0.161369987
C   C63       1.0  0.94640  0.50850  0.63283  1.0000 -0.161369987
C   C64       1.0  0.50850  0.56210  0.79950  1.0000 -0.161369987
C   C65       1.0  0.43790  0.94640  0.46617  1.0000 -0.161369987
C   C66       1.0  0.05360  0.49150  0.13283  1.0000 -0.161369987
C   C67       1.0  0.52940  0.41610  0.34670  1.0000 -0.2304576116
C   C68       1.0  0.58390  0.11330  0.01337  1.0000 -0.2304576116
C   C69       1.0  0.88670  0.47060  0.68003  1.0000 -0.2304576116
C   C70       1.0  0.47060  0.58390  0.84670  1.0000 -0.2304576116
C   C71       1.0  0.41610  0.88670  0.51337  1.0000 -0.2304576116
C   C72       1.0  0.11330  0.52940  0.18003  1.0000 -0.2304576116
C   C73       1.0  0.50230  0.45000  0.39340  1.0000 0.0532772005
C   C74       1.0  0.55000  0.05230  0.06007  1.0000 0.0532772005
C   C75       1.0  0.94770  0.49770  0.72673  1.0000 0.0532772005
C   C76       1.0  0.49770  0.55000  0.89340  1.0000 0.0532772005
C   C77       1.0  0.45000  0.94770  0.56007  1.0000 0.0532772005
C   C78       1.0  0.05230  0.50230  0.22673  1.0000 0.0532772005
C   C79       1.0  0.48750  0.35910  0.46240  1.0000 0.0532772005
C   C80       1.0  0.64090  0.12840  0.12907  1.0000 0.0532772005
C   C81       1.0  0.87160  0.51250  0.79573  1.0000 0.0532772005
C   C82       1.0  0.51250  0.64090  0.96240  1.0000 0.0532772005
C   C83       1.0  0.35910  0.87160  0.62907  1.0000 0.0532772005
C   C84       1.0  0.12840  0.48750  0.29573  1.0000 0.0532772005
C   C85       1.0  0.51780  0.33120  0.50590  1.0000 0.026102293
C   C86       1.0  0.66880  0.18660  0.17257  1.0000 0.026102293
C   C87       1.0  0.81340  0.48220  0.83923  1.0000 0.026102293
C   C88       1.0  0.48220  0.66880  0.00590  1.0000 0.026102293
C   C89       1.0  0.33120  0.81340  0.67257  1.0000 0.026102293
C   C90       1.0  0.18660  0.51780  0.33923  1.0000 0.026102293
C   C91       1.0  0.37680  0.17840  0.53280  1.0000 -0.4623439363
C   C92       1.0  0.82160  0.19840  0.19947  1.0000 -0.4623439363
C   C93       1.0  0.80160  0.62320  0.86613  1.0000 -0.4623439363
C   C94       1.0  0.62320  0.82160  0.03280  1.0000 -0.4623439363
C   C95       1.0  0.17840  0.80160  0.69947  1.0000 -0.4623439363
C   C96       1.0  0.19840  0.37680  0.36613  1.0000 -0.4623439363
C   C97       1.0  0.47240  0.25440  0.53670  1.0000 0.1975091222
C   C98       1.0  0.74560  0.21800  0.20337  1.0000 0.1975091222
C   C99       1.0  0.78200  0.52760  0.87003  1.0000 0.1975091222
C   C100      1.0  0.52760  0.74560  0.03670  1.0000 0.1975091222
C   C101      1.0  0.25440  0.78200  0.70337  1.0000 0.1975091222
C   C102      1.0  0.21800  0.47240  0.37003  1.0000 0.1975091222
C   C103      1.0  0.61430  0.33820  0.56150  1.0000 0.3489696605
C   C104      1.0  0.66180  0.27610  0.22817  1.0000 0.3489696605
C   C105      1.0  0.72390  0.38570  0.89483  1.0000 0.3489696605
C   C106      1.0  0.38570  0.66180  0.06150  1.0000 0.3489696605
C   C107      1.0  0.33820  0.72390  0.72817  1.0000 0.3489696605
C   C108      1.0  0.27610  0.61430  0.39483  1.0000 0.3489696605
C   C109      1.0  0.70140  0.36790  0.58970  1.0000 -0.2381801235
C   C110      1.0  0.63210  0.33350  0.25637  1.0000 -0.2381801235
C   C111      1.0  0.66650  0.29860  0.92303  1.0000 -0.2381801235
C   C112      1.0  0.29860  0.63210  0.08970  1.0000 -0.2381801235
C   C113      1.0  0.36790  0.66650  0.75637  1.0000 -0.2381801235
C   C114      1.0  0.33350  0.70140  0.42303  1.0000 -0.2381801235
C   C115      1.0  0.75190  0.31900  0.56900  1.0000 -0.3717762532
C   C116      1.0  0.68100  0.43290  0.23567  1.0000 -0.3717762532
C   C117      1.0  0.56710  0.24810  0.90233  1.0000 -0.3717762532
C   C118      1.0  0.24810  0.68100  0.06900  1.0000 -0.3717762532
C   C119      1.0  0.31900  0.56710  0.73567  1.0000 -0.3717762532
C   C120      1.0  0.43290  0.75190  0.40233  1.0000 -0.3717762532
Br  Br1       1.0  0.66295  0.91626  0.67572  1.0000 -0.543670811
Br  Br2       1.0  0.08374  0.74669  0.34239  1.0000 -0.543670811
Br  Br3       1.0  0.25331  0.33705  0.00905  1.0000 -0.543670811
Br  Br4       1.0  0.33705  0.08374  0.17572  1.0000 -0.543670811
Br  Br5       1.0  0.91626  0.25331  0.84239  1.0000 -0.543670811
Br  Br6       1.0  0.74669  0.66295  0.50905  1.0000 -0.543670811
Br  Br7       1.0  0.34601  0.07253  0.66559  1.0000 -0.5490910388
Br  Br8       1.0  0.92747  0.27348  0.33226  1.0000 -0.5490910388
Br  Br9       1.0  0.72652  0.65399  0.99892  1.0000 -0.5490910388
Br  Br10      1.0  0.65399  0.92747  0.16559  1.0000 -0.5490910388
Br  Br11      1.0  0.07253  0.72652  0.83226  1.0000 -0.5490910388
Br  Br12      1.0  0.27348  0.34601  0.49892  1.0000 -0.5490910388
N   N1        1.0  0.53340  0.26000  0.57220  1.0000 -0.4263782379
N   N2        1.0  0.74000  0.27340  0.23887  1.0000 -0.4263782379
N   N3        1.0  0.72660  0.46660  0.90553  1.0000 -0.4263782379
N   N4        1.0  0.46660  0.74000  0.07220  1.0000 -0.4263782379
N   N5        1.0  0.26000  0.72660  0.73887  1.0000 -0.4263782379
N   N6        1.0  0.27340  0.53340  0.40553  1.0000 -0.4263782379
N   N7        1.0  0.54070  0.43110  0.43870  1.0000 -0.2579269983
N   N8        1.0  0.56890  0.10960  0.10537  1.0000 -0.2579269983
N   N9        1.0  0.89040  0.45930  0.77203  1.0000 -0.2579269983
N   N10       1.0  0.45930  0.56890  0.93870  1.0000 -0.2579269983
N   N11       1.0  0.43110  0.89040  0.60537  1.0000 -0.2579269983
N   N12       1.0  0.10960  0.54070  0.27203  1.0000 -0.2579269983
N   N13       1.0  0.60840  0.38290  0.52230  1.0000 -0.3851373272
N   N14       1.0  0.61710  0.22550  0.18897  1.0000 -0.3851373272
N   N15       1.0  0.77450  0.39160  0.85563  1.0000 -0.3851373272
N   N16       1.0  0.39160  0.61710  0.02230  1.0000 -0.3851373272
N   N17       1.0  0.38290  0.77450  0.68897  1.0000 -0.3851373272
N   N18       1.0  0.22550  0.60840  0.35563  1.0000 -0.3851373272
N   N19       1.0  0.42450  0.62260  0.51440  1.0000 -0.3717762532
N   N20       1.0  0.37740  0.80190  0.18107  1.0000 -0.3717762532
N   N21       1.0  0.19810  0.57550  0.84773  1.0000 -0.3717762532
N   N22       1.0  0.57550  0.37740  0.01440  1.0000 -0.3717762532
N   N23       1.0  0.62260  0.19810  0.68107  1.0000 -0.3717762532
N   N24       1.0  0.80190  0.42450  0.34773  1.0000 -0.3717762532
N   N25       1.0  0.49720  0.57640  0.43430  1.0000 -0.2660264747
N   N26       1.0  0.42360  0.92080  0.10097  1.0000 -0.2660264747
N   N27       1.0  0.07920  0.50280  0.76763  1.0000 -0.2660264747
N   N28       1.0  0.50280  0.42360  0.93430  1.0000 -0.2660264747
N   N29       1.0  0.57640  0.07920  0.60097  1.0000 -0.2660264747
N   N30       1.0  0.92080  0.49720  0.26763  1.0000 -0.2660264747
N   N31       1.0  0.49280  0.74070  0.56750  1.0000 -0.4183808344
N   N32       1.0  0.25930  0.75210  0.23417  1.0000 -0.4183808344
N   N33       1.0  0.24790  0.50720  0.90083  1.0000 -0.4183808344
N   N34       1.0  0.50720  0.25930  0.06750  1.0000 -0.4183808344
N   N35       1.0  0.74070  0.24790  0.73417  1.0000 -0.4183808344
N   N36       1.0  0.75210  0.49280  0.40083  1.0000 -0.4183808344
