# DDEC6 charges by PACMAN v1.1 (https://github.com/mtap-research/PACMAN-charge/)
data_2023[Ce][nan]3[ASR]1
_chemical_formula_sum              "Ce4 H12 C36 O24"
_cell_length_a       10.4342
_cell_length_b       10.4342
_cell_length_c       14.1274
_cell_angle_alpha    90
_cell_angle_beta     90
_cell_angle_gamma    90

_symmetry_space_group_name_H-M    "P 1"
_symmetry_Int_Tables_number       1

loop_
  _symmetry_equiv_pos_as_xyz
  'x, y, z'

loop_
  _atom_site_type_symbol
  _atom_site_label
  _atom_site_symmetry_multiplicity
  _atom_site_fract_x
  _atom_site_fract_y
  _atom_site_fract_z
  _atom_site_occupancy
  _atom_site_charge
Ce  Ce1       1.0  0.13181  0.87839  0.63522  1.0000 1.971820273
Ce  Ce2       1.0  0.86819  0.12161  0.13522  1.0000 1.971820273
Ce  Ce3       1.0  0.12161  0.13181  0.88522  1.0000 1.971820273
Ce  Ce4       1.0  0.87839  0.86819  0.38522  1.0000 1.971820273
H   H1        1.0  0.99482  0.12545  0.51068  1.0000 0.1101900344
H   H2        1.0  0.00518  0.87455  0.01068  1.0000 0.1101900344
H   H3        1.0  0.87455  0.99482  0.76068  1.0000 0.1101900344
H   H4        1.0  0.12545  0.00518  0.26068  1.0000 0.1101900344
H   H5        1.0  0.98683  0.45003  0.35787  1.0000 0.1377034676
H   H6        1.0  0.01317  0.54997  0.85787  1.0000 0.1377034676
H   H7        1.0  0.54997  0.98683  0.60787  1.0000 0.1377034676
H   H8        1.0  0.45003  0.01317  0.10787  1.0000 0.1377034676
H   H9        1.0  0.08570  0.46001  0.63305  1.0000 0.1377034676
H   H10       1.0  0.91430  0.53999  0.13305  1.0000 0.1377034676
H   H11       1.0  0.53999  0.08570  0.88305  1.0000 0.1377034676
H   H12       1.0  0.46001  0.91430  0.38305  1.0000 0.1377034676
C   C1        1.0  0.07580  0.21550  0.67550  1.0000 0.6082309117
C   C2        1.0  0.92420  0.78450  0.17550  1.0000 0.6082309117
C   C3        1.0  0.78450  0.07580  0.92550  1.0000 0.6082309117
C   C4        1.0  0.21550  0.92420  0.42550  1.0000 0.6082309117
C   C5        1.0  0.04620  0.28190  0.58450  1.0000 -0.0369615773
C   C6        1.0  0.95380  0.71810  0.08450  1.0000 -0.0369615773
C   C7        1.0  0.71810  0.04620  0.83450  1.0000 -0.0369615773
C   C8        1.0  0.28190  0.95380  0.33450  1.0000 -0.0369615773
C   C9        1.0  0.00700  0.21350  0.50620  1.0000 -0.1105938903
C   C10       1.0  0.99300  0.78650  0.00620  1.0000 -0.1105938903
C   C11       1.0  0.78650  0.00700  0.75620  1.0000 -0.1105938903
C   C12       1.0  0.21350  0.99300  0.25620  1.0000 -0.1105938903
C   C13       1.0  0.98540  0.27580  0.41990  1.0000 -0.0313026863
C   C14       1.0  0.01460  0.72420  0.91990  1.0000 -0.0313026863
C   C15       1.0  0.72420  0.98540  0.66990  1.0000 -0.0313026863
C   C16       1.0  0.27580  0.01460  0.16990  1.0000 -0.0313026863
C   C17       1.0  0.00040  0.40800  0.41510  1.0000 -0.0904300971
C   C18       1.0  0.99960  0.59200  0.91510  1.0000 -0.0904300971
C   C19       1.0  0.59200  0.00040  0.66510  1.0000 -0.0904300971
C   C20       1.0  0.40800  0.99960  0.16510  1.0000 -0.0904300971
C   C21       1.0  0.03530  0.47830  0.49480  1.0000 -0.0471800468
C   C22       1.0  0.96470  0.52170  0.99480  1.0000 -0.0471800468
C   C23       1.0  0.52170  0.03530  0.74480  1.0000 -0.0471800468
C   C24       1.0  0.47830  0.96470  0.24480  1.0000 -0.0471800468
C   C25       1.0  0.06010  0.41420  0.57980  1.0000 -0.0837953384
C   C26       1.0  0.93990  0.58580  0.07980  1.0000 -0.0837953384
C   C27       1.0  0.58580  0.06010  0.82980  1.0000 -0.0837953384
C   C28       1.0  0.41420  0.93990  0.32980  1.0000 -0.0837953384
C   C29       1.0  0.95270  0.20630  0.33080  1.0000 0.5963696619
C   C30       1.0  0.04730  0.79370  0.83080  1.0000 0.5963696619
C   C31       1.0  0.79370  0.95270  0.58080  1.0000 0.5963696619
C   C32       1.0  0.20630  0.04730  0.08080  1.0000 0.5963696619
C   C33       1.0  0.04490  0.62060  0.49220  1.0000 0.6269637724
C   C34       1.0  0.95510  0.37940  0.99220  1.0000 0.6269637724
C   C35       1.0  0.37940  0.04490  0.74220  1.0000 0.6269637724
C   C36       1.0  0.62060  0.95510  0.24220  1.0000 0.6269637724
O   O1        1.0  0.06130  0.09460  0.68190  1.0000 -0.6970472108
O   O2        1.0  0.93870  0.90540  0.18190  1.0000 -0.6970472108
O   O3        1.0  0.90540  0.06130  0.93190  1.0000 -0.6970472108
O   O4        1.0  0.09460  0.93870  0.43190  1.0000 -0.6970472108
O   O5        1.0  0.11120  0.27970  0.74520  1.0000 -0.5678183208
O   O6        1.0  0.88880  0.72030  0.24520  1.0000 -0.5678183208
O   O7        1.0  0.72030  0.11120  0.99520  1.0000 -0.5678183208
O   O8        1.0  0.27970  0.88880  0.49520  1.0000 -0.5678183208
O   O9        1.0  0.89880  0.09540  0.33390  1.0000 -0.7058061878
O   O10       1.0  0.10120  0.90460  0.83390  1.0000 -0.7058061878
O   O11       1.0  0.90460  0.89880  0.58390  1.0000 -0.7058061878
O   O12       1.0  0.09540  0.10120  0.08390  1.0000 -0.7058061878
O   O13       1.0  0.97820  0.25740  0.25410  1.0000 -0.5678183208
O   O14       1.0  0.02180  0.74260  0.75410  1.0000 -0.5678183208
O   O15       1.0  0.74260  0.97820  0.50410  1.0000 -0.5678183208
O   O16       1.0  0.25740  0.02180  0.00410  1.0000 -0.5678183208
O   O17       1.0  0.99970  0.67610  0.42120  1.0000 -0.6330596427
O   O18       1.0  0.00030  0.32390  0.92120  1.0000 -0.6330596427
O   O19       1.0  0.32390  0.99970  0.67120  1.0000 -0.6330596427
O   O20       1.0  0.67610  0.00030  0.17120  1.0000 -0.6330596427
O   O21       1.0  0.09460  0.67580  0.56100  1.0000 -0.6171682696
O   O22       1.0  0.90540  0.32420  0.06100  1.0000 -0.6171682696
O   O23       1.0  0.32420  0.09460  0.81100  1.0000 -0.6171682696
O   O24       1.0  0.67580  0.90540  0.31100  1.0000 -0.6171682696
