# DDEC6 charges by PACMAN v1.1 (https://github.com/mtap-research/PACMAN-charge/)
data_2023[Cu][fsc]2[ASR]1
_chemical_formula_sum              "Cu1 H14 C24 N12 O8"
_cell_length_a       7.776
_cell_length_b       10.3838
_cell_length_c       12.7022
_cell_angle_alpha    108.891
_cell_angle_beta     97.173
_cell_angle_gamma    96.303

_symmetry_space_group_name_H-M    "P 1"
_symmetry_Int_Tables_number       1

loop_
  _symmetry_equiv_pos_as_xyz
  'x, y, z'

loop_
  _atom_site_type_symbol
  _atom_site_label
  _atom_site_symmetry_multiplicity
  _atom_site_fract_x
  _atom_site_fract_y
  _atom_site_fract_z
  _atom_site_occupancy
  _atom_site_charge
Cu  Cu1       1.0  0.50000  0.00000  0.50000  1.0000 0.6880897262
H   H1        1.0  0.92900  0.67890  0.28540  1.0000 0.3556631186
H   H2        1.0  0.07100  0.32110  0.71460  1.0000 0.3556631186
H   H3        1.0  0.72240  0.51110  0.54920  1.0000 0.1491746583
H   H4        1.0  0.27760  0.48890  0.45080  1.0000 0.1491746583
H   H5        1.0  0.62560  0.70500  0.43670  1.0000 0.1197327553
H   H6        1.0  0.37440  0.29500  0.56330  1.0000 0.1197327553
H   H7        1.0  0.35950  0.72360  0.27860  1.0000 0.1275586017
H   H8        1.0  0.64050  0.27640  0.72140  1.0000 0.1275586017
H   H9        1.0  0.25000  0.59740  0.03970  1.0000 0.1491746583
H   H10       1.0  0.75000  0.40260  0.96030  1.0000 0.1491746583
H   H11       1.0  0.87760  0.04530  0.66200  1.0000 0.1275586017
H   H12       1.0  0.12240  0.95470  0.33800  1.0000 0.1275586017
H   H13       1.0  0.70750  0.03840  0.31070  1.0000 0.1197327553
H   H14       1.0  0.29250  0.96160  0.68930  1.0000 0.1197327553
C   C1        1.0  0.09490  0.61496  0.48527  1.0000 -0.05437707
C   C2        1.0  0.90510  0.38504  0.51473  1.0000 -0.05437707
C   C3        1.0  0.83350  0.50581  0.52985  1.0000 -0.1938455126
C   C4        1.0  0.16650  0.49419  0.47015  1.0000 -0.1938455126
C   C5        1.0  0.92940  0.61794  0.51581  1.0000 0.1197327553
C   C6        1.0  0.07060  0.38206  0.48419  1.0000 0.1197327553
C   C7        1.0  0.70980  0.76995  0.49269  1.0000 0.1197327553
C   C8        1.0  0.29020  0.23005  0.50731  1.0000 0.1197327553
C   C9        1.0  0.19090  0.73175  0.45777  1.0000 0.567101238
C   C10       1.0  0.80910  0.26825  0.54223  1.0000 0.567101238
C   C11       1.0  0.44760  0.78210  0.26577  1.0000 0.1060320863
C   C12       1.0  0.55240  0.21790  0.73423  1.0000 0.1060320863
C   C13       1.0  0.34960  0.55818  0.02318  1.0000 -0.1705247781
C   C14       1.0  0.65040  0.44182  0.97682  1.0000 -0.1705247781
C   C15       1.0  0.84960  0.95333  0.61559  1.0000 0.1604030558
C   C16       1.0  0.15040  0.04667  0.38441  1.0000 0.1604030558
C   C17       1.0  0.66440  0.56584  0.06590  1.0000 -0.0569903947
C   C18       1.0  0.33560  0.43416  0.93410  1.0000 -0.0569903947
C   C19       1.0  0.51250  0.62244  0.08685  1.0000 0.1197327553
C   C20       1.0  0.48750  0.37756  0.91315  1.0000 0.1197327553
C   C21       1.0  0.63800  0.95190  0.28099  1.0000 0.1604030558
C   C22       1.0  0.36200  0.04810  0.71901  1.0000 0.1604030558
C   C23       1.0  0.84050  0.62660  0.14067  1.0000 0.5617353895
C   C24       1.0  0.15950  0.37340  0.85933  1.0000 0.5617353895
N   N1        1.0  0.69987  0.90271  0.53869  1.0000 -0.2938045881
N   N2        1.0  0.30013  0.09729  0.46131  1.0000 -0.2938045881
N   N3        1.0  0.85875  0.74448  0.53909  1.0000 0.1197327553
N   N4        1.0  0.14125  0.25552  0.46091  1.0000 0.1197327553
N   N5        1.0  0.51420  0.90847  0.33434  1.0000 -0.3042427919
N   N6        1.0  0.48580  0.09153  0.66566  1.0000 -0.3042427919
N   N7        1.0  0.95180  0.86155  0.61906  1.0000 -0.2369704566
N   N8        1.0  0.04820  0.13845  0.38094  1.0000 -0.2369704566
N   N9        1.0  0.52620  0.75173  0.17571  1.0000 0.1366954275
N   N10       1.0  0.47380  0.24827  0.82429  1.0000 0.1366954275
N   N11       1.0  0.65040  0.86042  0.18387  1.0000 -0.248074489
N   N12       1.0  0.34960  0.13958  0.81613  1.0000 -0.248074489
O   O1        1.0  0.33600  0.79088  0.51383  1.0000 -0.5634874127
O   O2        1.0  0.66400  0.20912  0.48617  1.0000 -0.5634874127
O   O3        1.0  0.11628  0.75705  0.37483  1.0000 -0.5519339464
O   O4        1.0  0.88372  0.24295  0.62517  1.0000 -0.5519339464
O   O5        1.0  0.83170  0.64585  0.24685  1.0000 -0.4999668172
O   O6        1.0  0.16830  0.35415  0.75315  1.0000 -0.4999668172
O   O7        1.0  0.97190  0.64890  0.10406  1.0000 -0.4897230289
O   O8        1.0  0.02810  0.35110  0.89594  1.0000 -0.4897230289
