# DDEC6 charges by PACMAN v1.1 (https://github.com/mtap-research/PACMAN-charge/)
data_2023[Ni][acs]3[ASR]1
_chemical_formula_sum              "Ni6 H24 C48 N24 O14"
_cell_length_a       15.9474
_cell_length_b       15.9474
_cell_length_c       19.4531
_cell_angle_alpha    90
_cell_angle_beta     90
_cell_angle_gamma    120

_symmetry_space_group_name_H-M    "P 1"
_symmetry_Int_Tables_number       1

loop_
  _symmetry_equiv_pos_as_xyz
  'x, y, z'

loop_
  _atom_site_type_symbol
  _atom_site_label
  _atom_site_symmetry_multiplicity
  _atom_site_fract_x
  _atom_site_fract_y
  _atom_site_fract_z
  _atom_site_occupancy
  _atom_site_charge
Ni  Ni1       1.0  0.73610  0.47219  0.74971  1.0000 0.80164086
Ni  Ni2       1.0  0.26391  0.73610  0.24971  1.0000 0.80164086
Ni  Ni3       1.0  0.52781  0.26391  0.74971  1.0000 0.80164086
Ni  Ni4       1.0  0.26391  0.52781  0.24971  1.0000 0.80164086
Ni  Ni5       1.0  0.73610  0.26391  0.74971  1.0000 0.80164086
Ni  Ni6       1.0  0.47219  0.73610  0.24971  1.0000 0.80164086
H   H1        1.0  0.58910  0.65580  0.42220  1.0000 0.136773444
H   H2        1.0  0.93330  0.58910  0.92220  1.0000 0.136773444
H   H3        1.0  0.34420  0.93330  0.42220  1.0000 0.136773444
H   H4        1.0  0.41090  0.34420  0.92220  1.0000 0.136773444
H   H5        1.0  0.06670  0.41090  0.42220  1.0000 0.136773444
H   H6        1.0  0.65580  0.06670  0.92220  1.0000 0.136773444
H   H7        1.0  0.65580  0.58910  0.92220  1.0000 0.136773444
H   H8        1.0  0.06670  0.65580  0.42220  1.0000 0.136773444
H   H9        1.0  0.41090  0.06670  0.92220  1.0000 0.136773444
H   H10       1.0  0.34420  0.41090  0.42220  1.0000 0.136773444
H   H11       1.0  0.93330  0.34420  0.92220  1.0000 0.136773444
H   H12       1.0  0.58910  0.93330  0.42220  1.0000 0.136773444
H   H13       1.0  0.63470  0.61080  0.52230  1.0000 0.1280032165
H   H14       1.0  0.02390  0.63470  0.02230  1.0000 0.1280032165
H   H15       1.0  0.38920  0.02390  0.52230  1.0000 0.1280032165
H   H16       1.0  0.36530  0.38920  0.02230  1.0000 0.1280032165
H   H17       1.0  0.97610  0.36530  0.52230  1.0000 0.1280032165
H   H18       1.0  0.61080  0.97610  0.02230  1.0000 0.1280032165
H   H19       1.0  0.61080  0.63470  0.02230  1.0000 0.1280032165
H   H20       1.0  0.97610  0.61080  0.52230  1.0000 0.1280032165
H   H21       1.0  0.36530  0.97610  0.02230  1.0000 0.1280032165
H   H22       1.0  0.38920  0.36530  0.52230  1.0000 0.1280032165
H   H23       1.0  0.02390  0.38920  0.02230  1.0000 0.1280032165
H   H24       1.0  0.63470  0.02390  0.52230  1.0000 0.1280032165
C   C1        1.0  0.42887  0.57113  0.34830  1.0000 0.5860377766
C   C2        1.0  0.85774  0.42887  0.84830  1.0000 0.5860377766
C   C3        1.0  0.42887  0.85774  0.34830  1.0000 0.5860377766
C   C4        1.0  0.57113  0.42887  0.84830  1.0000 0.5860377766
C   C5        1.0  0.14226  0.57113  0.34830  1.0000 0.5860377766
C   C6        1.0  0.57113  0.14226  0.84830  1.0000 0.5860377766
C   C7        1.0  0.46090  0.53910  0.41220  1.0000 -0.0175469028
C   C8        1.0  0.92180  0.46090  0.91220  1.0000 -0.0175469028
C   C9        1.0  0.46090  0.92180  0.41220  1.0000 -0.0175469028
C   C10       1.0  0.53910  0.46090  0.91220  1.0000 -0.0175469028
C   C11       1.0  0.07820  0.53910  0.41220  1.0000 -0.0175469028
C   C12       1.0  0.53910  0.07820  0.91220  1.0000 -0.0175469028
C   C13       1.0  0.54720  0.59600  0.44190  1.0000 -0.0937634378
C   C14       1.0  0.95120  0.54720  0.94190  1.0000 -0.0937634378
C   C15       1.0  0.40400  0.95120  0.44190  1.0000 -0.0937634378
C   C16       1.0  0.45280  0.40400  0.94190  1.0000 -0.0937634378
C   C17       1.0  0.04880  0.45280  0.44190  1.0000 -0.0937634378
C   C18       1.0  0.59600  0.04880  0.94190  1.0000 -0.0937634378
C   C19       1.0  0.59600  0.54720  0.94190  1.0000 -0.0937634378
C   C20       1.0  0.04880  0.59600  0.44190  1.0000 -0.0937634378
C   C21       1.0  0.45280  0.04880  0.94190  1.0000 -0.0937634378
C   C22       1.0  0.40400  0.45280  0.44190  1.0000 -0.0937634378
C   C23       1.0  0.95120  0.40400  0.94190  1.0000 -0.0937634378
C   C24       1.0  0.54720  0.95120  0.44190  1.0000 -0.0937634378
C   C25       1.0  0.57600  0.56830  0.50150  1.0000 -0.1040707325
C   C26       1.0  0.00770  0.57600  0.00150  1.0000 -0.1040707325
C   C27       1.0  0.43170  0.00770  0.50150  1.0000 -0.1040707325
C   C28       1.0  0.42400  0.43170  0.00150  1.0000 -0.1040707325
C   C29       1.0  0.99230  0.42400  0.50150  1.0000 -0.1040707325
C   C30       1.0  0.56830  0.99230  0.00150  1.0000 -0.1040707325
C   C31       1.0  0.56830  0.57600  0.00150  1.0000 -0.1040707325
C   C32       1.0  0.99230  0.56830  0.50150  1.0000 -0.1040707325
C   C33       1.0  0.42400  0.99230  0.00150  1.0000 -0.1040707325
C   C34       1.0  0.43170  0.42400  0.50150  1.0000 -0.1040707325
C   C35       1.0  0.00770  0.43170  0.00150  1.0000 -0.1040707325
C   C36       1.0  0.57600  0.00770  0.50150  1.0000 -0.1040707325
C   C37       1.0  0.51910  0.48090  0.52810  1.0000 0.0510588375
C   C38       1.0  0.03820  0.51910  0.02810  1.0000 0.0510588375
C   C39       1.0  0.51910  0.03820  0.52810  1.0000 0.0510588375
C   C40       1.0  0.48090  0.51910  0.02810  1.0000 0.0510588375
C   C41       1.0  0.96180  0.48090  0.52810  1.0000 0.0510588375
C   C42       1.0  0.48090  0.96180  0.02810  1.0000 0.0510588375
C   C43       1.0  0.54930  0.45070  0.59230  1.0000 0.2356431229
C   C44       1.0  0.09860  0.54930  0.09230  1.0000 0.2356431229
C   C45       1.0  0.54930  0.09860  0.59230  1.0000 0.2356431229
C   C46       1.0  0.45070  0.54930  0.09230  1.0000 0.2356431229
C   C47       1.0  0.90140  0.45070  0.59230  1.0000 0.2356431229
C   C48       1.0  0.45070  0.90140  0.09230  1.0000 0.2356431229
N   N1        1.0  0.63365  0.44890  0.67543  1.0000 -0.0345543345
N   N2        1.0  0.18475  0.63365  0.17543  1.0000 -0.0345543345
N   N3        1.0  0.55110  0.18475  0.67543  1.0000 -0.0345543345
N   N4        1.0  0.36635  0.55110  0.17543  1.0000 -0.0345543345
N   N5        1.0  0.81525  0.36635  0.67543  1.0000 -0.0345543345
N   N6        1.0  0.44890  0.81525  0.17543  1.0000 -0.0345543345
N   N7        1.0  0.44890  0.63365  0.17543  1.0000 -0.0345543345
N   N8        1.0  0.81525  0.44890  0.67543  1.0000 -0.0345543345
N   N9        1.0  0.36635  0.81525  0.17543  1.0000 -0.0345543345
N   N10       1.0  0.55110  0.36635  0.67543  1.0000 -0.0345543345
N   N11       1.0  0.18475  0.55110  0.17543  1.0000 -0.0345543345
N   N12       1.0  0.63365  0.18475  0.67543  1.0000 -0.0345543345
N   N13       1.0  0.63520  0.50360  0.62278  1.0000 -0.2603706501
N   N14       1.0  0.13160  0.63520  0.12278  1.0000 -0.2603706501
N   N15       1.0  0.49640  0.13160  0.62278  1.0000 -0.2603706501
N   N16       1.0  0.36480  0.49640  0.12278  1.0000 -0.2603706501
N   N17       1.0  0.86840  0.36480  0.62278  1.0000 -0.2603706501
N   N18       1.0  0.50360  0.86840  0.12278  1.0000 -0.2603706501
N   N19       1.0  0.50360  0.63520  0.12278  1.0000 -0.2603706501
N   N20       1.0  0.86840  0.50360  0.62278  1.0000 -0.2603706501
N   N21       1.0  0.36480  0.86840  0.12278  1.0000 -0.2603706501
N   N22       1.0  0.49640  0.36480  0.62278  1.0000 -0.2603706501
N   N23       1.0  0.13160  0.49640  0.12278  1.0000 -0.2603706501
N   N24       1.0  0.63520  0.13160  0.62278  1.0000 -0.2603706501
O   O1        1.0  0.34624  0.51370  0.32607  1.0000 -0.4774471156
O   O2        1.0  0.83254  0.34624  0.82607  1.0000 -0.4774471156
O   O3        1.0  0.48630  0.83254  0.32607  1.0000 -0.4774471156
O   O4        1.0  0.65376  0.48630  0.82607  1.0000 -0.4774471156
O   O5        1.0  0.16746  0.65376  0.32607  1.0000 -0.4774471156
O   O6        1.0  0.51370  0.16746  0.82607  1.0000 -0.4774471156
O   O7        1.0  0.51370  0.34624  0.82607  1.0000 -0.4774471156
O   O8        1.0  0.16746  0.51370  0.32607  1.0000 -0.4774471156
O   O9        1.0  0.65376  0.16746  0.82607  1.0000 -0.4774471156
O   O10       1.0  0.48630  0.65376  0.32607  1.0000 -0.4774471156
O   O11       1.0  0.83254  0.48630  0.82607  1.0000 -0.4774471156
O   O12       1.0  0.34624  0.83254  0.32607  1.0000 -0.4774471156
O   O13       1.0  0.66667  0.33333  0.77120  1.0000 -0.7379234217
O   O14       1.0  0.33333  0.66667  0.27120  1.0000 -0.7379234217
