# DDEC6 charges by PACMAN v1.1 (https://github.com/mtap-research/PACMAN-charge/)
data_2023[CoCr][sql]2[ASR]1
_chemical_formula_sum              "Cr8 Co8 H128 C160 S32 N32 O16"
_cell_length_a       10.8075
_cell_length_b       19.393
_cell_length_c       26.937
_cell_angle_alpha    90
_cell_angle_beta     90
_cell_angle_gamma    90

_symmetry_space_group_name_H-M    "P 1"
_symmetry_Int_Tables_number       1

loop_
  _symmetry_equiv_pos_as_xyz
  'x, y, z'

loop_
  _atom_site_type_symbol
  _atom_site_label
  _atom_site_symmetry_multiplicity
  _atom_site_fract_x
  _atom_site_fract_y
  _atom_site_fract_z
  _atom_site_occupancy
  _atom_site_charge
Cr  Cr1       1.0  0.92269  0.04800  0.12631  1.0000 0.8609461487
Cr  Cr2       1.0  0.92269  0.95200  0.37369  1.0000 0.8609461487
Cr  Cr3       1.0  0.07731  0.95200  0.87369  1.0000 0.8670882285
Cr  Cr4       1.0  0.07731  0.04800  0.62631  1.0000 0.8609461487
Cr  Cr5       1.0  0.57731  0.45200  0.62631  1.0000 0.8396717609
Cr  Cr6       1.0  0.57731  0.54800  0.87369  1.0000 0.8609461487
Cr  Cr7       1.0  0.42269  0.54800  0.37369  1.0000 0.8609461487
Cr  Cr8       1.0  0.42269  0.45200  0.12631  1.0000 0.8609461487
Co  Co1       1.0  0.00000  0.00000  0.00000  1.0000 0.7920802534
Co  Co2       1.0  0.00000  0.00000  0.50000  1.0000 0.7920802534
Co  Co3       1.0  0.99007  0.00000  0.25000  1.0000 0.7732163818
Co  Co4       1.0  0.00993  0.00000  0.75000  1.0000 0.7732163818
Co  Co5       1.0  0.50000  0.50000  0.50000  1.0000 0.7920802534
Co  Co6       1.0  0.50000  0.50000  0.00000  1.0000 0.7920802534
Co  Co7       1.0  0.50993  0.50000  0.75000  1.0000 0.7732163818
Co  Co8       1.0  0.49007  0.50000  0.25000  1.0000 0.7732163818
H   H1        1.0  0.75567  0.17235  0.89228  1.0000 0.1186469401
H   H2        1.0  0.75567  0.82765  0.60772  1.0000 0.1186469401
H   H3        1.0  0.24433  0.82765  0.10772  1.0000 0.1186469401
H   H4        1.0  0.24433  0.17235  0.39228  1.0000 0.1186469401
H   H5        1.0  0.76737  0.06989  0.04458  1.0000 0.0726914453
H   H6        1.0  0.76737  0.93011  0.45542  1.0000 0.0726914453
H   H7        1.0  0.23263  0.93011  0.95542  1.0000 0.0726914453
H   H8        1.0  0.23263  0.06989  0.54458  1.0000 0.0726914453
H   H9        1.0  0.90101  0.09188  0.91168  1.0000 0.1093986631
H   H10       1.0  0.90101  0.90812  0.58832  1.0000 0.1093986631
H   H11       1.0  0.09899  0.90812  0.08832  1.0000 0.1093986631
H   H12       1.0  0.09899  0.09188  0.41168  1.0000 0.1093986631
H   H13       1.0  0.61062  0.14494  0.02849  1.0000 0.1186469401
H   H14       1.0  0.61062  0.85506  0.47151  1.0000 0.1186469401
H   H15       1.0  0.38938  0.85506  0.97151  1.0000 0.1186469401
H   H16       1.0  0.38938  0.14494  0.52849  1.0000 0.1186469401
H   H17       1.0  0.37881  0.13253  0.93475  1.0000 0.1186469401
H   H18       1.0  0.37881  0.86747  0.56525  1.0000 0.1186469401
H   H19       1.0  0.62119  0.86747  0.06525  1.0000 0.1186469401
H   H20       1.0  0.62119  0.13253  0.43475  1.0000 0.1186469401
H   H21       1.0  0.09620  0.12742  0.06088  1.0000 0.0905256036
H   H22       1.0  0.09620  0.87258  0.43912  1.0000 0.0905256036
H   H23       1.0  0.90380  0.87258  0.93912  1.0000 0.0905256036
H   H24       1.0  0.90380  0.12742  0.56088  1.0000 0.0905256036
H   H25       1.0  0.25037  0.20712  0.06356  1.0000 0.1268677961
H   H26       1.0  0.25037  0.79288  0.43644  1.0000 0.1268677961
H   H27       1.0  0.74963  0.79288  0.93644  1.0000 0.1268677961
H   H28       1.0  0.74963  0.20712  0.56356  1.0000 0.1268677961
H   H29       1.0  0.21653  0.05569  0.93488  1.0000 0.0905256036
H   H30       1.0  0.21653  0.94431  0.56512  1.0000 0.0905256036
H   H31       1.0  0.78347  0.94431  0.06512  1.0000 0.0905256036
H   H32       1.0  0.78347  0.05569  0.43488  1.0000 0.0905256036
H   H33       1.0  0.91440  0.10493  0.33173  1.0000 0.1006072369
H   H34       1.0  0.91440  0.89507  0.16827  1.0000 0.1006072369
H   H35       1.0  0.08560  0.89507  0.66827  1.0000 0.1006072369
H   H36       1.0  0.08560  0.10493  0.83173  1.0000 0.1006072369
H   H37       1.0  0.76372  0.17996  0.35380  1.0000 0.1268677961
H   H38       1.0  0.76372  0.82004  0.14620  1.0000 0.1268677961
H   H39       1.0  0.23628  0.82004  0.64620  1.0000 0.1268677961
H   H40       1.0  0.23628  0.17996  0.85380  1.0000 0.1268677961
H   H41       1.0  0.58964  0.13546  0.22646  1.0000 0.1186469401
H   H42       1.0  0.58964  0.86454  0.27354  1.0000 0.1186469401
H   H43       1.0  0.41036  0.86454  0.77354  1.0000 0.1186469401
H   H44       1.0  0.41036  0.13546  0.72646  1.0000 0.1186469401
H   H45       1.0  0.74431  0.05934  0.20908  1.0000 0.0796637904
H   H46       1.0  0.74431  0.94066  0.29092  1.0000 0.0796637904
H   H47       1.0  0.25569  0.94066  0.79092  1.0000 0.0796637904
H   H48       1.0  0.25569  0.05934  0.70908  1.0000 0.0796637904
H   H49       1.0  0.07370  0.13177  0.19778  1.0000 0.0905256036
H   H50       1.0  0.07370  0.86823  0.30222  1.0000 0.0905256036
H   H51       1.0  0.92630  0.86823  0.80222  1.0000 0.0905256036
H   H52       1.0  0.92630  0.13177  0.69778  1.0000 0.0905256036
H   H53       1.0  0.23214  0.21041  0.19328  1.0000 0.1268677961
H   H54       1.0  0.23214  0.78959  0.30672  1.0000 0.1268677961
H   H55       1.0  0.76786  0.78959  0.80672  1.0000 0.1268677961
H   H56       1.0  0.76786  0.21041  0.69328  1.0000 0.1268677961
H   H57       1.0  0.38400  0.11870  0.31245  1.0000 0.1186469401
H   H58       1.0  0.38400  0.88130  0.18755  1.0000 0.1186469401
H   H59       1.0  0.61600  0.88130  0.68755  1.0000 0.1186469401
H   H60       1.0  0.61600  0.11870  0.81245  1.0000 0.1186469401
H   H61       1.0  0.22073  0.04281  0.31253  1.0000 0.1093986631
H   H62       1.0  0.22073  0.95719  0.18747  1.0000 0.1093986631
H   H63       1.0  0.77927  0.95719  0.68747  1.0000 0.1093986631
H   H64       1.0  0.77927  0.04281  0.81253  1.0000 0.1093986631
H   H65       1.0  0.74433  0.32765  0.39228  1.0000 0.1186469401
H   H66       1.0  0.74433  0.67235  0.10772  1.0000 0.1186469401
H   H67       1.0  0.25567  0.67235  0.60772  1.0000 0.1186469401
H   H68       1.0  0.25567  0.32765  0.89228  1.0000 0.1186469401
H   H69       1.0  0.73263  0.43011  0.54458  1.0000 0.0726914453
H   H70       1.0  0.73263  0.56989  0.95542  1.0000 0.0726914453
H   H71       1.0  0.26737  0.56989  0.45542  1.0000 0.0726914453
H   H72       1.0  0.26737  0.43011  0.04458  1.0000 0.0726914453
H   H73       1.0  0.59899  0.40812  0.41168  1.0000 0.1093986631
H   H74       1.0  0.59899  0.59188  0.08832  1.0000 0.1093986631
H   H75       1.0  0.40101  0.59188  0.58832  1.0000 0.1093986631
H   H76       1.0  0.40101  0.40812  0.91168  1.0000 0.1093986631
H   H77       1.0  0.88938  0.35506  0.52849  1.0000 0.1186469401
H   H78       1.0  0.88938  0.64494  0.97151  1.0000 0.1186469401
H   H79       1.0  0.11062  0.64494  0.47151  1.0000 0.1186469401
H   H80       1.0  0.11062  0.35506  0.02849  1.0000 0.1186469401
H   H81       1.0  0.12119  0.36747  0.43475  1.0000 0.1186469401
H   H82       1.0  0.12119  0.63253  0.06525  1.0000 0.1186469401
H   H83       1.0  0.87881  0.63253  0.56525  1.0000 0.1186469401
H   H84       1.0  0.87881  0.36747  0.93475  1.0000 0.1186469401
H   H85       1.0  0.40380  0.37258  0.56088  1.0000 0.0905256036
H   H86       1.0  0.40380  0.62742  0.93912  1.0000 0.0905256036
H   H87       1.0  0.59620  0.62742  0.43912  1.0000 0.0905256036
H   H88       1.0  0.59620  0.37258  0.06088  1.0000 0.0905256036
H   H89       1.0  0.24963  0.29288  0.56356  1.0000 0.1268677961
H   H90       1.0  0.24963  0.70712  0.93644  1.0000 0.1268677961
H   H91       1.0  0.75037  0.70712  0.43644  1.0000 0.1268677961
H   H92       1.0  0.75037  0.29288  0.06356  1.0000 0.1268677961
H   H93       1.0  0.28347  0.44431  0.43488  1.0000 0.0905256036
H   H94       1.0  0.28347  0.55569  0.06512  1.0000 0.0905256036
H   H95       1.0  0.71653  0.55569  0.56512  1.0000 0.0905256036
H   H96       1.0  0.71653  0.44431  0.93488  1.0000 0.0905256036
H   H97       1.0  0.58560  0.39507  0.83173  1.0000 0.1006072369
H   H98       1.0  0.58560  0.60493  0.66827  1.0000 0.1006072369
H   H99       1.0  0.41440  0.60493  0.16827  1.0000 0.1006072369
H   H100      1.0  0.41440  0.39507  0.33173  1.0000 0.1006072369
H   H101      1.0  0.73628  0.32004  0.85380  1.0000 0.1268677961
H   H102      1.0  0.73628  0.67996  0.64620  1.0000 0.1268677961
H   H103      1.0  0.26372  0.67996  0.14620  1.0000 0.1268677961
H   H104      1.0  0.26372  0.32004  0.35380  1.0000 0.1268677961
H   H105      1.0  0.91036  0.36454  0.72646  1.0000 0.1186469401
H   H106      1.0  0.91036  0.63546  0.77354  1.0000 0.1186469401
H   H107      1.0  0.08964  0.63546  0.27354  1.0000 0.1186469401
H   H108      1.0  0.08964  0.36454  0.22646  1.0000 0.1186469401
H   H109      1.0  0.75569  0.44066  0.70908  1.0000 0.0796637904
H   H110      1.0  0.75569  0.55934  0.79092  1.0000 0.0796637904
H   H111      1.0  0.24431  0.55934  0.29092  1.0000 0.0796637904
H   H112      1.0  0.24431  0.44066  0.20908  1.0000 0.0796637904
H   H113      1.0  0.42630  0.36823  0.69778  1.0000 0.0905256036
H   H114      1.0  0.42630  0.63177  0.80222  1.0000 0.0905256036
H   H115      1.0  0.57370  0.63177  0.30222  1.0000 0.0905256036
H   H116      1.0  0.57370  0.36823  0.19778  1.0000 0.0905256036
H   H117      1.0  0.26786  0.28959  0.69328  1.0000 0.1268677961
H   H118      1.0  0.26786  0.71041  0.80672  1.0000 0.1268677961
H   H119      1.0  0.73214  0.71041  0.30672  1.0000 0.1268677961
H   H120      1.0  0.73214  0.28959  0.19328  1.0000 0.1268677961
H   H121      1.0  0.11600  0.38130  0.81245  1.0000 0.1186469401
H   H122      1.0  0.11600  0.61870  0.68755  1.0000 0.1186469401
H   H123      1.0  0.88400  0.61870  0.18755  1.0000 0.1186469401
H   H124      1.0  0.88400  0.38130  0.31245  1.0000 0.1186469401
H   H125      1.0  0.27927  0.45719  0.81253  1.0000 0.1093986631
H   H126      1.0  0.27927  0.54281  0.68747  1.0000 0.1093986631
H   H127      1.0  0.72073  0.54281  0.18747  1.0000 0.1093986631
H   H128      1.0  0.72073  0.45719  0.31253  1.0000 0.1093986631
C   C1        1.0  0.66490  0.16860  0.95870  1.0000 0.1006072369
C   C2        1.0  0.66490  0.83140  0.54130  1.0000 0.1006072369
C   C3        1.0  0.33510  0.83140  0.04130  1.0000 0.1006072369
C   C4        1.0  0.33510  0.16860  0.45870  1.0000 0.1006072369
C   C5        1.0  0.75540  0.15160  0.92340  1.0000 -0.2291769929
C   C6        1.0  0.75540  0.84840  0.57660  1.0000 -0.2291769929
C   C7        1.0  0.24460  0.84840  0.07660  1.0000 -0.2291769929
C   C8        1.0  0.24460  0.15160  0.42340  1.0000 -0.2291769929
C   C9        1.0  0.76400  0.09040  0.01340  1.0000 0.0595744672
C   C10       1.0  0.76400  0.90960  0.48660  1.0000 0.0595744672
C   C11       1.0  0.23600  0.90960  0.98660  1.0000 0.0595744672
C   C12       1.0  0.23600  0.09040  0.51340  1.0000 0.0595744672
C   C13       1.0  0.84320  0.10390  0.93570  1.0000 0.0726914453
C   C14       1.0  0.84320  0.89610  0.56430  1.0000 0.0726914453
C   C15       1.0  0.15680  0.89610  0.06430  1.0000 0.0726914453
C   C16       1.0  0.15680  0.10390  0.43570  1.0000 0.0726914453
C   C17       1.0  0.67000  0.13600  0.00440  1.0000 -0.2133648954
C   C18       1.0  0.67000  0.86400  0.49560  1.0000 -0.2133648954
C   C19       1.0  0.33000  0.86400  0.99560  1.0000 -0.2133648954
C   C20       1.0  0.33000  0.13600  0.50440  1.0000 -0.2133648954
C   C21       1.0  0.33280  0.17990  0.99930  1.0000 0.0905256036
C   C22       1.0  0.33280  0.82010  0.50070  1.0000 0.0905256036
C   C23       1.0  0.66720  0.82010  0.00070  1.0000 0.0905256036
C   C24       1.0  0.66720  0.17990  0.49930  1.0000 0.0905256036
C   C25       1.0  0.32180  0.13290  0.96060  1.0000 -0.2133648954
C   C26       1.0  0.32180  0.86710  0.53940  1.0000 -0.2133648954
C   C27       1.0  0.67820  0.86710  0.03940  1.0000 -0.2133648954
C   C28       1.0  0.67820  0.13290  0.46060  1.0000 -0.2133648954
C   C29       1.0  0.15310  0.12860  0.03500  1.0000 0.0726914453
C   C30       1.0  0.15310  0.87140  0.46500  1.0000 0.0726914453
C   C31       1.0  0.84690  0.87140  0.96500  1.0000 0.0726914453
C   C32       1.0  0.84690  0.12860  0.53500  1.0000 0.0726914453
C   C33       1.0  0.24580  0.17670  0.03700  1.0000 -0.2190066575
C   C34       1.0  0.24580  0.82330  0.46300  1.0000 -0.2190066575
C   C35       1.0  0.75420  0.82330  0.96300  1.0000 -0.2190066575
C   C36       1.0  0.75420  0.17670  0.53700  1.0000 -0.2190066575
C   C37       1.0  0.22400  0.08630  0.96130  1.0000 0.0796637904
C   C38       1.0  0.22400  0.91370  0.53870  1.0000 0.0796637904
C   C39       1.0  0.77600  0.91370  0.03870  1.0000 0.0796637904
C   C40       1.0  0.77600  0.08630  0.46130  1.0000 0.0796637904
C   C41       1.0  0.65850  0.16730  0.29240  1.0000 0.1006072369
C   C42       1.0  0.65850  0.83270  0.20760  1.0000 0.1006072369
C   C43       1.0  0.34150  0.83270  0.70760  1.0000 0.1006072369
C   C44       1.0  0.34150  0.16730  0.79240  1.0000 0.1006072369
C   C45       1.0  0.84840  0.11150  0.31010  1.0000 0.0595744672
C   C46       1.0  0.84840  0.88850  0.18990  1.0000 0.0595744672
C   C47       1.0  0.15160  0.88850  0.68990  1.0000 0.0595744672
C   C48       1.0  0.15160  0.11150  0.81010  1.0000 0.0595744672
C   C49       1.0  0.75840  0.15660  0.32370  1.0000 -0.2190066575
C   C50       1.0  0.75840  0.84340  0.17630  1.0000 -0.2190066575
C   C51       1.0  0.24160  0.84340  0.67630  1.0000 -0.2190066575
C   C52       1.0  0.24160  0.15660  0.82370  1.0000 -0.2190066575
C   C53       1.0  0.65510  0.13000  0.24850  1.0000 -0.2133648954
C   C54       1.0  0.65510  0.87000  0.25150  1.0000 -0.2133648954
C   C55       1.0  0.34490  0.87000  0.75150  1.0000 -0.2133648954
C   C56       1.0  0.34490  0.13000  0.74850  1.0000 -0.2133648954
C   C57       1.0  0.74920  0.08510  0.23810  1.0000 0.0595744672
C   C58       1.0  0.74920  0.91490  0.26190  1.0000 0.0595744672
C   C59       1.0  0.25080  0.91490  0.76190  1.0000 0.0595744672
C   C60       1.0  0.25080  0.08510  0.73810  1.0000 0.0595744672
C   C61       1.0  0.13710  0.12930  0.22110  1.0000 0.0595744672
C   C62       1.0  0.13710  0.87070  0.27890  1.0000 0.0595744672
C   C63       1.0  0.86290  0.87070  0.77890  1.0000 0.0595744672
C   C64       1.0  0.86290  0.12930  0.72110  1.0000 0.0595744672
C   C65       1.0  0.23080  0.17750  0.21840  1.0000 -0.2190066575
C   C66       1.0  0.23080  0.82250  0.28160  1.0000 -0.2190066575
C   C67       1.0  0.76920  0.82250  0.78160  1.0000 -0.2190066575
C   C68       1.0  0.76920  0.17750  0.71840  1.0000 -0.2190066575
C   C69       1.0  0.32320  0.17550  0.25440  1.0000 0.0905256036
C   C70       1.0  0.32320  0.82450  0.24560  1.0000 0.0905256036
C   C71       1.0  0.67680  0.82450  0.74560  1.0000 0.0905256036
C   C72       1.0  0.67680  0.17550  0.75440  1.0000 0.0905256036
C   C73       1.0  0.32100  0.12300  0.28910  1.0000 -0.2190066575
C   C74       1.0  0.32100  0.87700  0.21090  1.0000 -0.2190066575
C   C75       1.0  0.67900  0.87700  0.71090  1.0000 -0.2190066575
C   C76       1.0  0.67900  0.12300  0.78910  1.0000 -0.2190066575
C   C77       1.0  0.22290  0.07700  0.28840  1.0000 0.0905256036
C   C78       1.0  0.22290  0.92300  0.21160  1.0000 0.0905256036
C   C79       1.0  0.77710  0.92300  0.71160  1.0000 0.0905256036
C   C80       1.0  0.77710  0.07700  0.78840  1.0000 0.0905256036
C   C81       1.0  0.83510  0.33140  0.45870  1.0000 0.1006072369
C   C82       1.0  0.83510  0.66860  0.04130  1.0000 0.1006072369
C   C83       1.0  0.16490  0.66860  0.54130  1.0000 0.1006072369
C   C84       1.0  0.16490  0.33140  0.95870  1.0000 0.1006072369
C   C85       1.0  0.74460  0.34840  0.42340  1.0000 -0.2291769929
C   C86       1.0  0.74460  0.65160  0.07660  1.0000 -0.2291769929
C   C87       1.0  0.25540  0.65160  0.57660  1.0000 -0.2291769929
C   C88       1.0  0.25540  0.34840  0.92340  1.0000 -0.2291769929
C   C89       1.0  0.73600  0.40960  0.51340  1.0000 0.0595744672
C   C90       1.0  0.73600  0.59040  0.98660  1.0000 0.0595744672
C   C91       1.0  0.26400  0.59040  0.48660  1.0000 0.0595744672
C   C92       1.0  0.26400  0.40960  0.01340  1.0000 0.0595744672
C   C93       1.0  0.65680  0.39610  0.43570  1.0000 0.0726914453
C   C94       1.0  0.65680  0.60390  0.06430  1.0000 0.0726914453
C   C95       1.0  0.34320  0.60390  0.56430  1.0000 0.0726914453
C   C96       1.0  0.34320  0.39610  0.93570  1.0000 0.0726914453
C   C97       1.0  0.83000  0.36400  0.50440  1.0000 -0.2133648954
C   C98       1.0  0.83000  0.63600  0.99560  1.0000 -0.2133648954
C   C99       1.0  0.17000  0.63600  0.49560  1.0000 -0.2133648954
C   C100      1.0  0.17000  0.36400  0.00440  1.0000 -0.2133648954
C   C101      1.0  0.16720  0.32010  0.49930  1.0000 0.0905256036
C   C102      1.0  0.16720  0.67990  0.00070  1.0000 0.0905256036
C   C103      1.0  0.83280  0.67990  0.50070  1.0000 0.0905256036
C   C104      1.0  0.83280  0.32010  0.99930  1.0000 0.0905256036
C   C105      1.0  0.17820  0.36710  0.46060  1.0000 -0.2133648954
C   C106      1.0  0.17820  0.63290  0.03940  1.0000 -0.2133648954
C   C107      1.0  0.82180  0.63290  0.53940  1.0000 -0.2133648954
C   C108      1.0  0.82180  0.36710  0.96060  1.0000 -0.2133648954
C   C109      1.0  0.34690  0.37140  0.53500  1.0000 0.0726914453
C   C110      1.0  0.34690  0.62860  0.96500  1.0000 0.0726914453
C   C111      1.0  0.65310  0.62860  0.46500  1.0000 0.0726914453
C   C112      1.0  0.65310  0.37140  0.03500  1.0000 0.0726914453
C   C113      1.0  0.25420  0.32330  0.53700  1.0000 -0.2190066575
C   C114      1.0  0.25420  0.67670  0.96300  1.0000 -0.2190066575
C   C115      1.0  0.74580  0.67670  0.46300  1.0000 -0.2190066575
C   C116      1.0  0.74580  0.32330  0.03700  1.0000 -0.2190066575
C   C117      1.0  0.27600  0.41370  0.46130  1.0000 0.0796637904
C   C118      1.0  0.27600  0.58630  0.03870  1.0000 0.0796637904
C   C119      1.0  0.72400  0.58630  0.53870  1.0000 0.0796637904
C   C120      1.0  0.72400  0.41370  0.96130  1.0000 0.0796637904
C   C121      1.0  0.84150  0.33270  0.79240  1.0000 0.1006072369
C   C122      1.0  0.84150  0.66730  0.70760  1.0000 0.1006072369
C   C123      1.0  0.15850  0.66730  0.20760  1.0000 0.1006072369
C   C124      1.0  0.15850  0.33270  0.29240  1.0000 0.1006072369
C   C125      1.0  0.65160  0.38850  0.81010  1.0000 0.0595744672
C   C126      1.0  0.65160  0.61150  0.68990  1.0000 0.0595744672
C   C127      1.0  0.34840  0.61150  0.18990  1.0000 0.0595744672
C   C128      1.0  0.34840  0.38850  0.31010  1.0000 0.0595744672
C   C129      1.0  0.74160  0.34340  0.82370  1.0000 -0.2190066575
C   C130      1.0  0.74160  0.65660  0.67630  1.0000 -0.2190066575
C   C131      1.0  0.25840  0.65660  0.17630  1.0000 -0.2190066575
C   C132      1.0  0.25840  0.34340  0.32370  1.0000 -0.2190066575
C   C133      1.0  0.84490  0.37000  0.74850  1.0000 -0.2133648954
C   C134      1.0  0.84490  0.63000  0.75150  1.0000 -0.2133648954
C   C135      1.0  0.15510  0.63000  0.25150  1.0000 -0.2133648954
C   C136      1.0  0.15510  0.37000  0.24850  1.0000 -0.2133648954
C   C137      1.0  0.75080  0.41490  0.73810  1.0000 0.0595744672
C   C138      1.0  0.75080  0.58510  0.76190  1.0000 0.0595744672
C   C139      1.0  0.24920  0.58510  0.26190  1.0000 0.0595744672
C   C140      1.0  0.24920  0.41490  0.23810  1.0000 0.0595744672
C   C141      1.0  0.36290  0.37070  0.72110  1.0000 0.0595744672
C   C142      1.0  0.36290  0.62930  0.77890  1.0000 0.0595744672
C   C143      1.0  0.63710  0.62930  0.27890  1.0000 0.0595744672
C   C144      1.0  0.63710  0.37070  0.22110  1.0000 0.0595744672
C   C145      1.0  0.26920  0.32250  0.71840  1.0000 -0.2190066575
C   C146      1.0  0.26920  0.67750  0.78160  1.0000 -0.2190066575
C   C147      1.0  0.73080  0.67750  0.28160  1.0000 -0.2190066575
C   C148      1.0  0.73080  0.32250  0.21840  1.0000 -0.2190066575
C   C149      1.0  0.17680  0.32450  0.75440  1.0000 0.0905256036
C   C150      1.0  0.17680  0.67550  0.74560  1.0000 0.0905256036
C   C151      1.0  0.82320  0.67550  0.24560  1.0000 0.0905256036
C   C152      1.0  0.82320  0.32450  0.25440  1.0000 0.0905256036
C   C153      1.0  0.17900  0.37700  0.78910  1.0000 -0.2190066575
C   C154      1.0  0.17900  0.62300  0.71090  1.0000 -0.2190066575
C   C155      1.0  0.82100  0.62300  0.21090  1.0000 -0.2190066575
C   C156      1.0  0.82100  0.37700  0.28910  1.0000 -0.2190066575
C   C157      1.0  0.27710  0.42300  0.78840  1.0000 0.0905256036
C   C158      1.0  0.27710  0.57700  0.71160  1.0000 0.0905256036
C   C159      1.0  0.72290  0.57700  0.21160  1.0000 0.0905256036
C   C160      1.0  0.72290  0.42300  0.28840  1.0000 0.0905256036
S   S1        1.0  0.55355  0.23249  0.94231  1.0000 -0.0293554714
S   S2        1.0  0.55355  0.76751  0.55769  1.0000 -0.0293554714
S   S3        1.0  0.44645  0.76751  0.05769  1.0000 -0.0293554714
S   S4        1.0  0.44645  0.23249  0.44231  1.0000 -0.0293554714
S   S5        1.0  0.44822  0.24430  0.00406  1.0000 0.008388538
S   S6        1.0  0.44822  0.75570  0.49594  1.0000 0.008388538
S   S7        1.0  0.55178  0.75570  0.99594  1.0000 0.008388538
S   S8        1.0  0.55178  0.24430  0.50406  1.0000 0.008388538
S   S9        1.0  0.43872  0.23992  0.24865  1.0000 0.008388538
S   S10       1.0  0.43872  0.76008  0.25135  1.0000 0.008388538
S   S11       1.0  0.56128  0.76008  0.75135  1.0000 0.008388538
S   S12       1.0  0.56128  0.23992  0.74865  1.0000 0.008388538
S   S13       1.0  0.54398  0.22873  0.31003  1.0000 -0.0293554714
S   S14       1.0  0.54398  0.77127  0.18997  1.0000 -0.0293554714
S   S15       1.0  0.45602  0.77127  0.68997  1.0000 -0.0293554714
S   S16       1.0  0.45602  0.22873  0.81003  1.0000 -0.0293554714
S   S17       1.0  0.94645  0.26751  0.44231  1.0000 -0.0293554714
S   S18       1.0  0.94645  0.73249  0.05769  1.0000 -0.0293554714
S   S19       1.0  0.05355  0.73249  0.55769  1.0000 -0.0293554714
S   S20       1.0  0.05355  0.26751  0.94231  1.0000 -0.0293554714
S   S21       1.0  0.05178  0.25570  0.50406  1.0000 0.008388538
S   S22       1.0  0.05178  0.74430  0.99594  1.0000 0.008388538
S   S23       1.0  0.94822  0.74430  0.49594  1.0000 0.008388538
S   S24       1.0  0.94822  0.25570  0.00406  1.0000 0.008388538
S   S25       1.0  0.06128  0.26008  0.74865  1.0000 0.008388538
S   S26       1.0  0.06128  0.73992  0.75135  1.0000 0.008388538
S   S27       1.0  0.93872  0.73992  0.25135  1.0000 0.008388538
S   S28       1.0  0.93872  0.26008  0.24865  1.0000 0.008388538
S   S29       1.0  0.95602  0.27127  0.81003  1.0000 -0.0293554714
S   S30       1.0  0.95602  0.72873  0.68997  1.0000 -0.0293554714
S   S31       1.0  0.04398  0.72873  0.18997  1.0000 -0.0293554714
S   S32       1.0  0.04398  0.27127  0.31003  1.0000 -0.0293554714
N   N1        1.0  0.85150  0.07330  0.98031  1.0000 -0.2355352789
N   N2        1.0  0.85150  0.92670  0.51969  1.0000 -0.2355352789
N   N3        1.0  0.14850  0.92670  0.01969  1.0000 -0.2355352789
N   N4        1.0  0.14850  0.07330  0.48031  1.0000 -0.2355352789
N   N5        1.0  0.13960  0.08300  0.99790  1.0000 -0.2291769929
N   N6        1.0  0.13960  0.91700  0.50210  1.0000 -0.2355352789
N   N7        1.0  0.86040  0.91700  0.00210  1.0000 -0.2355352789
N   N8        1.0  0.86040  0.08300  0.49790  1.0000 -0.2291769929
N   N9        1.0  0.84820  0.07610  0.26758  1.0000 -0.2477155662
N   N10       1.0  0.84820  0.92390  0.23242  1.0000 -0.2477155662
N   N11       1.0  0.15180  0.92390  0.73242  1.0000 -0.2477155662
N   N12       1.0  0.15180  0.07610  0.76758  1.0000 -0.2477155662
N   N13       1.0  0.13200  0.07880  0.25543  1.0000 -0.2291769929
N   N14       1.0  0.13200  0.92120  0.24457  1.0000 -0.2291769929
N   N15       1.0  0.86800  0.92120  0.74457  1.0000 -0.2291769929
N   N16       1.0  0.86800  0.07880  0.75543  1.0000 -0.2291769929
N   N17       1.0  0.64850  0.42670  0.48031  1.0000 -0.2355352789
N   N18       1.0  0.64850  0.57330  0.01969  1.0000 -0.2355352789
N   N19       1.0  0.35150  0.57330  0.51969  1.0000 -0.2355352789
N   N20       1.0  0.35150  0.42670  0.98031  1.0000 -0.2355352789
N   N21       1.0  0.36040  0.41700  0.49790  1.0000 -0.2291769929
N   N22       1.0  0.36040  0.58300  0.00210  1.0000 -0.2355352789
N   N23       1.0  0.63960  0.58300  0.50210  1.0000 -0.2355352789
N   N24       1.0  0.63960  0.41700  0.99790  1.0000 -0.2291769929
N   N25       1.0  0.65180  0.42390  0.76758  1.0000 -0.2477155662
N   N26       1.0  0.65180  0.57610  0.73242  1.0000 -0.2477155662
N   N27       1.0  0.34820  0.57610  0.23242  1.0000 -0.2477155662
N   N28       1.0  0.34820  0.42390  0.26758  1.0000 -0.2477155662
N   N29       1.0  0.36800  0.42120  0.75543  1.0000 -0.2291769929
N   N30       1.0  0.36800  0.57880  0.74457  1.0000 -0.2291769929
N   N31       1.0  0.63200  0.57880  0.24457  1.0000 -0.2291769929
N   N32       1.0  0.63200  0.42120  0.25543  1.0000 -0.2291769929
O   O1        1.0  0.97890  0.01571  0.07349  1.0000 -0.7857762077
O   O2        1.0  0.97890  0.98429  0.42651  1.0000 -0.7857762077
O   O3        1.0  0.02110  0.98429  0.92651  1.0000 -0.7857762077
O   O4        1.0  0.02110  0.01571  0.57349  1.0000 -0.7789321243
O   O5        1.0  0.99770  0.01578  0.17501  1.0000 -0.7789321243
O   O6        1.0  0.99770  0.98422  0.32499  1.0000 -0.7789321243
O   O7        1.0  0.00230  0.98422  0.82499  1.0000 -0.7789321243
O   O8        1.0  0.00230  0.01578  0.67501  1.0000 -0.7789321243
O   O9        1.0  0.52110  0.48429  0.57349  1.0000 -0.7789321243
O   O10       1.0  0.52110  0.51571  0.92651  1.0000 -0.7857762077
O   O11       1.0  0.47890  0.51571  0.42651  1.0000 -0.7857762077
O   O12       1.0  0.47890  0.48429  0.07349  1.0000 -0.7857762077
O   O13       1.0  0.50230  0.48422  0.67501  1.0000 -0.7789321243
O   O14       1.0  0.50230  0.51578  0.82499  1.0000 -0.7789321243
O   O15       1.0  0.49770  0.51578  0.32499  1.0000 -0.7789321243
O   O16       1.0  0.49770  0.48422  0.17501  1.0000 -0.7789321243
