# DDEC6 charges by PACMAN v1.1 (https://github.com/mtap-research/PACMAN-charge/)
data_2023[La][pcu]3[ASR]1
_chemical_formula_sum              "La4 H8 C36 Cl4 O28"
_cell_length_a       12.4745
_cell_length_b       11.1476
_cell_length_c       16.9373
_cell_angle_alpha    90
_cell_angle_beta     94.739
_cell_angle_gamma    90

_symmetry_space_group_name_H-M    "P 1"
_symmetry_Int_Tables_number       1

loop_
  _symmetry_equiv_pos_as_xyz
  'x, y, z'

loop_
  _atom_site_type_symbol
  _atom_site_label
  _atom_site_symmetry_multiplicity
  _atom_site_fract_x
  _atom_site_fract_y
  _atom_site_fract_z
  _atom_site_occupancy
  _atom_site_charge
La  La1       1.0  0.34866  0.43215  0.00135  1.0000 1.8596126703
La  La2       1.0  0.65134  0.93215  0.49865  1.0000 1.8596126703
La  La3       1.0  0.65134  0.56785  0.99865  1.0000 1.8596126703
La  La4       1.0  0.34866  0.06785  0.50135  1.0000 1.8596126703
H   H1        1.0  0.76567  0.28825  0.23432  1.0000 0.1566621293
H   H2        1.0  0.23433  0.78825  0.26568  1.0000 0.1566621293
H   H3        1.0  0.23433  0.71175  0.76568  1.0000 0.1566621293
H   H4        1.0  0.76567  0.21175  0.73432  1.0000 0.1566621293
H   H5        1.0  0.73025  0.17546  0.36096  1.0000 0.1391894971
H   H6        1.0  0.26975  0.67546  0.13904  1.0000 0.1391894971
H   H7        1.0  0.26975  0.82454  0.63904  1.0000 0.1391894971
H   H8        1.0  0.73025  0.32454  0.86096  1.0000 0.1391894971
C   C1        1.0  0.08403  0.42810  0.97067  1.0000 0.2390427706
C   C2        1.0  0.91597  0.92810  0.52933  1.0000 0.2390427706
C   C3        1.0  0.91597  0.57190  0.02933  1.0000 0.2390427706
C   C4        1.0  0.08403  0.07190  0.47067  1.0000 0.2390427706
C   C5        1.0  0.98096  0.38050  0.96929  1.0000 -0.1144129716
C   C6        1.0  0.01904  0.88050  0.53071  1.0000 -0.1144129716
C   C7        1.0  0.01904  0.61950  0.03071  1.0000 -0.1150788623
C   C8        1.0  0.98096  0.11950  0.46929  1.0000 -0.1144129716
C   C9        1.0  0.89477  0.44520  0.99586  1.0000 0.247203928
C   C10       1.0  0.10523  0.94520  0.50414  1.0000 0.247203928
C   C11       1.0  0.10523  0.55480  0.00414  1.0000 0.247203928
C   C12       1.0  0.89477  0.05480  0.49586  1.0000 0.247203928
C   C13       1.0  0.56654  0.37150  0.14388  1.0000 0.5787961898
C   C14       1.0  0.43346  0.87150  0.35612  1.0000 0.5787961898
C   C15       1.0  0.43346  0.62850  0.85612  1.0000 0.5787961898
C   C16       1.0  0.56654  0.12850  0.64388  1.0000 0.5787961898
C   C17       1.0  0.60001  0.30620  0.21840  1.0000 0.0766979656
C   C18       1.0  0.39999  0.80620  0.28160  1.0000 0.0766979656
C   C19       1.0  0.39999  0.69380  0.78160  1.0000 0.0766979656
C   C20       1.0  0.60001  0.19380  0.71840  1.0000 0.0766979656
C   C21       1.0  0.69751  0.27270  0.25337  1.0000 -0.1752453181
C   C22       1.0  0.30249  0.77270  0.24663  1.0000 -0.1752453181
C   C23       1.0  0.30249  0.72730  0.74663  1.0000 -0.1752453181
C   C24       1.0  0.69751  0.22730  0.75337  1.0000 -0.1752453181
C   C25       1.0  0.67801  0.21010  0.32377  1.0000 -0.1910568657
C   C26       1.0  0.32199  0.71010  0.17623  1.0000 -0.1910568657
C   C27       1.0  0.32199  0.78990  0.67623  1.0000 -0.1910568657
C   C28       1.0  0.67801  0.28990  0.82377  1.0000 -0.1910568657
C   C29       1.0  0.56924  0.20960  0.32724  1.0000 0.0766979656
C   C30       1.0  0.43076  0.70960  0.17276  1.0000 0.0766979656
C   C31       1.0  0.43076  0.79040  0.67276  1.0000 0.0766979656
C   C32       1.0  0.56924  0.29040  0.82724  1.0000 0.0766979656
C   C33       1.0  0.49836  0.16300  0.38572  1.0000 0.5574358371
C   C34       1.0  0.50164  0.66300  0.11428  1.0000 0.5574358371
C   C35       1.0  0.50164  0.83700  0.61428  1.0000 0.5574358371
C   C36       1.0  0.49836  0.33700  0.88572  1.0000 0.5574358371
Cl  Cl1       1.0  0.95718  0.23719  0.93226  1.0000 0.0029181744
Cl  Cl2       1.0  0.04282  0.73719  0.56774  1.0000 0.0029181744
Cl  Cl3       1.0  0.04282  0.76281  0.06774  1.0000 0.0029181744
Cl  Cl4       1.0  0.95718  0.26281  0.43226  1.0000 0.0029181744
O   O1        1.0  0.16367  0.37491  0.94602  1.0000 -0.4972993913
O   O2        1.0  0.83633  0.87491  0.55398  1.0000 -0.4972993913
O   O3        1.0  0.83633  0.62509  0.05398  1.0000 -0.4972993913
O   O4        1.0  0.16367  0.12509  0.44602  1.0000 -0.4972993913
O   O5        1.0  0.79960  0.40878  0.99419  1.0000 -0.4497201624
O   O6        1.0  0.20040  0.90878  0.50581  1.0000 -0.4497201624
O   O7        1.0  0.20040  0.59122  0.00581  1.0000 -0.4497201624
O   O8        1.0  0.79960  0.09122  0.49419  1.0000 -0.4497201624
O   O9        1.0  0.46836  0.36834  0.12029  1.0000 -0.6407107892
O   O10       1.0  0.53164  0.86834  0.37971  1.0000 -0.6407107892
O   O11       1.0  0.53164  0.63166  0.87971  1.0000 -0.6407107892
O   O12       1.0  0.46836  0.13166  0.62029  1.0000 -0.6407107892
O   O13       1.0  0.64060  0.42285  0.11098  1.0000 -0.5804279926
O   O14       1.0  0.35940  0.92285  0.38902  1.0000 -0.5804279926
O   O15       1.0  0.35940  0.57715  0.88902  1.0000 -0.5804279926
O   O16       1.0  0.64060  0.07715  0.61098  1.0000 -0.5804279926
O   O17       1.0  0.51947  0.26793  0.26292  1.0000 -0.0708721201
O   O18       1.0  0.48053  0.76793  0.23708  1.0000 -0.0708721201
O   O19       1.0  0.48053  0.73207  0.73708  1.0000 -0.0708721201
O   O20       1.0  0.51947  0.23207  0.76292  1.0000 -0.0708721201
O   O21       1.0  0.39933  0.18036  0.37549  1.0000 -0.5479452344
O   O22       1.0  0.60067  0.68036  0.12451  1.0000 -0.5479452344
O   O23       1.0  0.60067  0.81964  0.62451  1.0000 -0.5479452344
O   O24       1.0  0.39933  0.31964  0.87549  1.0000 -0.5479452344
O   O25       1.0  0.54205  0.10788  0.44624  1.0000 -0.66639981
O   O26       1.0  0.45795  0.60788  0.05376  1.0000 -0.66639981
O   O27       1.0  0.45795  0.89212  0.55376  1.0000 -0.66639981
O   O28       1.0  0.54205  0.39212  0.94624  1.0000 -0.66639981
