# DDEC6 charges by PACMAN v1.1 (https://github.com/mtap-research/PACMAN-charge/)
data_2023[Cu][pts]3[ASR]2
_chemical_formula_sum              "Cu16 H96 C112 O64"
_cell_length_a       16.848
_cell_length_b       18.7494
_cell_length_c       16.848
_cell_angle_alpha    63.3015
_cell_angle_beta     89.999
_cell_angle_gamma    116.698

_symmetry_space_group_name_H-M    "P 1"
_symmetry_Int_Tables_number       1

loop_
  _symmetry_equiv_pos_as_xyz
  'x, y, z'

loop_
  _atom_site_type_symbol
  _atom_site_label
  _atom_site_symmetry_multiplicity
  _atom_site_fract_x
  _atom_site_fract_y
  _atom_site_fract_z
  _atom_site_occupancy
  _atom_site_charge
Cu  Cu1       1.0  0.17963  0.73842  0.13079  1.0000 0.8496536495
Cu  Cu2       1.0  0.02882  0.73868  0.13066  1.0000 0.835821592
Cu  Cu3       1.0  0.55879  0.73842  0.13079  1.0000 0.8561899028
Cu  Cu4       1.0  0.70986  0.73868  0.13066  1.0000 0.835821592
Cu  Cu5       1.0  0.61921  0.23842  0.57037  1.0000 0.8561899028
Cu  Cu6       1.0  0.61934  0.23868  0.72118  1.0000 0.835821592
Cu  Cu7       1.0  0.61921  0.23842  0.19121  1.0000 0.8561899028
Cu  Cu8       1.0  0.61934  0.23868  0.04014  1.0000 0.835821592
Cu  Cu9       1.0  0.19121  0.76158  0.61921  1.0000 0.8561899028
Cu  Cu10      1.0  0.04014  0.76132  0.61934  1.0000 0.835821592
Cu  Cu11      1.0  0.57037  0.76158  0.61921  1.0000 0.8561899028
Cu  Cu12      1.0  0.72118  0.76132  0.61934  1.0000 0.835821592
Cu  Cu13      1.0  0.13079  0.26158  0.17963  1.0000 0.8496536495
Cu  Cu14      1.0  0.13066  0.26132  0.02882  1.0000 0.835821592
Cu  Cu15      1.0  0.13079  0.26158  0.55879  1.0000 0.8496536495
Cu  Cu16      1.0  0.13066  0.26132  0.70986  1.0000 0.835821592
H   H1        1.0  0.33683  0.94882  0.19313  1.0000 0.125084915
H   H2        1.0  0.33178  0.02748  0.10350  1.0000 0.1232221736
H   H3        1.0  0.09936  0.96388  0.18651  1.0000 0.1232221736
H   H4        1.0  0.19988  0.83568  0.33174  1.0000 0.1232221736
H   H5        1.0  0.10748  0.84100  0.32896  1.0000 0.1232221736
H   H6        1.0  0.34044  0.04242  0.34132  1.0000 0.1232221736
H   H7        1.0  0.61199  0.94882  0.85805  1.0000 0.125084915
H   H8        1.0  0.69570  0.02748  0.86902  1.0000 0.1232221736
H   H9        1.0  0.86452  0.96388  0.84961  1.0000 0.1232221736
H   H10       1.0  0.63580  0.83568  0.83258  1.0000 0.1232221736
H   H11       1.0  0.73352  0.84100  0.83004  1.0000 0.1232221736
H   H12       1.0  0.70198  0.04242  0.61626  1.0000 0.1232221736
H   H13       1.0  0.89195  0.44882  0.41317  1.0000 0.125084915
H   H14       1.0  0.88098  0.52748  0.41822  1.0000 0.1232221736
H   H15       1.0  0.90039  0.46388  0.65064  1.0000 0.1232221736
H   H16       1.0  0.91742  0.33568  0.55012  1.0000 0.1232221736
H   H17       1.0  0.91996  0.34100  0.64252  1.0000 0.1232221736
H   H18       1.0  0.13374  0.54242  0.40956  1.0000 0.1232221736
H   H19       1.0  0.55687  0.44882  0.13801  1.0000 0.125084915
H   H20       1.0  0.64650  0.52748  0.05430  1.0000 0.1232221736
H   H21       1.0  0.56349  0.46388  0.88548  1.0000 0.1232221736
H   H22       1.0  0.41826  0.33568  0.11420  1.0000 0.1232221736
H   H23       1.0  0.42104  0.34100  0.01648  1.0000 0.1232221736
H   H24       1.0  0.40868  0.54242  0.04802  1.0000 0.1232221736
H   H25       1.0  0.13801  0.55118  0.55687  1.0000 0.125084915
H   H26       1.0  0.05430  0.47252  0.64650  1.0000 0.1232221736
H   H27       1.0  0.88548  0.53612  0.56349  1.0000 0.1232221736
H   H28       1.0  0.11420  0.66432  0.41826  1.0000 0.1232221736
H   H29       1.0  0.01648  0.65900  0.42104  1.0000 0.1232221736
H   H30       1.0  0.04802  0.45758  0.40868  1.0000 0.1232221736
H   H31       1.0  0.41317  0.55118  0.89195  1.0000 0.125084915
H   H32       1.0  0.41822  0.47252  0.88098  1.0000 0.1232221736
H   H33       1.0  0.65064  0.53612  0.90039  1.0000 0.1232221736
H   H34       1.0  0.55012  0.66432  0.91742  1.0000 0.1232221736
H   H35       1.0  0.64252  0.65900  0.91996  1.0000 0.1232221736
H   H36       1.0  0.40956  0.45758  0.13374  1.0000 0.1232221736
H   H37       1.0  0.19313  0.05118  0.33683  1.0000 0.125084915
H   H38       1.0  0.10350  0.97252  0.33178  1.0000 0.1232221736
H   H39       1.0  0.18651  0.03612  0.09936  1.0000 0.1232221736
H   H40       1.0  0.33174  0.16432  0.19988  1.0000 0.1232221736
H   H41       1.0  0.32896  0.15900  0.10748  1.0000 0.1232221736
H   H42       1.0  0.34132  0.95758  0.34044  1.0000 0.1232221736
H   H43       1.0  0.85805  0.05118  0.61199  1.0000 0.125084915
H   H44       1.0  0.86902  0.97252  0.69570  1.0000 0.1232221736
H   H45       1.0  0.84961  0.03612  0.86452  1.0000 0.1232221736
H   H46       1.0  0.83258  0.16432  0.63580  1.0000 0.1232221736
H   H47       1.0  0.83004  0.15900  0.73352  1.0000 0.1232221736
H   H48       1.0  0.61626  0.95758  0.70198  1.0000 0.1232221736
H   H49       1.0  0.41317  0.55118  0.55687  1.0000 0.125084915
H   H50       1.0  0.41822  0.47252  0.64650  1.0000 0.1232221736
H   H51       1.0  0.65064  0.53612  0.56349  1.0000 0.1232221736
H   H52       1.0  0.55012  0.66432  0.41826  1.0000 0.1232221736
H   H53       1.0  0.64252  0.65900  0.42104  1.0000 0.1232221736
H   H54       1.0  0.40956  0.45758  0.40868  1.0000 0.1232221736
H   H55       1.0  0.13801  0.55118  0.89195  1.0000 0.125084915
H   H56       1.0  0.05430  0.47252  0.88098  1.0000 0.1232221736
H   H57       1.0  0.88548  0.53612  0.90039  1.0000 0.1232221736
H   H58       1.0  0.11420  0.66432  0.91742  1.0000 0.1232221736
H   H59       1.0  0.01648  0.65900  0.91996  1.0000 0.1232221736
H   H60       1.0  0.04802  0.45758  0.13374  1.0000 0.1232221736
H   H61       1.0  0.85805  0.05118  0.33683  1.0000 0.125084915
H   H62       1.0  0.86902  0.97252  0.33178  1.0000 0.1232221736
H   H63       1.0  0.84961  0.03612  0.09936  1.0000 0.1232221736
H   H64       1.0  0.83258  0.16432  0.19988  1.0000 0.1232221736
H   H65       1.0  0.83004  0.15900  0.10748  1.0000 0.1232221736
H   H66       1.0  0.61626  0.95758  0.34044  1.0000 0.1232221736
H   H67       1.0  0.19313  0.05118  0.61199  1.0000 0.125084915
H   H68       1.0  0.10350  0.97252  0.69570  1.0000 0.1232221736
H   H69       1.0  0.18651  0.03612  0.86452  1.0000 0.1232221736
H   H70       1.0  0.33174  0.16432  0.63580  1.0000 0.1232221736
H   H71       1.0  0.32896  0.15900  0.73352  1.0000 0.1232221736
H   H72       1.0  0.34132  0.95758  0.70198  1.0000 0.1232221736
H   H73       1.0  0.61199  0.94882  0.19313  1.0000 0.125084915
H   H74       1.0  0.69570  0.02748  0.10350  1.0000 0.1232221736
H   H75       1.0  0.86452  0.96388  0.18651  1.0000 0.1232221736
H   H76       1.0  0.63580  0.83568  0.33174  1.0000 0.1232221736
H   H77       1.0  0.73352  0.84100  0.32896  1.0000 0.1232221736
H   H78       1.0  0.70198  0.04242  0.34132  1.0000 0.1232221736
H   H79       1.0  0.33683  0.94882  0.85805  1.0000 0.125084915
H   H80       1.0  0.33178  0.02748  0.86902  1.0000 0.1232221736
H   H81       1.0  0.09936  0.96388  0.84961  1.0000 0.1232221736
H   H82       1.0  0.19988  0.83568  0.83258  1.0000 0.1232221736
H   H83       1.0  0.10748  0.84100  0.83004  1.0000 0.1232221736
H   H84       1.0  0.34044  0.04242  0.61626  1.0000 0.1232221736
H   H85       1.0  0.55687  0.44882  0.41317  1.0000 0.125084915
H   H86       1.0  0.64650  0.52748  0.41822  1.0000 0.1232221736
H   H87       1.0  0.56349  0.46388  0.65064  1.0000 0.1232221736
H   H88       1.0  0.41826  0.33568  0.55012  1.0000 0.1232221736
H   H89       1.0  0.42104  0.34100  0.64252  1.0000 0.1232221736
H   H90       1.0  0.40868  0.54242  0.40956  1.0000 0.1232221736
H   H91       1.0  0.89195  0.44882  0.13801  1.0000 0.125084915
H   H92       1.0  0.88098  0.52748  0.05430  1.0000 0.1232221736
H   H93       1.0  0.90039  0.46388  0.88548  1.0000 0.1232221736
H   H94       1.0  0.91742  0.33568  0.11420  1.0000 0.1232221736
H   H95       1.0  0.91996  0.34100  0.01648  1.0000 0.1232221736
H   H96       1.0  0.13374  0.54242  0.04802  1.0000 0.1232221736
C   C1        1.0  0.31170  0.99100  0.17140  1.0000 -0.270438856
C   C2        1.0  0.20582  0.93444  0.20278  1.0000 0.0874372407
C   C3        1.0  0.17538  0.87836  0.30842  1.0000 -0.270438856
C   C4        1.0  0.21085  0.94410  0.34765  1.0000 0.0874372407
C   C5        1.0  0.17719  0.88098  0.45161  1.0000 0.5475223481
C   C6        1.0  0.16822  0.86324  0.17218  1.0000 0.5475223481
C   C7        1.0  0.67930  0.99100  0.83760  1.0000 -0.270438856
C   C8        1.0  0.72862  0.93444  0.86278  1.0000 0.0874372407
C   C9        1.0  0.70298  0.87836  0.81322  1.0000 -0.270438856
C   C10       1.0  0.73325  0.94410  0.70825  1.0000 0.0874372407
C   C11       1.0  0.70379  0.88098  0.66741  1.0000 0.5475223481
C   C12       1.0  0.69502  0.86324  0.96458  1.0000 0.5475223481
C   C13       1.0  0.91240  0.49100  0.43830  1.0000 -0.270438856
C   C14       1.0  0.88722  0.43444  0.54418  1.0000 0.0874372407
C   C15       1.0  0.93678  0.37836  0.57462  1.0000 -0.270438856
C   C16       1.0  0.04175  0.44410  0.53915  1.0000 0.0874372407
C   C17       1.0  0.08259  0.38098  0.57281  1.0000 0.5475223481
C   C18       1.0  0.78542  0.36324  0.58178  1.0000 0.5475223481
C   C19       1.0  0.57860  0.49100  0.07070  1.0000 -0.270438856
C   C20       1.0  0.54722  0.43444  0.02138  1.0000 0.0874372407
C   C21       1.0  0.44158  0.37836  0.04702  1.0000 -0.270438856
C   C22       1.0  0.40235  0.44410  0.01675  1.0000 0.0874372407
C   C23       1.0  0.29839  0.38098  0.04621  1.0000 0.5475223481
C   C24       1.0  0.57782  0.36324  0.05498  1.0000 0.5475223481
C   C25       1.0  0.07070  0.50900  0.57860  1.0000 -0.270438856
C   C26       1.0  0.02138  0.56556  0.54722  1.0000 0.0874372407
C   C27       1.0  0.04702  0.62164  0.44158  1.0000 -0.270438856
C   C28       1.0  0.01675  0.55590  0.40235  1.0000 0.0874372407
C   C29       1.0  0.04621  0.61902  0.29839  1.0000 0.5475223481
C   C30       1.0  0.05498  0.63676  0.57782  1.0000 0.5475223481
C   C31       1.0  0.43830  0.50900  0.91240  1.0000 -0.270438856
C   C32       1.0  0.54418  0.56556  0.88722  1.0000 0.0874372407
C   C33       1.0  0.57462  0.62164  0.93678  1.0000 -0.270438856
C   C34       1.0  0.53915  0.55590  0.04175  1.0000 0.0874372407
C   C35       1.0  0.57281  0.61902  0.08259  1.0000 0.5475223481
C   C36       1.0  0.58178  0.63676  0.78542  1.0000 0.5475223481
C   C37       1.0  0.17140  0.00900  0.31170  1.0000 -0.270438856
C   C38       1.0  0.20278  0.06556  0.20582  1.0000 0.0874372407
C   C39       1.0  0.30842  0.12164  0.17538  1.0000 -0.270438856
C   C40       1.0  0.34765  0.05590  0.21085  1.0000 0.0874372407
C   C41       1.0  0.45161  0.11902  0.17719  1.0000 0.5475223481
C   C42       1.0  0.17218  0.13676  0.16822  1.0000 0.5475223481
C   C43       1.0  0.83760  0.00900  0.67930  1.0000 -0.270438856
C   C44       1.0  0.86278  0.06556  0.72862  1.0000 0.0874372407
C   C45       1.0  0.81322  0.12164  0.70298  1.0000 -0.270438856
C   C46       1.0  0.70825  0.05590  0.73325  1.0000 0.0874372407
C   C47       1.0  0.66741  0.11902  0.70379  1.0000 0.5475223481
C   C48       1.0  0.96458  0.13676  0.69502  1.0000 0.5475223481
C   C49       1.0  0.43830  0.50900  0.57860  1.0000 -0.270438856
C   C50       1.0  0.54418  0.56556  0.54722  1.0000 0.0874372407
C   C51       1.0  0.57462  0.62164  0.44158  1.0000 -0.270438856
C   C52       1.0  0.53915  0.55590  0.40235  1.0000 0.0874372407
C   C53       1.0  0.57281  0.61902  0.29839  1.0000 0.5475223481
C   C54       1.0  0.58178  0.63676  0.57782  1.0000 0.5475223481
C   C55       1.0  0.07070  0.50900  0.91240  1.0000 -0.270438856
C   C56       1.0  0.02138  0.56556  0.88722  1.0000 0.0874372407
C   C57       1.0  0.04702  0.62164  0.93678  1.0000 -0.270438856
C   C58       1.0  0.01675  0.55590  0.04175  1.0000 0.0874372407
C   C59       1.0  0.04621  0.61902  0.08259  1.0000 0.5475223481
C   C60       1.0  0.05498  0.63676  0.78542  1.0000 0.5475223481
C   C61       1.0  0.83760  0.00900  0.31170  1.0000 -0.270438856
C   C62       1.0  0.86278  0.06556  0.20582  1.0000 0.0874372407
C   C63       1.0  0.81322  0.12164  0.17538  1.0000 -0.270438856
C   C64       1.0  0.70825  0.05590  0.21085  1.0000 0.0874372407
C   C65       1.0  0.66741  0.11902  0.17719  1.0000 0.5475223481
C   C66       1.0  0.96458  0.13676  0.16822  1.0000 0.5475223481
C   C67       1.0  0.17140  0.00900  0.67930  1.0000 -0.270438856
C   C68       1.0  0.20278  0.06556  0.72862  1.0000 0.0874372407
C   C69       1.0  0.30842  0.12164  0.70298  1.0000 -0.270438856
C   C70       1.0  0.34765  0.05590  0.73325  1.0000 0.0874372407
C   C71       1.0  0.45161  0.11902  0.70379  1.0000 0.5475223481
C   C72       1.0  0.17218  0.13676  0.69502  1.0000 0.5475223481
C   C73       1.0  0.67930  0.99100  0.17140  1.0000 -0.270438856
C   C74       1.0  0.72862  0.93444  0.20278  1.0000 0.0874372407
C   C75       1.0  0.70298  0.87836  0.30842  1.0000 -0.270438856
C   C76       1.0  0.73325  0.94410  0.34765  1.0000 0.0874372407
C   C77       1.0  0.70379  0.88098  0.45161  1.0000 0.5475223481
C   C78       1.0  0.69502  0.86324  0.17218  1.0000 0.5475223481
C   C79       1.0  0.31170  0.99100  0.83760  1.0000 -0.270438856
C   C80       1.0  0.20582  0.93444  0.86278  1.0000 0.0874372407
C   C81       1.0  0.17538  0.87836  0.81322  1.0000 -0.270438856
C   C82       1.0  0.21085  0.94410  0.70825  1.0000 0.0874372407
C   C83       1.0  0.17719  0.88098  0.66741  1.0000 0.5475223481
C   C84       1.0  0.16822  0.86324  0.96458  1.0000 0.5475223481
C   C85       1.0  0.57860  0.49100  0.43830  1.0000 -0.270438856
C   C86       1.0  0.54722  0.43444  0.54418  1.0000 0.0874372407
C   C87       1.0  0.44158  0.37836  0.57462  1.0000 -0.270438856
C   C88       1.0  0.40235  0.44410  0.53915  1.0000 0.0874372407
C   C89       1.0  0.29839  0.38098  0.57281  1.0000 0.5475223481
C   C90       1.0  0.57782  0.36324  0.58178  1.0000 0.5475223481
C   C91       1.0  0.91240  0.49100  0.07070  1.0000 -0.270438856
C   C92       1.0  0.88722  0.43444  0.02138  1.0000 0.0874372407
C   C93       1.0  0.93678  0.37836  0.04702  1.0000 -0.270438856
C   C94       1.0  0.04175  0.44410  0.01675  1.0000 0.0874372407
C   C95       1.0  0.08259  0.38098  0.04621  1.0000 0.5475223481
C   C96       1.0  0.78542  0.36324  0.05498  1.0000 0.5475223481
C   C97       1.0  0.16730  0.00000  0.16730  1.0000 -0.270438856
C   C98       1.0  0.31650  0.00000  0.31650  1.0000 -0.270438856
C   C99       1.0  0.83270  0.00000  0.83270  1.0000 -0.2752755203
C   C100      1.0  0.68350  0.00000  0.68350  1.0000 -0.270438856
C   C101      1.0  0.91730  0.50000  0.58270  1.0000 -0.270438856
C   C102      1.0  0.06650  0.50000  0.43350  1.0000 -0.270438856
C   C103      1.0  0.58270  0.50000  0.91730  1.0000 -0.270438856
C   C104      1.0  0.43350  0.50000  0.06650  1.0000 -0.270438856
C   C105      1.0  0.58270  0.50000  0.58270  1.0000 -0.270438856
C   C106      1.0  0.43350  0.50000  0.43350  1.0000 -0.270438856
C   C107      1.0  0.91730  0.50000  0.91730  1.0000 -0.270438856
C   C108      1.0  0.06650  0.50000  0.06650  1.0000 -0.270438856
C   C109      1.0  0.83270  0.00000  0.16730  1.0000 -0.270438856
C   C110      1.0  0.68350  0.00000  0.31650  1.0000 -0.270438856
C   C111      1.0  0.16730  0.00000  0.83270  1.0000 -0.2752755203
C   C112      1.0  0.31650  0.00000  0.68350  1.0000 -0.270438856
O   O1        1.0  0.08699  0.83498  0.16311  1.0000 -0.5177157626
O   O2        1.0  0.09734  0.85568  0.48946  1.0000 -0.5177157626
O   O3        1.0  0.21848  0.83316  0.16312  1.0000 -0.5008283772
O   O4        1.0  0.22991  0.85462  0.49139  1.0000 -0.5077141069
O   O5        1.0  0.74799  0.83498  0.00191  1.0000 -0.5177157626
O   O6        1.0  0.75834  0.85568  0.65486  1.0000 -0.5177157626
O   O7        1.0  0.61468  0.83316  0.00372  1.0000 -0.5008283772
O   O8        1.0  0.62471  0.85462  0.65399  1.0000 -0.5077141069
O   O9        1.0  0.74809  0.33498  0.66301  1.0000 -0.5177157626
O   O10       1.0  0.09514  0.35568  0.65266  1.0000 -0.5177157626
O   O11       1.0  0.74628  0.33316  0.53152  1.0000 -0.5008283772
O   O12       1.0  0.09601  0.35462  0.52009  1.0000 -0.5077141069
O   O13       1.0  0.58689  0.33498  0.00201  1.0000 -0.5177157626
O   O14       1.0  0.26054  0.35568  0.99166  1.0000 -0.5177157626
O   O15       1.0  0.58688  0.33316  0.13532  1.0000 -0.5008283772
O   O16       1.0  0.25861  0.35462  0.12529  1.0000 -0.5077141069
O   O17       1.0  0.00201  0.66502  0.58689  1.0000 -0.5177157626
O   O18       1.0  0.99166  0.64432  0.26054  1.0000 -0.5177157626
O   O19       1.0  0.13532  0.66684  0.58688  1.0000 -0.5008283772
O   O20       1.0  0.12529  0.64538  0.25861  1.0000 -0.5077141069
O   O21       1.0  0.66301  0.66502  0.74809  1.0000 -0.5177157626
O   O22       1.0  0.65266  0.64432  0.09514  1.0000 -0.5177157626
O   O23       1.0  0.53152  0.66684  0.74628  1.0000 -0.5008283772
O   O24       1.0  0.52009  0.64538  0.09601  1.0000 -0.5077141069
O   O25       1.0  0.16311  0.16502  0.08699  1.0000 -0.5177157626
O   O26       1.0  0.48946  0.14432  0.09734  1.0000 -0.5177157626
O   O27       1.0  0.16312  0.16684  0.21848  1.0000 -0.5008283772
O   O28       1.0  0.49139  0.14538  0.22991  1.0000 -0.5077141069
O   O29       1.0  0.00191  0.16502  0.74799  1.0000 -0.5177157626
O   O30       1.0  0.65486  0.14432  0.75834  1.0000 -0.5177157626
O   O31       1.0  0.00372  0.16684  0.61468  1.0000 -0.5008283772
O   O32       1.0  0.65399  0.14538  0.62471  1.0000 -0.5077141069
O   O33       1.0  0.66301  0.66502  0.58689  1.0000 -0.5177157626
O   O34       1.0  0.65266  0.64432  0.26054  1.0000 -0.5177157626
O   O35       1.0  0.53152  0.66684  0.58688  1.0000 -0.5008283772
O   O36       1.0  0.52009  0.64538  0.25861  1.0000 -0.5077141069
O   O37       1.0  0.00201  0.66502  0.74809  1.0000 -0.5177157626
O   O38       1.0  0.99166  0.64432  0.09514  1.0000 -0.5177157626
O   O39       1.0  0.13532  0.66684  0.74628  1.0000 -0.5008283772
O   O40       1.0  0.12529  0.64538  0.09601  1.0000 -0.5077141069
O   O41       1.0  0.00191  0.16502  0.08699  1.0000 -0.5177157626
O   O42       1.0  0.65486  0.14432  0.09734  1.0000 -0.5177157626
O   O43       1.0  0.00372  0.16684  0.21848  1.0000 -0.5008283772
O   O44       1.0  0.65399  0.14538  0.22991  1.0000 -0.5077141069
O   O45       1.0  0.16311  0.16502  0.74799  1.0000 -0.5177157626
O   O46       1.0  0.48946  0.14432  0.75834  1.0000 -0.5177157626
O   O47       1.0  0.16312  0.16684  0.61468  1.0000 -0.5008283772
O   O48       1.0  0.49139  0.14538  0.62471  1.0000 -0.5077141069
O   O49       1.0  0.74799  0.83498  0.16311  1.0000 -0.5177157626
O   O50       1.0  0.75834  0.85568  0.48946  1.0000 -0.5177157626
O   O51       1.0  0.61468  0.83316  0.16312  1.0000 -0.5008283772
O   O52       1.0  0.62471  0.85462  0.49139  1.0000 -0.5077141069
O   O53       1.0  0.08699  0.83498  0.00191  1.0000 -0.5177157626
O   O54       1.0  0.09734  0.85568  0.65486  1.0000 -0.5177157626
O   O55       1.0  0.21848  0.83316  0.00372  1.0000 -0.5008283772
O   O56       1.0  0.22991  0.85462  0.65399  1.0000 -0.5077141069
O   O57       1.0  0.58689  0.33498  0.66301  1.0000 -0.5177157626
O   O58       1.0  0.26054  0.35568  0.65266  1.0000 -0.5177157626
O   O59       1.0  0.58688  0.33316  0.53152  1.0000 -0.5008283772
O   O60       1.0  0.25861  0.35462  0.52009  1.0000 -0.5077141069
O   O61       1.0  0.74809  0.33498  0.00201  1.0000 -0.5177157626
O   O62       1.0  0.09514  0.35568  0.99166  1.0000 -0.5177157626
O   O63       1.0  0.74628  0.33316  0.13532  1.0000 -0.5008283772
O   O64       1.0  0.09601  0.35462  0.12529  1.0000 -0.5077141069
