# DDEC6 charges by PACMAN v1.1 (https://github.com/mtap-research/PACMAN-charge/)
data_2023[Gd][nan]2[ASR]1
_chemical_formula_sum              "Gd4 H82 C156 N10 O24 F36"
_cell_length_a       9.4211
_cell_length_b       16.7526
_cell_length_c       27.8006
_cell_angle_alpha    101.813
_cell_angle_beta     94.186
_cell_angle_gamma    93.081

_symmetry_space_group_name_H-M    "P 1"
_symmetry_Int_Tables_number       1

loop_
  _symmetry_equiv_pos_as_xyz
  'x, y, z'

loop_
  _atom_site_type_symbol
  _atom_site_label
  _atom_site_symmetry_multiplicity
  _atom_site_fract_x
  _atom_site_fract_y
  _atom_site_fract_z
  _atom_site_occupancy
  _atom_site_charge
Gd  Gd1       1.0  0.70086  0.97033  0.48944  1.0000 2.077844352
Gd  Gd2       1.0  0.29914  0.02967  0.51056  1.0000 2.077844352
Gd  Gd3       1.0  0.57930  0.89070  0.97270  1.0000 1.9043982928
Gd  Gd4       1.0  0.42070  0.10930  0.02730  1.0000 1.9056824153
H   H1        1.0  0.63408  0.75612  0.55774  1.0000 0.127839857
H   H2        1.0  0.36592  0.24388  0.44226  1.0000 0.127839857
H   H3        1.0  0.28251  0.84861  0.61157  1.0000 0.1104418156
H   H4        1.0  0.71749  0.15139  0.38843  1.0000 0.1104418156
H   H5        1.0  0.80092  0.09700  0.61544  1.0000 0.1203320112
H   H6        1.0  0.19908  0.90300  0.38456  1.0000 0.1203320112
H   H7        1.0  0.44157  0.12166  0.68457  1.0000 0.1203320112
H   H8        1.0  0.55843  0.87834  0.31543  1.0000 0.1203320112
H   H9        1.0  0.62207  0.65964  0.60737  1.0000 0.127839857
H   H10       1.0  0.37793  0.34036  0.39263  1.0000 0.127839857
H   H11       1.0  0.27798  0.75749  0.66358  1.0000 0.1203320112
H   H12       1.0  0.72202  0.24251  0.33642  1.0000 0.1203320112
H   H13       1.0  0.93221  0.13243  0.69155  1.0000 0.1203320112
H   H14       1.0  0.06779  0.86757  0.30845  1.0000 0.1203320112
H   H15       1.0  0.57283  0.16185  0.75921  1.0000 0.1104418156
H   H16       1.0  0.42717  0.83815  0.24079  1.0000 0.1104418156
H   H17       1.0  0.61994  0.75882  0.71917  1.0000 0.1203320112
H   H18       1.0  0.38006  0.24118  0.28083  1.0000 0.1203320112
H   H19       1.0  0.30664  0.60962  0.74521  1.0000 0.127839857
H   H20       1.0  0.69336  0.39038  0.25479  1.0000 0.127839857
H   H21       1.0  0.55180  0.53371  0.71290  1.0000 0.1104418156
H   H22       1.0  0.44820  0.46629  0.28710  1.0000 0.1104418156
H   H23       1.0  0.34064  0.55963  0.58879  1.0000 0.1203320112
H   H24       1.0  0.65936  0.44037  0.41121  1.0000 0.1203320112
H   H25       1.0  0.92602  0.30031  0.74253  1.0000 0.127839857
H   H26       1.0  0.07398  0.69969  0.25747  1.0000 0.1203320112
H   H27       1.0  0.08538  0.14902  0.82349  1.0000 0.1203320112
H   H28       1.0  0.91462  0.85098  0.17651  1.0000 0.1203320112
H   H29       1.0  0.86579  0.25564  0.86900  1.0000 0.127839857
H   H30       1.0  0.13421  0.74436  0.13100  1.0000 0.127839857
H   H31       1.0  0.72494  0.03538  0.79005  1.0000 0.127839857
H   H32       1.0  0.27506  0.96462  0.20995  1.0000 0.127839857
H   H33       1.0  0.65130  0.81702  0.80032  1.0000 0.127839857
H   H34       1.0  0.34870  0.18298  0.19968  1.0000 0.127839857
H   H35       1.0  0.33872  0.67077  0.82810  1.0000 0.127839857
H   H36       1.0  0.66128  0.32923  0.17190  1.0000 0.127839857
H   H37       1.0  0.79586  0.21769  0.93964  1.0000 0.1104418156
H   H38       1.0  0.20414  0.78231  0.06036  1.0000 0.1104418156
H   H39       1.0  0.67017  0.99540  0.86104  1.0000 0.127839857
H   H40       1.0  0.32983  0.00460  0.13896  1.0000 0.127839857
H   H41       1.0  0.47258  0.34265  0.60174  1.0000 0.1104418156
H   H42       1.0  0.52742  0.65735  0.39826  1.0000 0.1104418156
H   H43       1.0  0.33884  0.32887  0.79225  1.0000 0.1104418156
H   H44       1.0  0.66116  0.67113  0.20775  1.0000 0.1104418156
H   H45       1.0  0.91031  0.90695  0.93108  1.0000 0.1203320112
H   H46       1.0  0.08969  0.09305  0.06892  1.0000 0.1203320112
H   H47       1.0  0.41793  0.73467  0.01786  1.0000 0.1104418156
H   H48       1.0  0.58207  0.26533  0.98214  1.0000 0.1104418156
H   H49       1.0  0.13320  0.86275  0.92647  1.0000 0.127839857
H   H50       1.0  0.86680  0.13725  0.07353  1.0000 0.127839857
H   H51       1.0  0.44223  0.61382  0.04113  1.0000 0.127839857
H   H52       1.0  0.55777  0.38618  0.95887  1.0000 0.127839857
H   H53       1.0  0.93966  0.96508  0.11307  1.0000 0.1203320112
H   H54       1.0  0.06034  0.03492  0.88693  1.0000 0.1203320112
H   H55       1.0  0.60012  0.08939  0.14773  1.0000 0.1203320112
H   H56       1.0  0.39988  0.91061  0.85227  1.0000 0.1203320112
H   H57       1.0  0.17656  0.73668  0.94565  1.0000 0.127839857
H   H58       1.0  0.82344  0.26332  0.05435  1.0000 0.127839857
H   H59       1.0  0.08876  0.62282  0.98459  1.0000 0.1203320112
H   H60       1.0  0.91124  0.37718  0.01541  1.0000 0.1203320112
H   H61       1.0  0.92277  0.56819  0.01897  1.0000 0.1203320112
H   H62       1.0  0.07723  0.43181  0.98103  1.0000 0.1203320112
H   H63       1.0  0.65241  0.54801  0.03275  1.0000 0.1203320112
H   H64       1.0  0.34759  0.45199  0.96725  1.0000 0.1203320112
H   H65       1.0  0.05986  0.03249  0.18798  1.0000 0.1203320112
H   H66       1.0  0.94014  0.96751  0.81202  1.0000 0.1203320112
H   H67       1.0  0.71951  0.15853  0.21968  1.0000 0.1203320112
H   H68       1.0  0.28049  0.84147  0.78032  1.0000 0.127839857
H   H69       1.0  0.00489  0.26141  0.33545  1.0000 0.1203320112
H   H70       1.0  0.99511  0.73859  0.66455  1.0000 0.1203320112
H   H71       1.0  0.02976  0.22935  0.19037  1.0000 0.1203320112
H   H72       1.0  0.97024  0.77065  0.80963  1.0000 0.1203320112
H   H73       1.0  0.19311  0.14661  0.32110  1.0000 0.127839857
H   H74       1.0  0.80689  0.85339  0.67890  1.0000 0.127839857
H   H75       1.0  0.79344  0.04870  0.28335  1.0000 0.127839857
H   H76       1.0  0.20656  0.95130  0.71665  1.0000 0.127839857
H   H77       1.0  0.20156  0.08990  0.39082  1.0000 0.127839857
H   H78       1.0  0.79844  0.91010  0.60918  1.0000 0.1203320112
H   H79       1.0  0.80256  0.99545  0.35498  1.0000 0.127839857
H   H80       1.0  0.19744  0.00455  0.64502  1.0000 0.127839857
H   H81       1.0  0.11166  0.45328  0.27608  1.0000 0.1041327571
H   H82       1.0  0.88834  0.54672  0.72392  1.0000 0.1041327571
C   C1        1.0  0.46300  0.87120  0.54510  1.0000 0.6468374436
C   C2        1.0  0.53700  0.12880  0.45490  1.0000 0.6468374436
C   C3        1.0  0.52010  0.08300  0.59310  1.0000 0.610933811
C   C4        1.0  0.47990  0.91700  0.40690  1.0000 0.610933811
C   C5        1.0  0.45640  0.80990  0.57820  1.0000 -0.0280216112
C   C6        1.0  0.54360  0.19010  0.42180  1.0000 -0.0280216112
C   C7        1.0  0.60730  0.10540  0.64160  1.0000 -0.0280216112
C   C8        1.0  0.39270  0.89460  0.35840  1.0000 -0.0280216112
C   C9        1.0  0.56000  0.75520  0.57800  1.0000 -0.0809653028
C   C10       1.0  0.44000  0.24480  0.42200  1.0000 -0.0809653028
C   C11       1.0  0.35140  0.81070  0.61060  1.0000 -0.0809653028
C   C12       1.0  0.64860  0.18930  0.38940  1.0000 -0.0809653028
C   C13       1.0  0.75440  0.10910  0.64420  1.0000 -0.0809653028
C   C14       1.0  0.24560  0.89090  0.35580  1.0000 -0.0809653028
C   C15       1.0  0.54070  0.12470  0.68580  1.0000 -0.0809653028
C   C16       1.0  0.45930  0.87530  0.31420  1.0000 -0.0809653028
C   C17       1.0  0.55420  0.69810  0.60820  1.0000 -0.1701880204
C   C18       1.0  0.44580  0.30190  0.39180  1.0000 -0.1701880204
C   C19       1.0  0.34770  0.75580  0.64140  1.0000 -0.1701880204
C   C20       1.0  0.65230  0.24420  0.35860  1.0000 -0.1701880204
C   C21       1.0  0.83310  0.13100  0.68980  1.0000 -0.1884303165
C   C22       1.0  0.16690  0.86900  0.31020  1.0000 -0.1884303165
C   C23       1.0  0.61820  0.14790  0.73040  1.0000 -0.1884303165
C   C24       1.0  0.38180  0.85210  0.26960  1.0000 -0.1884303165
C   C25       1.0  0.44570  0.69980  0.63930  1.0000 0.1649840479
C   C26       1.0  0.55430  0.30020  0.36070  1.0000 0.1649840479
C   C27       1.0  0.76590  0.15020  0.73190  1.0000 0.1706484841
C   C28       1.0  0.23410  0.84980  0.26810  1.0000 0.1706484841
C   C29       1.0  0.46030  0.67660  0.72370  1.0000 0.1706484841
C   C30       1.0  0.53970  0.32340  0.27630  1.0000 0.1706484841
C   C31       1.0  0.45000  0.56010  0.65370  1.0000 0.1995844362
C   C32       1.0  0.55000  0.43990  0.34630  1.0000 0.1995844362
C   C33       1.0  0.98270  0.21630  0.78170  1.0000 0.1995844362
C   C34       1.0  0.01730  0.78370  0.21830  1.0000 0.1995844362
C   C35       1.0  0.80090  0.14960  0.82230  1.0000 0.1706484841
C   C36       1.0  0.19910  0.85040  0.17770  1.0000 0.1706484841
C   C37       1.0  0.56310  0.73990  0.74100  1.0000 -0.1793728473
C   C38       1.0  0.43690  0.26010  0.25900  1.0000 -0.1793728473
C   C39       1.0  0.37750  0.65160  0.75630  1.0000 -0.1793728473
C   C40       1.0  0.62250  0.34840  0.24370  1.0000 -0.1793728473
C   C41       1.0  0.51570  0.51080  0.68070  1.0000 -0.1701880204
C   C42       1.0  0.48430  0.48920  0.31930  1.0000 -0.1701880204
C   C43       1.0  0.38570  0.52590  0.60690  1.0000 -0.1512209529
C   C44       1.0  0.61430  0.47410  0.39310  1.0000 -0.1512209529
C   C45       1.0  0.00260  0.28290  0.75970  1.0000 -0.1701880204
C   C46       1.0  0.99740  0.71710  0.24030  1.0000 -0.1701880204
C   C47       1.0  0.09770  0.19250  0.80770  1.0000 -0.1793728473
C   C48       1.0  0.90230  0.80750  0.19230  1.0000 -0.1793728473
C   C49       1.0  0.82370  0.20350  0.86720  1.0000 -0.1884303165
C   C50       1.0  0.17630  0.79650  0.13280  1.0000 -0.1884303165
C   C51       1.0  0.74180  0.07200  0.82020  1.0000 -0.1793728473
C   C52       1.0  0.25820  0.92800  0.17980  1.0000 -0.1884303165
C   C53       1.0  0.58150  0.77440  0.78970  1.0000 -0.0912227658
C   C54       1.0  0.41850  0.22560  0.21030  1.0000 -0.0912227658
C   C55       1.0  0.39710  0.68790  0.80600  1.0000 -0.0809653028
C   C56       1.0  0.60290  0.31210  0.19400  1.0000 -0.0809653028
C   C57       1.0  0.53130  0.42950  0.66300  1.0000 -0.1512209529
C   C58       1.0  0.46870  0.57050  0.33700  1.0000 -0.1512209529
C   C59       1.0  0.38620  0.44490  0.58680  1.0000 -0.0978739731
C   C60       1.0  0.61380  0.55510  0.41320  1.0000 -0.0978739731
C   C61       1.0  0.13450  0.32290  0.76340  1.0000 -0.0912227658
C   C62       1.0  0.86550  0.67710  0.23660  1.0000 -0.0809653028
C   C63       1.0  0.23060  0.23260  0.81060  1.0000 -0.0978739731
C   C64       1.0  0.76940  0.76740  0.18940  1.0000 -0.0978739731
C   C65       1.0  0.78450  0.18040  0.90960  1.0000 -0.0978739731
C   C66       1.0  0.21550  0.81960  0.09040  1.0000 -0.0978739731
C   C67       1.0  0.70780  0.04840  0.86260  1.0000 -0.0912227658
C   C68       1.0  0.29220  0.95160  0.13740  1.0000 -0.0912227658
C   C69       1.0  0.50460  0.75020  0.82300  1.0000 -0.0225161318
C   C70       1.0  0.49540  0.24980  0.17700  1.0000 -0.0225161318
C   C71       1.0  0.46480  0.39760  0.61540  1.0000 -0.0912227658
C   C72       1.0  0.53520  0.60240  0.38460  1.0000 -0.0912227658
C   C73       1.0  0.59980  0.37990  0.69480  1.0000 0.5477578496
C   C74       1.0  0.40020  0.62010  0.30520  1.0000 0.5477578496
C   C75       1.0  0.30630  0.41240  0.53560  1.0000 0.5780726378
C   C76       1.0  0.69370  0.58760  0.46440  1.0000 0.5780726378
C   C77       1.0  0.25030  0.30010  0.78920  1.0000 -0.1200740146
C   C78       1.0  0.74970  0.69990  0.21080  1.0000 -0.1200740146
C   C79       1.0  0.14750  0.39800  0.74120  1.0000 0.5593593126
C   C80       1.0  0.85250  0.60200  0.25880  1.0000 0.5593593126
C   C81       1.0  0.35050  0.20170  0.83800  1.0000 0.6359518474
C   C82       1.0  0.64950  0.79830  0.16200  1.0000 0.6359518474
C   C83       1.0  0.72870  0.10210  0.90710  1.0000 -0.0280216112
C   C84       1.0  0.27130  0.89790  0.09290  1.0000 -0.0280216112
C   C85       1.0  0.52680  0.79530  0.87640  1.0000 0.5477578496
C   C86       1.0  0.47320  0.20470  0.12360  1.0000 0.5477578496
C   C87       1.0  0.68600  0.07550  0.95370  1.0000 0.6302013104
C   C88       1.0  0.31400  0.92450  0.04630  1.0000 0.6302013104
C   C89       1.0  0.68110  0.98370  0.07280  1.0000 0.5903248494
C   C90       1.0  0.31890  0.01630  0.92720  1.0000 0.5903248494
C   C91       1.0  0.92780  0.86000  0.94290  1.0000 0.1203320112
C   C92       1.0  0.07220  0.14000  0.05710  1.0000 0.1203320112
C   C93       1.0  0.85180  0.75630  0.97520  1.0000 0.1203320112
C   C94       1.0  0.14820  0.24370  0.02480  1.0000 0.1203320112
C   C95       1.0  0.74020  0.71470  0.99590  1.0000 0.127839857
C   C96       1.0  0.25980  0.28530  0.00410  1.0000 0.127839857
C   C97       1.0  0.50510  0.71130  0.01550  1.0000 0.1104418156
C   C98       1.0  0.49490  0.28870  0.98450  1.0000 0.1104418156
C   C99       1.0  0.75780  0.02270  0.12170  1.0000 -0.0280216112
C   C100      1.0  0.24220  0.97730  0.87830  1.0000 -0.0280216112
C   C101      1.0  0.06260  0.83250  0.93810  1.0000 -0.1383066896
C   C102      1.0  0.93740  0.16750  0.06190  1.0000 -0.1316509495
C   C103      1.0  0.98440  0.72430  0.97090  1.0000 0.0378295337
C   C104      1.0  0.01560  0.27570  0.02910  1.0000 0.0378295337
C   C105      1.0  0.75700  0.64210  0.00830  1.0000 0.0499916603
C   C106      1.0  0.24300  0.35790  0.99170  1.0000 0.0499916603
C   C107      1.0  0.51920  0.63800  0.02890  1.0000 -0.1608480508
C   C108      1.0  0.48080  0.36200  0.97110  1.0000 -0.1608480508
C   C109      1.0  0.89520  0.00440  0.13440  1.0000 -0.0978739731
C   C110      1.0  0.10480  0.99560  0.86560  1.0000 -0.0978739731
C   C111      1.0  0.69430  0.07880  0.15500  1.0000 -0.0809653028
C   C112      1.0  0.30570  0.92120  0.84500  1.0000 -0.0809653028
C   C113      1.0  0.09010  0.76010  0.95070  1.0000 -0.0809653028
C   C114      1.0  0.90990  0.23990  0.04930  1.0000 -0.0809653028
C   C115      1.0  0.00250  0.64710  0.98760  1.0000 -0.1383066896
C   C116      1.0  0.99750  0.35290  0.01240  1.0000 -0.1383066896
C   C117      1.0  0.90330  0.61370  0.00600  1.0000 -0.1383066896
C   C118      1.0  0.09670  0.38630  0.99400  1.0000 -0.1383066896
C   C119      1.0  0.64330  0.59900  0.02500  1.0000 -0.1102430815
C   C120      1.0  0.35670  0.40100  0.97500  1.0000 -0.1102430815
C   C121      1.0  0.96770  0.04510  0.17940  1.0000 -0.1884303165
C   C122      1.0  0.03230  0.95490  0.82060  1.0000 -0.1884303165
C   C123      1.0  0.76490  0.11960  0.19840  1.0000 -0.1701880204
C   C124      1.0  0.23510  0.88040  0.80160  1.0000 -0.1701880204
C   C125      1.0  0.90280  0.10350  0.21090  1.0000 0.1706484841
C   C126      1.0  0.09720  0.89650  0.78910  1.0000 0.1706484841
C   C127      1.0  0.01540  0.23080  0.26170  1.0000 0.1912016427
C   C128      1.0  0.98460  0.76920  0.73830  1.0000 0.1912016427
C   C129      1.0  0.98840  0.10760  0.29680  1.0000 0.1754401331
C   C130      1.0  0.01160  0.89240  0.70320  1.0000 0.1754401331
C   C131      1.0  0.02270  0.28250  0.30780  1.0000 -0.1793728473
C   C132      1.0  0.97730  0.71750  0.69220  1.0000 -0.1793728473
C   C133      1.0  0.03870  0.26320  0.22160  1.0000 -0.1793728473
C   C134      1.0  0.96130  0.73680  0.77840  1.0000 -0.1793728473
C   C135      1.0  0.11310  0.11750  0.32810  1.0000 -0.1793728473
C   C136      1.0  0.88690  0.88250  0.67190  1.0000 -0.1793728473
C   C137      1.0  0.87420  0.05950  0.30560  1.0000 -0.1884303165
C   C138      1.0  0.12580  0.94050  0.69440  1.0000 -0.1884303165
C   C139      1.0  0.05630  0.36510  0.31280  1.0000 -0.1316509495
C   C140      1.0  0.94370  0.63490  0.68720  1.0000 -0.1316509495
C   C141      1.0  0.07520  0.34500  0.22660  1.0000 -0.1200740146
C   C142      1.0  0.92480  0.65500  0.77340  1.0000 -0.1200740146
C   C143      1.0  0.11810  0.08360  0.37000  1.0000 -0.0809653028
C   C144      1.0  0.88190  0.91640  0.63000  1.0000 -0.0809653028
C   C145      1.0  0.88030  0.02690  0.34830  1.0000 -0.0912227658
C   C146      1.0  0.11970  0.97310  0.65170  1.0000 -0.0912227658
C   C147      1.0  0.08580  0.39790  0.27260  1.0000 -0.1316509495
C   C148      1.0  0.91420  0.60210  0.72740  1.0000 -0.1316509495
C   C149      1.0  0.05520  0.42230  0.36120  1.0000 0.5593593126
C   C150      1.0  0.94480  0.57770  0.63880  1.0000 0.5593593126
C   C151      1.0  0.10290  0.38020  0.18320  1.0000 0.610933811
C   C152      1.0  0.89710  0.61980  0.81680  1.0000 0.610933811
C   C153      1.0  0.00180  0.04160  0.38030  1.0000 -0.0424637678
C   C154      1.0  0.99820  0.95840  0.61970  1.0000 -0.0424637678
C   C155      1.0  0.00310  0.00900  0.42740  1.0000 0.6584900921
C   C156      1.0  0.99690  0.99100  0.57260  1.0000 0.6584900921
N   N1        1.0  0.44060  0.64320  0.67270  1.0000 -0.1884303165
N   N2        1.0  0.55940  0.35680  0.32730  1.0000 -0.1884303165
N   N3        1.0  0.84800  0.17480  0.77906  1.0000 -0.1884303165
N   N4        1.0  0.15200  0.82520  0.22094  1.0000 -0.1884303165
N   N5        1.0  0.82280  0.82820  0.96200  1.0000 -0.3330117458
N   N6        1.0  0.17720  0.17180  0.03800  1.0000 -0.3330117458
N   N7        1.0  0.61260  0.75060  0.99890  1.0000 -0.3491654987
N   N8        1.0  0.38740  0.24940  0.00110  1.0000 -0.3491654987
N   N9        1.0  0.98000  0.14630  0.25560  1.0000 -0.1884303165
N   N10       1.0  0.02000  0.85370  0.74440  1.0000 -0.1884303165
O   O1        1.0  0.57660  0.87800  0.52570  1.0000 -0.6590997571
O   O2        1.0  0.42340  0.12200  0.47430  1.0000 -0.6590997571
O   O3        1.0  0.42400  0.94850  0.44618  1.0000 -0.7280240948
O   O4        1.0  0.57600  0.05150  0.55382  1.0000 -0.7280240948
O   O5        1.0  0.35520  0.91060  0.53990  1.0000 -0.6468144203
O   O6        1.0  0.64480  0.08940  0.46010  1.0000 -0.6468144203
O   O7        1.0  0.39010  0.09350  0.59252  1.0000 -0.6125847096
O   O8        1.0  0.60990  0.90650  0.40748  1.0000 -0.6125847096
O   O9        1.0  0.12070  0.99930  0.44759  1.0000 -0.6657800669
O   O10       1.0  0.87930  0.00070  0.55241  1.0000 -0.6657800669
O   O11       1.0  0.11320  0.00610  0.55729  1.0000 -0.643627196
O   O12       1.0  0.88680  0.99390  0.44271  1.0000 -0.643627196
O   O13       1.0  0.61880  0.85450  0.88713  1.0000 -0.6125847096
O   O14       1.0  0.38120  0.14550  0.11287  1.0000 -0.6125847096
O   O15       1.0  0.45290  0.77570  0.90810  1.0000 -0.5895626242
O   O16       1.0  0.54710  0.22430  0.09190  1.0000 -0.5895626242
O   O17       1.0  0.71480  0.00470  0.95847  1.0000 -0.6468144203
O   O18       1.0  0.28520  0.99530  0.04153  1.0000 -0.6468144203
O   O19       1.0  0.62340  0.12540  0.98380  1.0000 -0.6590997571
O   O20       1.0  0.37660  0.87460  0.01620  1.0000 -0.6590997571
O   O21       1.0  0.58160  0.01800  0.05534  1.0000 -0.6590997571
O   O22       1.0  0.41840  0.98200  0.94466  1.0000 -0.6590997571
O   O23       1.0  0.72710  0.92020  0.04960  1.0000 -0.5895626242
O   O24       1.0  0.27290  0.07980  0.95040  1.0000 -0.5895626242
F   F1        1.0  0.52460  0.32750  0.70550  1.0000 -0.1512209529
F   F2        1.0  0.47540  0.67250  0.29450  1.0000 -0.1512209529
F   F3        1.0  0.69100  0.33960  0.66990  1.0000 -0.1608480508
F   F4        1.0  0.30900  0.66040  0.33010  1.0000 -0.1608480508
F   F5        1.0  0.65800  0.41690  0.73400  1.0000 -0.1701880204
F   F6        1.0  0.34200  0.58310  0.26600  1.0000 -0.1701880204
F   F7        1.0  0.30230  0.33370  0.52810  1.0000 -0.1884303165
F   F8        1.0  0.69770  0.66630  0.47190  1.0000 -0.1884303165
F   F9        1.0  0.39480  0.42820  0.50570  1.0000 -0.1793728473
F   F10       1.0  0.60520  0.57180  0.49430  1.0000 -0.1793728473
F   F11       1.0  0.19600  0.44580  0.52260  1.0000 -0.2106689458
F   F12       1.0  0.80400  0.55420  0.47740  1.0000 -0.2106689458
F   F13       1.0  0.04990  0.40820  0.71390  1.0000 -0.1608480508
F   F14       1.0  0.95010  0.59180  0.28610  1.0000 -0.1608480508
F   F15       1.0  0.23740  0.37870  0.70210  1.0000 -0.1512209529
F   F16       1.0  0.76260  0.62130  0.29790  1.0000 -0.1512209529
F   F17       1.0  0.23060  0.45210  0.76370  1.0000 -0.1701880204
F   F18       1.0  0.76940  0.54790  0.23630  1.0000 -0.1701880204
F   F19       1.0  0.37930  0.12900  0.81740  1.0000 -0.1793728473
F   F20       1.0  0.62070  0.87100  0.18260  1.0000 -0.1793728473
F   F21       1.0  0.31980  0.19720  0.88290  1.0000 -0.1884303165
F   F22       1.0  0.68020  0.80280  0.11710  1.0000 -0.1884303165
F   F23       1.0  0.47390  0.24480  0.84130  1.0000 -0.2106689458
F   F24       1.0  0.52610  0.75520  0.15870  1.0000 -0.2046065176
F   F25       1.0  0.06160  0.38600  0.39860  1.0000 -0.1701880204
F   F26       1.0  0.93840  0.61400  0.60140  1.0000 -0.1701880204
F   F27       1.0  0.17040  0.46690  0.37320  1.0000 -0.1512209529
F   F28       1.0  0.82960  0.53310  0.62680  1.0000 -0.1512209529
F   F29       1.0  0.96460  0.46860  0.36660  1.0000 -0.1383066896
F   F30       1.0  0.03540  0.53140  0.63340  1.0000 -0.1383066896
F   F31       1.0  0.98860  0.39140  0.15780  1.0000 -0.1884303165
F   F32       1.0  0.01140  0.60860  0.84220  1.0000 -0.1884303165
F   F33       1.0  0.17930  0.44510  0.19120  1.0000 -0.1793728473
F   F34       1.0  0.82070  0.55490  0.80880  1.0000 -0.1793728473
F   F35       1.0  0.16710  0.32800  0.14820  1.0000 -0.1884303165
F   F36       1.0  0.83290  0.67200  0.85180  1.0000 -0.1884303165
