# DDEC6 charges by PACMAN v1.1 (https://github.com/mtap-research/PACMAN-charge/)
data_2023[Zn][sql]2[ASR]3
_chemical_formula_sum              "Zn2 H36 C60 N8 O8"
_cell_length_a       6.8962
_cell_length_b       12.682
_cell_length_c       17.171
_cell_angle_alpha    107.892
_cell_angle_beta     98.897
_cell_angle_gamma    90.329

_symmetry_space_group_name_H-M    "P 1"
_symmetry_Int_Tables_number       1

loop_
  _symmetry_equiv_pos_as_xyz
  'x, y, z'

loop_
  _atom_site_type_symbol
  _atom_site_label
  _atom_site_symmetry_multiplicity
  _atom_site_fract_x
  _atom_site_fract_y
  _atom_site_fract_z
  _atom_site_occupancy
  _atom_site_charge
Zn  Zn1       1.0  0.80577  0.98880  0.79742  1.0000 0.7487522384
Zn  Zn2       1.0  0.19423  0.01120  0.20258  1.0000 0.7487522384
H   H1        1.0  0.61473  0.63612  0.83931  1.0000 0.1402774809
H   H2        1.0  0.38527  0.36388  0.16069  1.0000 0.1402774809
H   H3        1.0  0.38617  0.05159  0.80297  1.0000 0.1108010618
H   H4        1.0  0.61383  0.94841  0.19703  1.0000 0.1108010618
H   H5        1.0  0.02815  0.58188  0.67334  1.0000 0.1402774809
H   H6        1.0  0.97185  0.41812  0.32666  1.0000 0.1402774809
H   H7        1.0  0.79294  0.79494  0.85863  1.0000 0.1193245617
H   H8        1.0  0.20706  0.20506  0.14137  1.0000 0.1193245617
H   H9        1.0  0.24774  0.86344  0.94928  1.0000 0.1193245617
H   H10       1.0  0.75226  0.13656  0.05072  1.0000 0.1193245617
H   H11       1.0  0.19477  0.18363  0.77118  1.0000 0.1402774809
H   H12       1.0  0.80523  0.81637  0.22882  1.0000 0.1402774809
H   H13       1.0  0.05624  0.27170  0.68364  1.0000 0.1193245617
H   H14       1.0  0.94376  0.72830  0.31636  1.0000 0.1193245617
H   H15       1.0  0.68324  0.36386  0.78487  1.0000 0.130404385
H   H16       1.0  0.31676  0.63614  0.21513  1.0000 0.130404385
H   H17       1.0  0.85819  0.23060  0.82255  1.0000 0.1193245617
H   H18       1.0  0.14181  0.76940  0.17745  1.0000 0.1193245617
H   H19       1.0  0.41080  0.87496  0.69581  1.0000 0.1193245617
H   H20       1.0  0.58920  0.12504  0.30419  1.0000 0.1193245617
H   H21       1.0  0.69957  0.54313  0.65429  1.0000 0.1108010618
H   H22       1.0  0.30043  0.45687  0.34571  1.0000 0.1108010618
H   H23       1.0  0.21995  0.71934  0.67500  1.0000 0.1402774809
H   H24       1.0  0.78005  0.28066  0.32500  1.0000 0.1402774809
H   H25       1.0  0.44950  0.17428  0.98848  1.0000 0.1193245617
H   H26       1.0  0.55050  0.82572  0.01152  1.0000 0.1193245617
H   H27       1.0  0.79925  0.98407  0.37684  1.0000 0.1193245617
H   H28       1.0  0.20075  0.01593  0.62316  1.0000 0.1193245617
H   H29       1.0  0.85911  0.23088  0.55677  1.0000 0.1193245617
H   H30       1.0  0.14089  0.76912  0.44323  1.0000 0.1193245617
H   H31       1.0  0.39077  0.49435  0.57411  1.0000 0.1108010618
H   H32       1.0  0.60923  0.50565  0.42589  1.0000 0.1108010618
H   H33       1.0  0.66631  0.96690  0.48497  1.0000 0.1193245617
H   H34       1.0  0.33369  0.03310  0.51503  1.0000 0.1193245617
H   H35       1.0  0.54688  0.18445  0.47706  1.0000 0.130404385
H   H36       1.0  0.45312  0.81555  0.52294  1.0000 0.130404385
C   C1        1.0  0.39400  0.65840  0.75370  1.0000 0.0897169665
C   C2        1.0  0.60600  0.34160  0.24630  1.0000 0.0897169665
C   C3        1.0  0.91770  0.98970  0.56810  1.0000 -0.0374308133
C   C4        1.0  0.08230  0.01030  0.43190  1.0000 -0.0374308133
C   C5        1.0  0.82830  0.98210  0.63900  1.0000 0.5519787392
C   C6        1.0  0.17170  0.01790  0.36100  1.0000 0.5519787392
C   C7        1.0  0.28390  0.55060  0.73710  1.0000 0.2047464272
C   C8        1.0  0.71610  0.44940  0.26290  1.0000 0.2047464272
C   C9        1.0  0.12710  0.04710  0.91870  1.0000 0.5519787392
C   C10       1.0  0.87290  0.95290  0.08130  1.0000 0.5519787392
C   C11       1.0  0.31970  0.02290  0.96170  1.0000 -0.0277901998
C   C12       1.0  0.68030  0.97710  0.03830  1.0000 -0.0277901998
C   C13       1.0  0.57050  0.68400  0.80970  1.0000 -0.1776993155
C   C14       1.0  0.42950  0.31600  0.19030  1.0000 -0.1776993155
C   C15       1.0  0.29760  0.37280  0.74330  1.0000 0.2063030919
C   C16       1.0  0.70240  0.62720  0.25670  1.0000 0.2063030919
C   C17       1.0  0.80790  0.39130  0.61560  1.0000 0.0897169665
C   C18       1.0  0.19210  0.60870  0.38440  1.0000 0.0897169665
C   C19       1.0  0.44690  0.11430  0.79800  1.0000 0.0897169665
C   C20       1.0  0.55310  0.88570  0.20200  1.0000 0.0897169665
C   C21       1.0  0.09460  0.52690  0.69000  1.0000 -0.2209084162
C   C22       1.0  0.90540  0.47310  0.31000  1.0000 -0.2209084162
C   C23       1.0  0.67700  0.77910  0.82040  1.0000 0.0897169665
C   C24       1.0  0.32300  0.22090  0.17960  1.0000 0.0897169665
C   C25       1.0  0.41460  0.28860  0.77050  1.0000 0.1033138206
C   C26       1.0  0.58540  0.71140  0.22950  1.0000 0.1033138206
C   C27       1.0  0.34890  0.91850  0.96930  1.0000 -0.1027675101
C   C28       1.0  0.65110  0.08150  0.03070  1.0000 -0.1027675101
C   C29       1.0  0.33090  0.19370  0.77880  1.0000 -0.1776993155
C   C30       1.0  0.66910  0.80630  0.22120  1.0000 -0.1776993155
C   C31       1.0  0.00830  0.42220  0.66880  1.0000 0.1193245617
C   C32       1.0  0.99170  0.57780  0.33120  1.0000 0.1193245617
C   C33       1.0  0.11120  0.34330  0.69640  1.0000 -0.2209084162
C   C34       1.0  0.88880  0.65670  0.30360  1.0000 -0.2209084162
C   C35       1.0  0.61820  0.30090  0.78760  1.0000 -0.1776993155
C   C36       1.0  0.38180  0.69910  0.21240  1.0000 -0.1776993155
C   C37       1.0  0.72230  0.21900  0.80840  1.0000 0.0830574503
C   C38       1.0  0.27770  0.78100  0.19160  1.0000 0.0830574503
C   C39       1.0  0.45200  0.82620  0.72510  1.0000 0.0647288134
C   C40       1.0  0.54800  0.17380  0.27490  1.0000 0.0647288134
C   C41       1.0  0.66930  0.47090  0.61930  1.0000 -0.1539055685
C   C42       1.0  0.33070  0.52910  0.38070  1.0000 -0.1539055685
C   C43       1.0  0.33740  0.73280  0.71220  1.0000 -0.1723120192
C   C44       1.0  0.66260  0.26720  0.28780  1.0000 -0.1723120192
C   C45       1.0  0.44190  0.33550  0.51680  1.0000 0.0435667468
C   C46       1.0  0.55810  0.66450  0.48320  1.0000 0.0435667468
C   C47       1.0  0.46960  0.10370  0.99280  1.0000 -0.1210626492
C   C48       1.0  0.53040  0.89630  0.00720  1.0000 -0.1210626492
C   C49       1.0  0.88160  0.99050  0.42660  1.0000 -0.1110940642
C   C50       1.0  0.11840  0.00950  0.57340  1.0000 -0.1110940642
C   C51       1.0  0.76490  0.28360  0.56080  1.0000 -0.1297616342
C   C52       1.0  0.23510  0.71640  0.43920  1.0000 -0.1297616342
C   C53       1.0  0.48540  0.44190  0.57060  1.0000 -0.1297616342
C   C54       1.0  0.51460  0.55810  0.42940  1.0000 -0.1297616342
C   C55       1.0  0.80150  0.98040  0.49150  1.0000 -0.1110940642
C   C56       1.0  0.19850  0.01960  0.50850  1.0000 -0.1110940642
C   C57       1.0  0.57860  0.25640  0.51240  1.0000 -0.1110940642
C   C58       1.0  0.42140  0.74360  0.48760  1.0000 -0.1110940642
C   C59       1.0  0.25060  0.31010  0.46430  1.0000 0.266737642
C   C60       1.0  0.74940  0.68990  0.53570  1.0000 0.266737642
N   N1        1.0  0.62550  0.85140  0.77960  1.0000 -0.2393241206
N   N2        1.0  0.37450  0.14860  0.22040  1.0000 -0.2393241206
N   N3        1.0  0.38160  0.47470  0.76390  1.0000 -0.3225391189
N   N4        1.0  0.61840  0.52530  0.23610  1.0000 -0.3225391189
N   N5        1.0  0.64190  0.12370  0.80980  1.0000 -0.2209084162
N   N6        1.0  0.35810  0.87630  0.19020  1.0000 -0.2209084162
N   N7        1.0  0.09990  0.29380  0.42510  1.0000 -0.3634603301
N   N8        1.0  0.90010  0.70620  0.57490  1.0000 -0.3634603301
O   O1        1.0  0.00710  0.96290  0.88100  1.0000 -0.5517473796
O   O2        1.0  0.99290  0.03710  0.11900  1.0000 -0.5517473796
O   O3        1.0  0.94670  0.99560  0.70790  1.0000 -0.5517473796
O   O4        1.0  0.05330  0.00440  0.29210  1.0000 -0.5517473796
O   O5        1.0  0.64740  0.96500  0.63160  1.0000 -0.5628429333
O   O6        1.0  0.35260  0.03500  0.36840  1.0000 -0.5628429333
O   O7        1.0  0.09530  0.14000  0.91470  1.0000 -0.5360403935
O   O8        1.0  0.90470  0.86000  0.08530  1.0000 -0.5360403935
