# DDEC6 charges by PACMAN v1.1 (https://github.com/mtap-research/PACMAN-charge/)
data_2024[Zn][lig]3[ASR]2
_chemical_formula_sum              "Zn4 H12 C20 N16"
_cell_length_a       11.6378
_cell_length_b       11.6378
_cell_length_c       11.6378
_cell_angle_alpha    99.9573
_cell_angle_beta     99.9573
_cell_angle_gamma    130.857

_symmetry_space_group_name_H-M    "P 1"
_symmetry_Int_Tables_number       1

loop_
  _symmetry_equiv_pos_as_xyz
  'x, y, z'

loop_
  _atom_site_type_symbol
  _atom_site_label
  _atom_site_symmetry_multiplicity
  _atom_site_fract_x
  _atom_site_fract_y
  _atom_site_fract_z
  _atom_site_occupancy
  _atom_site_charge
Zn  Zn1       1.0  0.27462  0.79710  0.16396  1.0000 0.54917844
Zn  Zn2       1.0  0.63314  0.11066  0.83604  1.0000 0.5371688789
Zn  Zn3       1.0  0.88934  0.72538  0.52248  1.0000 0.5371688789
Zn  Zn4       1.0  0.20290  0.36686  0.47752  1.0000 0.54917844
H   H1        1.0  0.54550  0.97300  0.04990  1.0000 0.0866250003
H   H2        1.0  0.92310  0.49560  0.95010  1.0000 0.0866250003
H   H3        1.0  0.50440  0.45450  0.42750  1.0000 0.0866250003
H   H4        1.0  0.02700  0.07690  0.57250  1.0000 0.0866250003
H   H5        1.0  0.24090  0.91340  0.66390  1.0000 0.0974715798
H   H6        1.0  0.24950  0.57700  0.33610  1.0000 0.0974715798
H   H7        1.0  0.42300  0.75910  0.67250  1.0000 0.0974715798
H   H8        1.0  0.08660  0.75050  0.32750  1.0000 0.0974715798
H   H9        1.0  0.86120  0.68170  0.76630  1.0000 0.0866250003
H   H10       1.0  0.91540  0.09490  0.23370  1.0000 0.0866250003
H   H11       1.0  0.90510  0.13880  0.82050  1.0000 0.0866250003
H   H12       1.0  0.31830  0.08460  0.17950  1.0000 0.0866250003
C   C1        1.0  0.44990  0.93930  0.99420  1.0000 0.1555801318
C   C2        1.0  0.94510  0.45570  0.00580  1.0000 0.1555801318
C   C3        1.0  0.54430  0.55010  0.48940  1.0000 0.1555801318
C   C4        1.0  0.06070  0.05490  0.51060  1.0000 0.151411677
C   C5        1.0  0.28520  0.89880  0.83360  1.0000 0.0376822146
C   C6        1.0  0.06520  0.45160  0.16640  1.0000 0.0376822146
C   C7        1.0  0.54840  0.71480  0.61360  1.0000 0.0376822146
C   C8        1.0  0.10120  0.93480  0.38640  1.0000 0.0376822146
C   C9        1.0  0.19420  0.87480  0.72380  1.0000 -0.0258229377
C   C10       1.0  0.15100  0.47040  0.27620  1.0000 -0.0258229377
C   C11       1.0  0.52960  0.80580  0.68060  1.0000 -0.0258229377
C   C12       1.0  0.12520  0.84900  0.31940  1.0000 -0.0247122782
C   C13       1.0  0.97310  0.73860  0.78670  1.0000 0.151411677
C   C14       1.0  0.95190  0.18640  0.21330  1.0000 0.151411677
C   C15       1.0  0.81360  0.02690  0.76550  1.0000 0.151411677
C   C16       1.0  0.26140  0.04810  0.23450  1.0000 0.151411677
C   C17       1.0  0.20280  0.83000  0.91600  1.0000 0.2742470985
C   C18       1.0  0.91400  0.28680  0.08400  1.0000 0.2750916666
C   C19       1.0  0.71320  0.79720  0.62720  1.0000 0.2742470985
C   C20       1.0  0.17000  0.08600  0.37280  1.0000 0.2750916666
N   N1        1.0  0.03810  0.79610  0.70160  1.0000 -0.2802476996
N   N2        1.0  0.09450  0.33650  0.29840  1.0000 -0.2802476996
N   N3        1.0  0.66350  0.96190  0.75800  1.0000 -0.2802476996
N   N4        1.0  0.20390  0.90550  0.24200  1.0000 -0.2802476996
N   N5        1.0  0.04840  0.75280  0.89480  1.0000 -0.3814475948
N   N6        1.0  0.85800  0.15360  0.10520  1.0000 -0.3814475948
N   N7        1.0  0.84640  0.95160  0.70440  1.0000 -0.3814475948
N   N8        1.0  0.24720  0.14200  0.29560  1.0000 -0.3814475948
N   N9        1.0  0.44190  0.96780  0.88550  1.0000 -0.3635083699
N   N10       1.0  0.08230  0.55640  0.11450  1.0000 -0.3635083699
N   N11       1.0  0.44360  0.55810  0.52590  1.0000 -0.3635083699
N   N12       1.0  0.03220  0.91770  0.47410  1.0000 -0.3635083699
N   N13       1.0  0.31170  0.85990  0.01520  1.0000 -0.3814475948
N   N14       1.0  0.84470  0.29650  0.98480  1.0000 -0.3814475948
N   N15       1.0  0.70350  0.68830  0.54820  1.0000 -0.3814475948
N   N16       1.0  0.14010  0.15530  0.45180  1.0000 -0.3814475948
