# DDEC6 charges by PACMAN v1.1 (https://github.com/mtap-research/PACMAN-charge/)
data_2024[Ni][sql]2[ASR]4
_chemical_formula_sum              "Ni1 H16 C14 N2 O4"
_cell_length_a       6.061
_cell_length_b       7.009
_cell_length_c       10.677
_cell_angle_alpha    89.49
_cell_angle_beta     84.51
_cell_angle_gamma    87.4

_symmetry_space_group_name_H-M    "P 1"
_symmetry_Int_Tables_number       1

loop_
  _symmetry_equiv_pos_as_xyz
  'x, y, z'

loop_
  _atom_site_type_symbol
  _atom_site_label
  _atom_site_symmetry_multiplicity
  _atom_site_fract_x
  _atom_site_fract_y
  _atom_site_fract_z
  _atom_site_occupancy
  _atom_site_charge
Ni  Ni1       1.0  0.41840  0.42061  0.88375  1.0000 0.6526672453
H   H1        1.0  0.32426  0.43176  0.51437  1.0000 0.1264559537
H   H2        1.0  0.26636  0.43133  0.30181  1.0000 0.1116094117
H   H3        1.0  0.92729  0.37987  0.20648  1.0000 0.1175031489
H   H4        1.0  0.98563  0.37248  0.42040  1.0000 0.1116094117
H   H5        1.0  0.16097  0.78123  0.77347  1.0000 0.1116094117
H   H6        1.0  0.39364  0.76414  0.69192  1.0000 0.1175031489
H   H7        1.0  0.41669  0.07376  0.69050  1.0000 0.1175031489
H   H8        1.0  0.17481  0.09130  0.76155  1.0000 0.1175031489
H   H9        1.0  0.36044  0.76931  0.06770  1.0000 0.1116094117
H   H10       1.0  0.14048  0.76940  0.99843  1.0000 0.1175031489
H   H11       1.0  0.12852  0.08065  0.98804  1.0000 0.1175031489
H   H12       1.0  0.33696  0.08084  0.06702  1.0000 0.1116094117
H   H13       1.0  0.73143  0.75966  0.79552  1.0000 0.1175031489
H   H14       1.0  0.72225  0.74879  0.94428  1.0000 0.1116094117
H   H15       1.0  0.70986  0.05956  0.95624  1.0000 0.1116094117
H   H16       1.0  0.73938  0.06968  0.80727  1.0000 0.1175031489
C   C1        1.0  0.69890  0.40290  0.62650  1.0000 0.5372604341
C   C2        1.0  0.65980  0.40480  0.48850  1.0000 -0.0205140752
C   C3        1.0  0.44600  0.42150  0.45290  1.0000 -0.1134559936
C   C4        1.0  0.41170  0.42300  0.32580  1.0000 -0.1134559936
C   C5        1.0  0.59230  0.41200  0.23340  1.0000 -0.0205140752
C   C6        1.0  0.80600  0.39120  0.26820  1.0000 -0.1184181325
C   C7        1.0  0.84070  0.38710  0.39630  1.0000 -0.1184181325
C   C8        1.0  0.54390  0.41280  0.09830  1.0000 0.5060460776
C   C9        1.0  0.31600  0.81690  0.76950  1.0000 -0.1184181325
C   C10       1.0  0.32480  0.03510  0.76620  1.0000 -0.1184181325
C   C11       1.0  0.29180  0.81450  0.99280  1.0000 -0.1184181325
C   C12       1.0  0.28290  0.03360  0.99000  1.0000 -0.1184181325
C   C13       1.0  0.64750  0.80320  0.87390  1.0000 -0.1184181325
C   C14       1.0  0.64620  0.02160  0.87970  1.0000 -0.1184181325
N   N1        1.0  0.41940  0.73350  0.87960  1.0000 -0.0782170049
N   N2        1.0  0.41800  0.10950  0.87960  1.0000 -0.0782170049
O   O1        1.0  0.52450  0.42100  0.70240  1.0000 -0.5526366323
O   O2        1.0  0.89180  0.38190  0.65370  1.0000 -0.5526366323
O   O3        1.0  0.34360  0.42080  0.07530  1.0000 -0.5310380846
O   O4        1.0  0.69880  0.40720  0.01010  1.0000 -0.5356902271
