# DDEC6 charges by PACMAN v1.1 (https://github.com/mtap-research/PACMAN-charge/)
data_2024[Tb][nan]3[ASR]1
_chemical_formula_sum              "Tb4 H48 C84 N4 O24"
_cell_length_a       9.2557
_cell_length_b       12.8698
_cell_length_c       24.7216
_cell_angle_alpha    90
_cell_angle_beta     106.997
_cell_angle_gamma    90

_symmetry_space_group_name_H-M    "P 1"
_symmetry_Int_Tables_number       1

loop_
  _symmetry_equiv_pos_as_xyz
  'x, y, z'

loop_
  _atom_site_type_symbol
  _atom_site_label
  _atom_site_symmetry_multiplicity
  _atom_site_fract_x
  _atom_site_fract_y
  _atom_site_fract_z
  _atom_site_occupancy
  _atom_site_charge
Tb  Tb1       1.0  0.27786  0.98310  0.52089  1.0000 2.071285114
Tb  Tb2       1.0  0.72214  0.48310  0.97911  1.0000 2.0750006291
Tb  Tb3       1.0  0.72214  0.01690  0.47911  1.0000 2.071285114
Tb  Tb4       1.0  0.27786  0.51690  0.02089  1.0000 2.071285114
H   H1        1.0  0.18422  0.38523  0.68252  1.0000 0.1223211275
H   H2        1.0  0.81578  0.88523  0.81748  1.0000 0.1223211275
H   H3        1.0  0.81578  0.61477  0.31748  1.0000 0.1223211275
H   H4        1.0  0.18422  0.11477  0.18252  1.0000 0.1223211275
H   H5        1.0  0.20815  0.24014  0.62994  1.0000 0.1223211275
H   H6        1.0  0.79185  0.74014  0.87006  1.0000 0.1223211275
H   H7        1.0  0.79185  0.75986  0.37006  1.0000 0.1223211275
H   H8        1.0  0.20815  0.25986  0.12994  1.0000 0.1223211275
H   H9        1.0  0.78839  0.75470  0.52322  1.0000 0.1223211275
H   H10       1.0  0.21161  0.25470  0.97678  1.0000 0.1223211275
H   H11       1.0  0.21161  0.24530  0.47678  1.0000 0.1223211275
H   H12       1.0  0.78839  0.74530  0.02322  1.0000 0.1223211275
H   H13       1.0  0.78249  0.45208  0.56689  1.0000 0.1223211275
H   H14       1.0  0.21751  0.95208  0.93311  1.0000 0.1223211275
H   H15       1.0  0.21751  0.54792  0.43311  1.0000 0.1223211275
H   H16       1.0  0.78249  0.04792  0.06689  1.0000 0.1223211275
H   H17       1.0  0.75844  0.61542  0.69432  1.0000 0.1223211275
H   H18       1.0  0.24156  0.11542  0.80568  1.0000 0.1223211275
H   H19       1.0  0.24156  0.38458  0.30568  1.0000 0.1223211275
H   H20       1.0  0.75844  0.88458  0.19432  1.0000 0.1223211275
H   H21       1.0  0.80688  0.30521  0.51546  1.0000 0.1286181761
H   H22       1.0  0.19312  0.80521  0.98454  1.0000 0.1286181761
H   H23       1.0  0.19312  0.69479  0.48454  1.0000 0.1286181761
H   H24       1.0  0.80688  0.19479  0.01546  1.0000 0.1286181761
H   H25       1.0  0.19603  0.67043  0.82707  1.0000 0.1223211275
H   H26       1.0  0.80397  0.17043  0.67293  1.0000 0.1223211275
H   H27       1.0  0.80397  0.32957  0.17293  1.0000 0.1223211275
H   H28       1.0  0.19603  0.82957  0.32707  1.0000 0.1223211275
H   H29       1.0  0.11623  0.66720  0.72853  1.0000 0.1286181761
H   H30       1.0  0.88377  0.16720  0.77147  1.0000 0.1286181761
H   H31       1.0  0.88377  0.33280  0.27147  1.0000 0.1286181761
H   H32       1.0  0.11623  0.83280  0.22853  1.0000 0.1286181761
H   H33       1.0  0.94792  0.37699  0.73212  1.0000 0.1223211275
H   H34       1.0  0.05208  0.87699  0.76788  1.0000 0.1223211275
H   H35       1.0  0.05208  0.62301  0.26788  1.0000 0.1223211275
H   H36       1.0  0.94792  0.12301  0.23212  1.0000 0.1223211275
H   H37       1.0  0.58389  0.74133  0.64741  1.0000 0.1223211275
H   H38       1.0  0.41611  0.24133  0.85259  1.0000 0.1223211275
H   H39       1.0  0.41611  0.25867  0.35259  1.0000 0.1223211275
H   H40       1.0  0.58389  0.75867  0.14741  1.0000 0.1223211275
H   H41       1.0  0.02917  0.38069  0.83098  1.0000 0.1223211275
H   H42       1.0  0.97083  0.88069  0.66902  1.0000 0.1223211275
H   H43       1.0  0.97083  0.61931  0.16902  1.0000 0.1223211275
H   H44       1.0  0.02917  0.11931  0.33098  1.0000 0.1223211275
H   H45       1.0  0.95979  0.62820  0.56951  1.0000 0.1286181761
H   H46       1.0  0.04021  0.12820  0.93049  1.0000 0.1286181761
H   H47       1.0  0.04021  0.37180  0.43049  1.0000 0.1286181761
H   H48       1.0  0.95979  0.87180  0.06951  1.0000 0.1286181761
C   C1        1.0  0.01080  0.25890  0.56660  1.0000 -0.061023127
C   C2        1.0  0.98920  0.75890  0.93340  1.0000 -0.061023127
C   C3        1.0  0.98920  0.74110  0.43340  1.0000 -0.061023127
C   C4        1.0  0.01080  0.24110  0.06660  1.0000 -0.061023127
C   C5        1.0  0.54830  0.83410  0.54850  1.0000 0.6258722994
C   C6        1.0  0.45170  0.33410  0.95150  1.0000 0.6258722994
C   C7        1.0  0.45170  0.16590  0.45150  1.0000 0.6258722994
C   C8        1.0  0.54830  0.66590  0.04850  1.0000 0.6258722994
C   C9        1.0  0.98110  0.43450  0.62930  1.0000 0.18962957
C   C10       1.0  0.01890  0.93450  0.87070  1.0000 0.18962957
C   C11       1.0  0.01890  0.56550  0.37070  1.0000 0.18962957
C   C12       1.0  0.98110  0.06550  0.12930  1.0000 0.18962957
C   C13       1.0  0.66500  0.75780  0.57970  1.0000 -0.039449982
C   C14       1.0  0.33500  0.25780  0.92030  1.0000 -0.039449982
C   C15       1.0  0.33500  0.24220  0.42030  1.0000 -0.039449982
C   C16       1.0  0.66500  0.74220  0.07970  1.0000 -0.039449982
C   C17       1.0  0.10820  0.36970  0.64830  1.0000 -0.1987827844
C   C18       1.0  0.89180  0.86970  0.85170  1.0000 -0.1987827844
C   C19       1.0  0.89180  0.63030  0.35170  1.0000 -0.1987827844
C   C20       1.0  0.10820  0.13030  0.14830  1.0000 -0.1987827844
C   C21       1.0  0.12190  0.28360  0.61710  1.0000 -0.0814957549
C   C22       1.0  0.87810  0.78360  0.88290  1.0000 -0.0814957549
C   C23       1.0  0.87810  0.71640  0.38290  1.0000 -0.0814957549
C   C24       1.0  0.12190  0.21640  0.11710  1.0000 -0.0814957549
C   C25       1.0  0.02864  0.16620  0.53324  1.0000 0.6511688981
C   C26       1.0  0.97136  0.66620  0.96676  1.0000 0.6511688981
C   C27       1.0  0.97136  0.83380  0.46676  1.0000 0.6511688981
C   C28       1.0  0.02864  0.33380  0.03324  1.0000 0.6511688981
C   C29       1.0  0.87100  0.60580  0.63490  1.0000 0.1748173687
C   C30       1.0  0.12900  0.10580  0.86510  1.0000 0.1748173687
C   C31       1.0  0.12900  0.39420  0.36510  1.0000 0.1776867934
C   C32       1.0  0.87100  0.89420  0.13490  1.0000 0.1776867934
C   C33       1.0  0.02290  0.52270  0.72120  1.0000 0.1776867934
C   C34       1.0  0.97710  0.02270  0.77880  1.0000 0.1776867934
C   C35       1.0  0.97710  0.47730  0.27880  1.0000 0.1776867934
C   C36       1.0  0.02290  0.97730  0.22120  1.0000 0.1776867934
C   C37       1.0  0.78020  0.72510  0.55740  1.0000 -0.0704638713
C   C38       1.0  0.21980  0.22510  0.94260  1.0000 -0.0704638713
C   C39       1.0  0.21980  0.27490  0.44260  1.0000 -0.0704638713
C   C40       1.0  0.78020  0.77490  0.05740  1.0000 -0.0704638713
C   C41       1.0  0.86940  0.40930  0.57970  1.0000 -0.1987827844
C   C42       1.0  0.13060  0.90930  0.92030  1.0000 -0.1987827844
C   C43       1.0  0.13060  0.59070  0.42030  1.0000 -0.1987827844
C   C44       1.0  0.86940  0.09070  0.07970  1.0000 -0.1987827844
C   C45       1.0  0.11770  0.52650  0.83840  1.0000 -0.027706606
C   C46       1.0  0.88230  0.02650  0.66160  1.0000 -0.027706606
C   C47       1.0  0.88230  0.47350  0.16160  1.0000 -0.027706606
C   C48       1.0  0.11770  0.97350  0.33840  1.0000 -0.027706606
C   C49       1.0  0.76230  0.64200  0.65890  1.0000 -0.1987827844
C   C50       1.0  0.23770  0.14200  0.84110  1.0000 -0.1987827844
C   C51       1.0  0.23770  0.35800  0.34110  1.0000 -0.1987827844
C   C52       1.0  0.76230  0.85800  0.15890  1.0000 -0.1916940872
C   C53       1.0  0.88430  0.32200  0.54900  1.0000 -0.0704638713
C   C54       1.0  0.11570  0.82200  0.95100  1.0000 -0.0704638713
C   C55       1.0  0.11570  0.67800  0.45100  1.0000 -0.0704638713
C   C56       1.0  0.88430  0.17800  0.04900  1.0000 -0.0704638713
C   C57       1.0  0.14490  0.61110  0.80780  1.0000 -0.0861803886
C   C58       1.0  0.85510  0.11110  0.69220  1.0000 -0.0861803886
C   C59       1.0  0.85510  0.38890  0.19220  1.0000 -0.0861803886
C   C60       1.0  0.14490  0.88890  0.30780  1.0000 -0.0814957549
C   C61       1.0  0.09760  0.60930  0.74940  1.0000 -0.1916940872
C   C62       1.0  0.90240  0.10930  0.75060  1.0000 -0.1916940872
C   C63       1.0  0.90240  0.39070  0.25060  1.0000 -0.1916940872
C   C64       1.0  0.09760  0.89070  0.24940  1.0000 -0.1916940872
C   C65       1.0  0.99760  0.43670  0.75150  1.0000 -0.1987827844
C   C66       1.0  0.00240  0.93670  0.74850  1.0000 -0.1987827844
C   C67       1.0  0.00240  0.56330  0.24850  1.0000 -0.1987827844
C   C68       1.0  0.99760  0.06330  0.25150  1.0000 -0.1987827844
C   C69       1.0  0.16670  0.52820  0.90130  1.0000 0.561375961
C   C70       1.0  0.83330  0.02820  0.59870  1.0000 0.561375961
C   C71       1.0  0.83330  0.47180  0.09870  1.0000 0.561375961
C   C72       1.0  0.16670  0.97180  0.40130  1.0000 0.561375961
C   C73       1.0  0.65890  0.71740  0.63110  1.0000 -0.0861803886
C   C74       1.0  0.34110  0.21740  0.86890  1.0000 -0.0861803886
C   C75       1.0  0.34110  0.28260  0.36890  1.0000 -0.0861803886
C   C76       1.0  0.65890  0.78260  0.13110  1.0000 -0.0861803886
C   C77       1.0  0.04570  0.43920  0.81010  1.0000 -0.0814957549
C   C78       1.0  0.95430  0.93920  0.68990  1.0000 -0.0814957549
C   C79       1.0  0.95430  0.56080  0.18990  1.0000 -0.0814957549
C   C80       1.0  0.04570  0.06080  0.31010  1.0000 -0.0814957549
C   C81       1.0  0.88190  0.64990  0.58490  1.0000 -0.1916940872
C   C82       1.0  0.11810  0.14990  0.91510  1.0000 -0.1916940872
C   C83       1.0  0.11810  0.35010  0.41510  1.0000 -0.1916940872
C   C84       1.0  0.88190  0.85010  0.08490  1.0000 -0.1916940872
N   N1        1.0  0.96888  0.52400  0.66098  1.0000 -0.1739230153
N   N2        1.0  0.03112  0.02400  0.83902  1.0000 -0.1739230153
N   N3        1.0  0.03112  0.47600  0.33902  1.0000 -0.1739230153
N   N4        1.0  0.96888  0.97600  0.16098  1.0000 -0.1739230153
O   O1        1.0  0.15843  0.12560  0.54463  1.0000 -0.7026416954
O   O2        1.0  0.84157  0.62560  0.95537  1.0000 -0.7026416954
O   O3        1.0  0.84157  0.87440  0.45537  1.0000 -0.7026416954
O   O4        1.0  0.15843  0.37440  0.04463  1.0000 -0.7026416954
O   O5        1.0  0.27124  0.58860  0.92744  1.0000 -0.6233687249
O   O6        1.0  0.72876  0.08860  0.57256  1.0000 -0.6233687249
O   O7        1.0  0.72876  0.41140  0.07256  1.0000 -0.6233687249
O   O8        1.0  0.27124  0.91140  0.42744  1.0000 -0.6233687249
O   O9        1.0  0.57897  0.89840  0.51527  1.0000 -0.7068005052
O   O10       1.0  0.42103  0.39840  0.98473  1.0000 -0.7068005052
O   O11       1.0  0.42103  0.10160  0.48473  1.0000 -0.7068005052
O   O12       1.0  0.57897  0.60160  0.01527  1.0000 -0.7068005052
O   O13       1.0  0.91575  0.13460  0.49475  1.0000 -0.6725593355
O   O14       1.0  0.08425  0.63460  0.00525  1.0000 -0.6725593355
O   O15       1.0  0.08425  0.86540  0.50525  1.0000 -0.6725593355
O   O16       1.0  0.91575  0.36540  0.99475  1.0000 -0.6725593355
O   O17       1.0  0.42064  0.83090  0.55704  1.0000 -0.6559304443
O   O18       1.0  0.57936  0.33090  0.94296  1.0000 -0.6559304443
O   O19       1.0  0.57936  0.16910  0.44296  1.0000 -0.6559304443
O   O20       1.0  0.42064  0.66910  0.05704  1.0000 -0.6559304443
O   O21       1.0  0.10313  0.46810  0.92783  1.0000 -0.6256848272
O   O22       1.0  0.89687  0.96810  0.57217  1.0000 -0.6256848272
O   O23       1.0  0.89687  0.53190  0.07217  1.0000 -0.6256848272
O   O24       1.0  0.10313  0.03190  0.42783  1.0000 -0.6256848272
