# DDEC6 charges by PACMAN v1.1 (https://github.com/mtap-research/PACMAN-charge/)
data_2024[Mn][nan]3[ASR]2
_chemical_formula_sum              "Mn4 H24 C52 N4 O16"
_cell_length_a       14.4881
_cell_length_b       14.4881
_cell_length_c       8.7224
_cell_angle_alpha    75.0509
_cell_angle_beta     104.949
_cell_angle_gamma    117.263

_symmetry_space_group_name_H-M    "P 1"
_symmetry_Int_Tables_number       1

loop_
  _symmetry_equiv_pos_as_xyz
  'x, y, z'

loop_
  _atom_site_type_symbol
  _atom_site_label
  _atom_site_symmetry_multiplicity
  _atom_site_fract_x
  _atom_site_fract_y
  _atom_site_fract_z
  _atom_site_occupancy
  _atom_site_charge
Mn  Mn1       1.0  0.77341  0.22659  0.74919  1.0000 0.9882790605
Mn  Mn2       1.0  0.22659  0.77341  0.25081  1.0000 0.9882790605
Mn  Mn3       1.0  0.70524  0.29476  0.16817  1.0000 1.0553576509
Mn  Mn4       1.0  0.29476  0.70524  0.83183  1.0000 1.0553576509
H   H1        1.0  0.49945  0.99347  0.25830  1.0000 0.1389037678
H   H2        1.0  0.99347  0.49945  0.74170  1.0000 0.1389037678
H   H3        1.0  0.50055  0.00653  0.74170  1.0000 0.1389037678
H   H4        1.0  0.00653  0.50055  0.25830  1.0000 0.1389037678
H   H5        1.0  0.58946  0.77886  0.21642  1.0000 0.1217326634
H   H6        1.0  0.77886  0.58946  0.78358  1.0000 0.1217326634
H   H7        1.0  0.41054  0.22114  0.78358  1.0000 0.1217326634
H   H8        1.0  0.22114  0.41054  0.21642  1.0000 0.1217326634
H   H9        1.0  0.74102  0.84946  0.39547  1.0000 0.1089896172
H   H10       1.0  0.84946  0.74102  0.60453  1.0000 0.1089896172
H   H11       1.0  0.25898  0.15054  0.60453  1.0000 0.1089896172
H   H12       1.0  0.15054  0.25898  0.39547  1.0000 0.1089896172
H   H13       1.0  0.83294  0.90048  0.68845  1.0000 0.1217326634
H   H14       1.0  0.90048  0.83294  0.31155  1.0000 0.1217326634
H   H15       1.0  0.16706  0.09952  0.31155  1.0000 0.1217326634
H   H16       1.0  0.09952  0.16706  0.68845  1.0000 0.1217326634
H   H17       1.0  0.17313  0.09069  0.87603  1.0000 0.1217326634
H   H18       1.0  0.09069  0.17313  0.12397  1.0000 0.1217326634
H   H19       1.0  0.82687  0.90931  0.12397  1.0000 0.1217326634
H   H20       1.0  0.90931  0.82687  0.87603  1.0000 0.1217326634
H   H21       1.0  0.25700  0.99954  0.06490  1.0000 0.1217326634
H   H22       1.0  0.99954  0.25700  0.93510  1.0000 0.1217326634
H   H23       1.0  0.74300  0.00046  0.93510  1.0000 0.1217326634
H   H24       1.0  0.00046  0.74300  0.06490  1.0000 0.1217326634
C   C1        1.0  0.65695  0.10143  0.46160  1.0000 0.5904518376
C   C2        1.0  0.10143  0.65695  0.53840  1.0000 0.5904518376
C   C3        1.0  0.34305  0.89857  0.53840  1.0000 0.5904518376
C   C4        1.0  0.89857  0.34305  0.46160  1.0000 0.5904518376
C   C5        1.0  0.64152  0.01070  0.38860  1.0000 -0.0383577291
C   C6        1.0  0.01070  0.64152  0.61140  1.0000 -0.0383577291
C   C7        1.0  0.35848  0.98930  0.61140  1.0000 -0.0383577291
C   C8        1.0  0.98930  0.35848  0.38860  1.0000 -0.0383577291
C   C9        1.0  0.54895  0.96549  0.28430  1.0000 -0.0980602866
C   C10       1.0  0.96549  0.54895  0.71570  1.0000 -0.0980602866
C   C11       1.0  0.45105  0.03451  0.71570  1.0000 -0.0980602866
C   C12       1.0  0.03451  0.45105  0.28430  1.0000 -0.0980602866
C   C13       1.0  0.52879  0.87945  0.21810  1.0000 -0.0156803652
C   C14       1.0  0.87945  0.52879  0.78190  1.0000 -0.0156803652
C   C15       1.0  0.47121  0.12055  0.78190  1.0000 -0.0156803652
C   C16       1.0  0.12055  0.47121  0.21810  1.0000 -0.0156803652
C   C17       1.0  0.60198  0.83662  0.25980  1.0000 -0.1098648524
C   C18       1.0  0.83662  0.60198  0.74020  1.0000 -0.1098648524
C   C19       1.0  0.39802  0.16338  0.74020  1.0000 -0.1098648524
C   C20       1.0  0.16338  0.39802  0.25980  1.0000 -0.1098648524
C   C21       1.0  0.69350  0.88000  0.36580  1.0000 -0.1559520764
C   C22       1.0  0.88000  0.69350  0.63420  1.0000 -0.1559520764
C   C23       1.0  0.30650  0.12000  0.63420  1.0000 -0.1559520764
C   C24       1.0  0.12000  0.30650  0.36580  1.0000 -0.1559520764
C   C25       1.0  0.71608  0.96800  0.42910  1.0000 0.0203398625
C   C26       1.0  0.96800  0.71608  0.57090  1.0000 0.0203398625
C   C27       1.0  0.28392  0.03200  0.57090  1.0000 0.0203398625
C   C28       1.0  0.03200  0.28392  0.42910  1.0000 0.0203398625
C   C29       1.0  0.42822  0.83312  0.10340  1.0000 0.5904518376
C   C30       1.0  0.83312  0.42822  0.89660  1.0000 0.5904518376
C   C31       1.0  0.57178  0.16688  0.89660  1.0000 0.5904518376
C   C32       1.0  0.16688  0.57178  0.10340  1.0000 0.5904518376
C   C33       1.0  0.82411  0.02265  0.51790  1.0000 0.2320141355
C   C34       1.0  0.02265  0.82411  0.48210  1.0000 0.2320141355
C   C35       1.0  0.17589  0.97735  0.48210  1.0000 0.2320141355
C   C36       1.0  0.97735  0.17589  0.51790  1.0000 0.2320141355
C   C37       1.0  0.87126  0.97040  0.64690  1.0000 -0.248745664
C   C38       1.0  0.97040  0.87126  0.35310  1.0000 -0.248745664
C   C39       1.0  0.12874  0.02960  0.35310  1.0000 -0.248745664
C   C40       1.0  0.02960  0.12874  0.64690  1.0000 -0.248745664
C   C41       1.0  0.97633  0.02367  0.71340  1.0000 0.1089896172
C   C42       1.0  0.02367  0.97633  0.28660  1.0000 0.1089896172
C   C43       1.0  0.03121  0.96879  0.84610  1.0000 0.0992783454
C   C44       1.0  0.96879  0.03121  0.15390  1.0000 0.0992783454
C   C45       1.0  0.13601  0.01913  0.91010  1.0000 -0.2022209344
C   C46       1.0  0.01913  0.13601  0.08990  1.0000 -0.2022209344
C   C47       1.0  0.86399  0.98087  0.08990  1.0000 -0.2022209344
C   C48       1.0  0.98087  0.86399  0.91010  1.0000 -0.2022209344
C   C49       1.0  0.18622  0.96358  0.02480  1.0000 0.0992783454
C   C50       1.0  0.96358  0.18622  0.97520  1.0000 0.0992783454
C   C51       1.0  0.81378  0.03642  0.97520  1.0000 0.0992783454
C   C52       1.0  0.03642  0.81378  0.02480  1.0000 0.0992783454
N   N1        1.0  0.13829  0.86171  0.08010  1.0000 -0.2121076276
N   N2        1.0  0.86171  0.13829  0.91990  1.0000 -0.2121076276
N   N3        1.0  0.87659  0.12341  0.45520  1.0000 -0.2986744782
N   N4        1.0  0.12341  0.87659  0.54480  1.0000 -0.2986744782
O   O1        1.0  0.69561  0.10011  0.60798  1.0000 -0.5577073758
O   O2        1.0  0.10011  0.69561  0.39202  1.0000 -0.5577073758
O   O3        1.0  0.30439  0.89989  0.39202  1.0000 -0.5577073758
O   O4        1.0  0.89989  0.30439  0.60798  1.0000 -0.5577073758
O   O5        1.0  0.62778  0.17072  0.37398  1.0000 -0.5724949082
O   O6        1.0  0.17072  0.62778  0.62602  1.0000 -0.5724949082
O   O7        1.0  0.37222  0.82928  0.62602  1.0000 -0.5724949082
O   O8        1.0  0.82928  0.37222  0.37398  1.0000 -0.5724949082
O   O9        1.0  0.35220  0.85090  0.10927  1.0000 -0.5811297735
O   O10       1.0  0.85090  0.35220  0.89073  1.0000 -0.5811297735
O   O11       1.0  0.64780  0.14910  0.89073  1.0000 -0.5811297735
O   O12       1.0  0.14910  0.64780  0.10927  1.0000 -0.5811297735
O   O13       1.0  0.42733  0.78125  0.00717  1.0000 -0.5577073758
O   O14       1.0  0.78125  0.42733  0.99283  1.0000 -0.5577073758
O   O15       1.0  0.57267  0.21875  0.99283  1.0000 -0.5577073758
O   O16       1.0  0.21875  0.57267  0.00717  1.0000 -0.5577073758
