# DDEC6 charges by PACMAN v1.1 (https://github.com/mtap-research/PACMAN-charge/)
data_1996[Zn][dia]3[FSR]1
_chemical_formula_sum              "Zn4 H160 C96 N16 O32"
_cell_length_a       15.765
_cell_length_b       15.765
_cell_length_c       15.913
_cell_angle_alpha    59.7806
_cell_angle_beta     120.219
_cell_angle_gamma    104.735

_symmetry_space_group_name_H-M    "P 1"
_symmetry_Int_Tables_number       1

loop_
  _symmetry_equiv_pos_as_xyz
  'x, y, z'

loop_
  _atom_site_type_symbol
  _atom_site_label
  _atom_site_symmetry_multiplicity
  _atom_site_fract_x
  _atom_site_fract_y
  _atom_site_fract_z
  _atom_site_occupancy
  _atom_site_charge
Zn  Zn1       1.0  0.24930  0.75150  0.37390  1.0000 0.8375658122
Zn  Zn2       1.0  0.75150  0.24930  0.12610  1.0000 0.8375658122
Zn  Zn3       1.0  0.75070  0.24850  0.62610  1.0000 0.8375658122
Zn  Zn4       1.0  0.24850  0.75070  0.87390  1.0000 0.8375658122
H   H1        1.0  0.49980  0.60620  0.42940  1.0000 0.1219420832
H   H2        1.0  0.60620  0.49980  0.07060  1.0000 0.1219420832
H   H3        1.0  0.40700  0.55680  0.36760  1.0000 0.1219420832
H   H4        1.0  0.55680  0.40700  0.13240  1.0000 0.1219420832
H   H5        1.0  0.39810  0.69230  0.20060  1.0000 0.1219420832
H   H6        1.0  0.69230  0.39810  0.29940  1.0000 0.1219420832
H   H7        1.0  0.49860  0.72980  0.26770  1.0000 0.0977202392
H   H8        1.0  0.72980  0.49860  0.23230  1.0000 0.0977202392
H   H9        1.0  0.39880  0.53980  0.18480  1.0000 0.1295736156
H   H10       1.0  0.53980  0.39880  0.31520  1.0000 0.1295736156
H   H11       1.0  0.44480  0.48060  0.31090  1.0000 0.1219420832
H   H12       1.0  0.48060  0.44480  0.18910  1.0000 0.1219420832
H   H13       1.0  0.57510  0.72550  0.17140  1.0000 0.1076952039
H   H14       1.0  0.72550  0.57510  0.32860  1.0000 0.1076952039
H   H15       1.0  0.47070  0.69950  0.09880  1.0000 0.1381375947
H   H16       1.0  0.69950  0.47070  0.40120  1.0000 0.1381375947
H   H17       1.0  0.60490  0.53030  0.42130  1.0000 0.1219420832
H   H18       1.0  0.53030  0.60490  0.07870  1.0000 0.1219420832
H   H19       1.0  0.64600  0.63340  0.36750  1.0000 0.1076952039
H   H20       1.0  0.63340  0.64600  0.13250  1.0000 0.1076952039
H   H21       1.0  0.09420  0.94140  0.01810  1.0000 0.1219420832
H   H22       1.0  0.94140  0.09420  0.48190  1.0000 0.1219420832
H   H23       1.0  0.00160  0.89200  0.03730  1.0000 0.1295736156
H   H24       1.0  0.89200  0.00160  0.46270  1.0000 0.1295736156
H   H25       1.0  0.10180  0.81120  0.99190  1.0000 0.1219420832
H   H26       1.0  0.81120  0.10180  0.50810  1.0000 0.1219420832
H   H27       1.0  0.00320  0.77100  0.00010  1.0000 0.0977202392
H   H28       1.0  0.77100  0.00320  0.49990  1.0000 0.0977202392
H   H29       1.0  0.09980  0.95760  0.82370  1.0000 0.1295736156
H   H30       1.0  0.95760  0.09980  0.67630  1.0000 0.1295736156
H   H31       1.0  0.05610  0.01710  0.84690  1.0000 0.1219420832
H   H32       1.0  0.01710  0.05610  0.65310  1.0000 0.1219420832
H   H33       1.0  0.92580  0.77320  0.82410  1.0000 0.1076952039
H   H34       1.0  0.77320  0.92580  0.67590  1.0000 0.1076952039
H   H35       1.0  0.03010  0.80110  0.83010  1.0000 0.1295736156
H   H36       1.0  0.80110  0.03010  0.66990  1.0000 0.1295736156
H   H37       1.0  0.89360  0.96920  0.84670  1.0000 0.1219420832
H   H38       1.0  0.96920  0.89360  0.65330  1.0000 0.1219420832
H   H39       1.0  0.85060  0.86640  0.85400  1.0000 0.1076952039
H   H40       1.0  0.86640  0.85060  0.64600  1.0000 0.1076952039
H   H41       1.0  0.49800  0.89220  0.57190  1.0000 0.1295736156
H   H42       1.0  0.89220  0.49800  0.92810  1.0000 0.1295736156
H   H43       1.0  0.40560  0.94080  0.54300  1.0000 0.1295736156
H   H44       1.0  0.94080  0.40560  0.95700  1.0000 0.1219420832
H   H45       1.0  0.49920  0.77200  0.73140  1.0000 0.0977202392
H   H46       1.0  0.77200  0.49920  0.76860  1.0000 0.0977202392
H   H47       1.0  0.40000  0.81020  0.70060  1.0000 0.1219420832
H   H48       1.0  0.81020  0.40000  0.79940  1.0000 0.1219420832
H   H49       1.0  0.45100  0.02040  0.63600  1.0000 0.1219420832
H   H50       1.0  0.02040  0.45100  0.86400  1.0000 0.1219420832
H   H51       1.0  0.39830  0.96230  0.71070  1.0000 0.1295736156
H   H52       1.0  0.96230  0.39830  0.78930  1.0000 0.1295736156
H   H53       1.0  0.48040  0.05140  0.79610  1.0000 0.1219420832
H   H54       1.0  0.05140  0.48040  0.70390  1.0000 0.1219420832
H   H55       1.0  0.53940  0.10340  0.72760  1.0000 0.1295736156
H   H56       1.0  0.10340  0.53940  0.77240  1.0000 0.1295736156
H   H57       1.0  0.64680  0.86700  0.77670  1.0000 0.1076952039
H   H58       1.0  0.86700  0.64680  0.72330  1.0000 0.1076952039
H   H59       1.0  0.60220  0.97060  0.68360  1.0000 0.1219420832
H   H60       1.0  0.97060  0.60220  0.81640  1.0000 0.1219420832
H   H61       1.0  0.69990  0.02870  0.80050  1.0000 0.1295736156
H   H62       1.0  0.02870  0.69990  0.69950  1.0000 0.1295736156
H   H63       1.0  0.72390  0.92290  0.89790  1.0000 0.1076952039
H   H64       1.0  0.92290  0.72390  0.60210  1.0000 0.1076952039
H   H65       1.0  0.47000  0.79880  0.87150  1.0000 0.1295736156
H   H66       1.0  0.79880  0.47000  0.62850  1.0000 0.1295736156
H   H67       1.0  0.57620  0.77420  0.90500  1.0000 0.1076952039
H   H68       1.0  0.77420  0.57620  0.59500  1.0000 0.1076952039
H   H69       1.0  0.63010  0.85030  0.00330  1.0000 0.1076952039
H   H70       1.0  0.85030  0.63010  0.49670  1.0000 0.1076952039
H   H71       1.0  0.52590  0.89350  0.94930  1.0000 0.1219420832
H   H72       1.0  0.89350  0.52590  0.55070  1.0000 0.1219420832
H   H73       1.0  0.73020  0.00040  0.99800  1.0000 0.0977202392
H   H74       1.0  0.00040  0.73020  0.50200  1.0000 0.0977202392
H   H75       1.0  0.69250  0.10030  0.89270  1.0000 0.1219420832
H   H76       1.0  0.10030  0.69250  0.60730  1.0000 0.1219420832
H   H77       1.0  0.55900  0.09320  0.92410  1.0000 0.1295736156
H   H78       1.0  0.09320  0.55900  0.57590  1.0000 0.1295736156
H   H79       1.0  0.60680  0.99980  0.03480  1.0000 0.1295736156
H   H80       1.0  0.99980  0.60680  0.46520  1.0000 0.1295736156
H   H81       1.0  0.50020  0.39380  0.57060  1.0000 0.1219420832
H   H82       1.0  0.39380  0.50020  0.92940  1.0000 0.1219420832
H   H83       1.0  0.59300  0.44320  0.63240  1.0000 0.1219420832
H   H84       1.0  0.44320  0.59300  0.86760  1.0000 0.1219420832
H   H85       1.0  0.60190  0.30770  0.79940  1.0000 0.1219420832
H   H86       1.0  0.30770  0.60190  0.70060  1.0000 0.1219420832
H   H87       1.0  0.50140  0.27020  0.73230  1.0000 0.0977202392
H   H88       1.0  0.27020  0.50140  0.76770  1.0000 0.0977202392
H   H89       1.0  0.60120  0.46020  0.81520  1.0000 0.1295736156
H   H90       1.0  0.46020  0.60120  0.68480  1.0000 0.1295736156
H   H91       1.0  0.55520  0.51940  0.68910  1.0000 0.1219420832
H   H92       1.0  0.51940  0.55520  0.81090  1.0000 0.1219420832
H   H93       1.0  0.42490  0.27450  0.82860  1.0000 0.1076952039
H   H94       1.0  0.27450  0.42490  0.67140  1.0000 0.1076952039
H   H95       1.0  0.52930  0.30050  0.90120  1.0000 0.1381375947
H   H96       1.0  0.30050  0.52930  0.59880  1.0000 0.1381375947
H   H97       1.0  0.39510  0.46970  0.57870  1.0000 0.1219420832
H   H98       1.0  0.46970  0.39510  0.92130  1.0000 0.1219420832
H   H99       1.0  0.35400  0.36660  0.63250  1.0000 0.1076952039
H   H100      1.0  0.36660  0.35400  0.86750  1.0000 0.1076952039
H   H101      1.0  0.90580  0.05860  0.98190  1.0000 0.1219420832
H   H102      1.0  0.05860  0.90580  0.51810  1.0000 0.1219420832
H   H103      1.0  0.99840  0.10800  0.96270  1.0000 0.1295736156
H   H104      1.0  0.10800  0.99840  0.53730  1.0000 0.1295736156
H   H105      1.0  0.89820  0.18880  0.00810  1.0000 0.1219420832
H   H106      1.0  0.18880  0.89820  0.49190  1.0000 0.1219420832
H   H107      1.0  0.99680  0.22900  0.99990  1.0000 0.0977202392
H   H108      1.0  0.22900  0.99680  0.50010  1.0000 0.0977202392
H   H109      1.0  0.90020  0.04240  0.17630  1.0000 0.1295736156
H   H110      1.0  0.04240  0.90020  0.32370  1.0000 0.1295736156
H   H111      1.0  0.94390  0.98290  0.15310  1.0000 0.1219420832
H   H112      1.0  0.98290  0.94390  0.34690  1.0000 0.1219420832
H   H113      1.0  0.07420  0.22680  0.17590  1.0000 0.1076952039
H   H114      1.0  0.22680  0.07420  0.32410  1.0000 0.1076952039
H   H115      1.0  0.96990  0.19890  0.16990  1.0000 0.1295736156
H   H116      1.0  0.19890  0.96990  0.33010  1.0000 0.1295736156
H   H117      1.0  0.10640  0.03080  0.15330  1.0000 0.1219420832
H   H118      1.0  0.03080  0.10640  0.34670  1.0000 0.1219420832
H   H119      1.0  0.14940  0.13360  0.14600  1.0000 0.1076952039
H   H120      1.0  0.13360  0.14940  0.35400  1.0000 0.1076952039
H   H121      1.0  0.50200  0.10780  0.42810  1.0000 0.1295736156
H   H122      1.0  0.10780  0.50200  0.07190  1.0000 0.1295736156
H   H123      1.0  0.59440  0.05920  0.45700  1.0000 0.1219420832
H   H124      1.0  0.05920  0.59440  0.04300  1.0000 0.1295736156
H   H125      1.0  0.50080  0.22800  0.26860  1.0000 0.0977202392
H   H126      1.0  0.22800  0.50080  0.23140  1.0000 0.0977202392
H   H127      1.0  0.60000  0.18980  0.29940  1.0000 0.1219420832
H   H128      1.0  0.18980  0.60000  0.20060  1.0000 0.1219420832
H   H129      1.0  0.54900  0.97960  0.36400  1.0000 0.1219420832
H   H130      1.0  0.97960  0.54900  0.13600  1.0000 0.1219420832
H   H131      1.0  0.60170  0.03770  0.28930  1.0000 0.1295736156
H   H132      1.0  0.03770  0.60170  0.21070  1.0000 0.1295736156
H   H133      1.0  0.51960  0.94860  0.20390  1.0000 0.1219420832
H   H134      1.0  0.94860  0.51960  0.29610  1.0000 0.1219420832
H   H135      1.0  0.46060  0.89660  0.27240  1.0000 0.1295736156
H   H136      1.0  0.89660  0.46060  0.22760  1.0000 0.1295736156
H   H137      1.0  0.35320  0.13300  0.22330  1.0000 0.1076952039
H   H138      1.0  0.13300  0.35320  0.27670  1.0000 0.1076952039
H   H139      1.0  0.39780  0.02940  0.31640  1.0000 0.1219420832
H   H140      1.0  0.02940  0.39780  0.18360  1.0000 0.1219420832
H   H141      1.0  0.30010  0.97130  0.19950  1.0000 0.1295736156
H   H142      1.0  0.97130  0.30010  0.30050  1.0000 0.1295736156
H   H143      1.0  0.27610  0.07710  0.10210  1.0000 0.1076952039
H   H144      1.0  0.07710  0.27610  0.39790  1.0000 0.1076952039
H   H145      1.0  0.53000  0.20120  0.12850  1.0000 0.1295736156
H   H146      1.0  0.20120  0.53000  0.37150  1.0000 0.1295736156
H   H147      1.0  0.42380  0.22580  0.09500  1.0000 0.1076952039
H   H148      1.0  0.22580  0.42380  0.40500  1.0000 0.1076952039
H   H149      1.0  0.36990  0.14970  0.99670  1.0000 0.1076952039
H   H150      1.0  0.14970  0.36990  0.50330  1.0000 0.1076952039
H   H151      1.0  0.47410  0.10650  0.05070  1.0000 0.1219420832
H   H152      1.0  0.10650  0.47410  0.44930  1.0000 0.1219420832
H   H153      1.0  0.26980  0.99960  0.00200  1.0000 0.0977202392
H   H154      1.0  0.99960  0.26980  0.49800  1.0000 0.0977202392
H   H155      1.0  0.30750  0.89970  0.10730  1.0000 0.1219420832
H   H156      1.0  0.89970  0.30750  0.39270  1.0000 0.1219420832
H   H157      1.0  0.44100  0.90680  0.07590  1.0000 0.1295736156
H   H158      1.0  0.90680  0.44100  0.42410  1.0000 0.1295736156
H   H159      1.0  0.39320  0.00020  0.96520  1.0000 0.1295736156
H   H160      1.0  0.00020  0.39320  0.53480  1.0000 0.1295736156
C   C1        1.0  0.37420  0.68440  0.35280  1.0000 0.5983947245
C   C2        1.0  0.68440  0.37420  0.14720  1.0000 0.5983947245
C   C3        1.0  0.43900  0.61820  0.36440  1.0000 -0.3814654025
C   C4        1.0  0.61820  0.43900  0.13560  1.0000 -0.3814654025
C   C5        1.0  0.45970  0.67270  0.26500  1.0000 -0.1254468458
C   C6        1.0  0.67270  0.45970  0.23500  1.0000 -0.1224732984
C   C7        1.0  0.45960  0.51980  0.25030  1.0000 -0.1587496059
C   C8        1.0  0.51980  0.45960  0.24970  1.0000 -0.1587496059
C   C9        1.0  0.53210  0.67250  0.16120  1.0000 -0.1696305753
C   C10       1.0  0.67250  0.53210  0.33880  1.0000 -0.1696305753
C   C11       1.0  0.61290  0.57670  0.35730  1.0000 -0.1696305753
C   C12       1.0  0.57670  0.61290  0.14270  1.0000 -0.1696305753
C   C13       1.0  0.12780  0.81760  0.16340  1.0000 0.5983947245
C   C14       1.0  0.81760  0.12780  0.33660  1.0000 0.5983947245
C   C15       1.0  0.06240  0.88000  0.04490  1.0000 -0.3814654025
C   C16       1.0  0.88000  0.06240  0.45510  1.0000 -0.3814654025
C   C17       1.0  0.04020  0.82920  0.97690  1.0000 -0.1224732984
C   C18       1.0  0.82920  0.04020  0.52310  1.0000 -0.1254468458
C   C19       1.0  0.03990  0.97850  0.80960  1.0000 -0.1587496059
C   C20       1.0  0.97850  0.03990  0.69040  1.0000 -0.1587496059
C   C21       1.0  0.96770  0.82710  0.80310  1.0000 -0.1696305753
C   C22       1.0  0.82710  0.96770  0.69690  1.0000 -0.1696305753
C   C23       1.0  0.88500  0.92240  0.82120  1.0000 -0.1696305753
C   C24       1.0  0.92240  0.88500  0.67880  1.0000 -0.1696305753
C   C25       1.0  0.37240  0.81920  0.51860  1.0000 0.5983947245
C   C26       1.0  0.81920  0.37240  0.98140  1.0000 0.5983947245
C   C27       1.0  0.43760  0.87960  0.57740  1.0000 -0.3881512518
C   C28       1.0  0.87960  0.43760  0.92260  1.0000 -0.3881512518
C   C29       1.0  0.46130  0.82950  0.69650  1.0000 -0.1113052639
C   C30       1.0  0.82950  0.46130  0.80350  1.0000 -0.1113052639
C   C31       1.0  0.46080  0.98040  0.70980  1.0000 -0.1587496059
C   C32       1.0  0.98040  0.46080  0.79020  1.0000 -0.1587496059
C   C33       1.0  0.52030  0.04110  0.77220  1.0000 -0.1587496059
C   C34       1.0  0.04110  0.52030  0.72780  1.0000 -0.1587496059
C   C35       1.0  0.61230  0.92190  0.75560  1.0000 -0.1696305753
C   C36       1.0  0.92190  0.61230  0.74440  1.0000 -0.1696305753
C   C37       1.0  0.67210  0.96730  0.83480  1.0000 -0.1696305753
C   C38       1.0  0.96730  0.67210  0.66520  1.0000 -0.1696305753
C   C39       1.0  0.53180  0.82620  0.87120  1.0000 -0.1696305753
C   C40       1.0  0.82620  0.53180  0.62880  1.0000 -0.1696305753
C   C41       1.0  0.57470  0.88410  0.93540  1.0000 -0.1696305753
C   C42       1.0  0.88410  0.57470  0.56460  1.0000 -0.1696305753
C   C43       1.0  0.67290  0.03890  0.93820  1.0000 -0.1224732984
C   C44       1.0  0.03890  0.67290  0.56180  1.0000 -0.1224732984
C   C45       1.0  0.61980  0.06060  0.98260  1.0000 -0.3881512518
C   C46       1.0  0.06060  0.61980  0.51740  1.0000 -0.3881512518
C   C47       1.0  0.68360  0.12560  0.03740  1.0000 0.5983947245
C   C48       1.0  0.12560  0.68360  0.46260  1.0000 0.5983947245
C   C49       1.0  0.62580  0.31560  0.64720  1.0000 0.5983947245
C   C50       1.0  0.31560  0.62580  0.85280  1.0000 0.5983947245
C   C51       1.0  0.56100  0.38180  0.63560  1.0000 -0.3814654025
C   C52       1.0  0.38180  0.56100  0.86440  1.0000 -0.3814654025
C   C53       1.0  0.54030  0.32730  0.73500  1.0000 -0.1224732984
C   C54       1.0  0.32730  0.54030  0.76500  1.0000 -0.1254468458
C   C55       1.0  0.54040  0.48020  0.74970  1.0000 -0.1587496059
C   C56       1.0  0.48020  0.54040  0.75030  1.0000 -0.1587496059
C   C57       1.0  0.46790  0.32750  0.83880  1.0000 -0.1696305753
C   C58       1.0  0.32750  0.46790  0.66120  1.0000 -0.1696305753
C   C59       1.0  0.38710  0.42330  0.64270  1.0000 -0.1696305753
C   C60       1.0  0.42330  0.38710  0.85730  1.0000 -0.1696305753
C   C61       1.0  0.87220  0.18240  0.83660  1.0000 0.5983947245
C   C62       1.0  0.18240  0.87220  0.66340  1.0000 0.5983947245
C   C63       1.0  0.93760  0.12000  0.95510  1.0000 -0.3814654025
C   C64       1.0  0.12000  0.93760  0.54490  1.0000 -0.3814654025
C   C65       1.0  0.95980  0.17080  0.02310  1.0000 -0.1224732984
C   C66       1.0  0.17080  0.95980  0.47690  1.0000 -0.1224732984
C   C67       1.0  0.96010  0.02150  0.19040  1.0000 -0.1587496059
C   C68       1.0  0.02150  0.96010  0.30960  1.0000 -0.1587496059
C   C69       1.0  0.03230  0.17290  0.19690  1.0000 -0.1696305753
C   C70       1.0  0.17290  0.03230  0.30310  1.0000 -0.1696305753
C   C71       1.0  0.11500  0.07760  0.17880  1.0000 -0.1587496059
C   C72       1.0  0.07760  0.11500  0.32120  1.0000 -0.1587496059
C   C73       1.0  0.62760  0.18080  0.48140  1.0000 0.5983947245
C   C74       1.0  0.18080  0.62760  0.01860  1.0000 0.5983947245
C   C75       1.0  0.56240  0.12040  0.42260  1.0000 -0.3881512518
C   C76       1.0  0.12040  0.56240  0.07740  1.0000 -0.3881512518
C   C77       1.0  0.53870  0.17050  0.30350  1.0000 -0.1113052639
C   C78       1.0  0.17050  0.53870  0.19650  1.0000 -0.1113052639
C   C79       1.0  0.53920  0.01960  0.29020  1.0000 -0.1549008461
C   C80       1.0  0.01960  0.53920  0.20980  1.0000 -0.1587496059
C   C81       1.0  0.47970  0.95890  0.22780  1.0000 -0.1587496059
C   C82       1.0  0.95890  0.47970  0.27220  1.0000 -0.1587496059
C   C83       1.0  0.38770  0.07810  0.24440  1.0000 -0.1587496059
C   C84       1.0  0.07810  0.38770  0.25560  1.0000 -0.1587496059
C   C85       1.0  0.32790  0.03270  0.16520  1.0000 -0.1696305753
C   C86       1.0  0.03270  0.32790  0.33480  1.0000 -0.1696305753
C   C87       1.0  0.46820  0.17380  0.12880  1.0000 -0.1696305753
C   C88       1.0  0.17380  0.46820  0.37120  1.0000 -0.1696305753
C   C89       1.0  0.42530  0.11590  0.06460  1.0000 -0.1696305753
C   C90       1.0  0.11590  0.42530  0.43540  1.0000 -0.1696305753
C   C91       1.0  0.32710  0.96110  0.06180  1.0000 -0.1224732984
C   C92       1.0  0.96110  0.32710  0.43820  1.0000 -0.1224732984
C   C93       1.0  0.38020  0.93940  0.01740  1.0000 -0.3881512518
C   C94       1.0  0.93940  0.38020  0.48260  1.0000 -0.3881512518
C   C95       1.0  0.31640  0.87440  0.96260  1.0000 0.5983947245
C   C96       1.0  0.87440  0.31640  0.53740  1.0000 0.5983947245
N   N1        1.0  0.51750  0.60930  0.26060  1.0000 0.1295736156
N   N2        1.0  0.60930  0.51750  0.23940  1.0000 0.1295736156
N   N3        1.0  0.98220  0.89040  0.85350  1.0000 0.1295736156
N   N4        1.0  0.89040  0.98220  0.64650  1.0000 0.1295736156
N   N5        1.0  0.51610  0.89070  0.75520  1.0000 0.1295736156
N   N6        1.0  0.89070  0.51610  0.74480  1.0000 0.1295736156
N   N7        1.0  0.61100  0.98300  0.87200  1.0000 0.1381375947
N   N8        1.0  0.98300  0.61100  0.62800  1.0000 0.1381375947
N   N9        1.0  0.48250  0.39070  0.73940  1.0000 0.1295736156
N   N10       1.0  0.39070  0.48250  0.76060  1.0000 0.1295736156
N   N11       1.0  0.01780  0.10960  0.14650  1.0000 0.1295736156
N   N12       1.0  0.10960  0.01780  0.35350  1.0000 0.1295736156
N   N13       1.0  0.48390  0.10930  0.24480  1.0000 0.1295736156
N   N14       1.0  0.10930  0.48390  0.25520  1.0000 0.1295736156
N   N15       1.0  0.38900  0.01700  0.12800  1.0000 0.1381375947
N   N16       1.0  0.01700  0.38900  0.37200  1.0000 0.1381375947
O   O1        1.0  0.33620  0.64480  0.41650  1.0000 -0.5699415738
O   O2        1.0  0.64480  0.33620  0.08350  1.0000 -0.5699415738
O   O3        1.0  0.35880  0.77060  0.28180  1.0000 -0.5699415738
O   O4        1.0  0.77060  0.35880  0.21820  1.0000 -0.5699415738
O   O5        1.0  0.16400  0.85780  0.22490  1.0000 -0.5699415738
O   O6        1.0  0.85780  0.16400  0.27510  1.0000 -0.5699415738
O   O7        1.0  0.14180  0.73160  0.19310  1.0000 -0.5589160892
O   O8        1.0  0.73160  0.14180  0.30690  1.0000 -0.5589160892
O   O9        1.0  0.33570  0.85670  0.41890  1.0000 -0.5589160892
O   O10       1.0  0.85670  0.33570  0.08110  1.0000 -0.5589160892
O   O11       1.0  0.36060  0.73120  0.57620  1.0000 -0.5793386968
O   O12       1.0  0.73120  0.36060  0.92380  1.0000 -0.5793386968
O   O13       1.0  0.64460  0.16340  0.06290  1.0000 -0.5699415738
O   O14       1.0  0.16340  0.64460  0.43710  1.0000 -0.5699415738
O   O15       1.0  0.76900  0.14100  0.05270  1.0000 -0.5514565381
O   O16       1.0  0.14100  0.76900  0.44730  1.0000 -0.5514565381
O   O17       1.0  0.66380  0.35520  0.58350  1.0000 -0.5699415738
O   O18       1.0  0.35520  0.66380  0.91650  1.0000 -0.5699415738
O   O19       1.0  0.64120  0.22940  0.71820  1.0000 -0.5699415738
O   O20       1.0  0.22940  0.64120  0.78180  1.0000 -0.5699415738
O   O21       1.0  0.83600  0.14220  0.77510  1.0000 -0.5699415738
O   O22       1.0  0.14220  0.83600  0.72490  1.0000 -0.5699415738
O   O23       1.0  0.85820  0.26840  0.80690  1.0000 -0.5589160892
O   O24       1.0  0.26840  0.85820  0.69310  1.0000 -0.5589160892
O   O25       1.0  0.66430  0.14330  0.58110  1.0000 -0.5589160892
O   O26       1.0  0.14330  0.66430  0.91890  1.0000 -0.5589160892
O   O27       1.0  0.63940  0.26880  0.42380  1.0000 -0.5793386968
O   O28       1.0  0.26880  0.63940  0.07620  1.0000 -0.5793386968
O   O29       1.0  0.35540  0.83660  0.93710  1.0000 -0.5699415738
O   O30       1.0  0.83660  0.35540  0.56290  1.0000 -0.5699415738
O   O31       1.0  0.23100  0.85900  0.94730  1.0000 -0.5514565381
O   O32       1.0  0.85900  0.23100  0.55270  1.0000 -0.5514565381
