# DDEC6 charges by PACMAN v1.1 (https://github.com/mtap-research/PACMAN-charge/)
data_1997[Ce][pts]3[FSR]1
_chemical_formula_sum              "Ce2 H76 C44 N8 O20"
_cell_length_a       17.1579
_cell_length_b       17.1579
_cell_length_c       8.509
_cell_angle_alpha    82.5055
_cell_angle_beta     97.4945
_cell_angle_gamma    118.708

_symmetry_space_group_name_H-M    "P 1"
_symmetry_Int_Tables_number       1

loop_
  _symmetry_equiv_pos_as_xyz
  'x, y, z'

loop_
  _atom_site_type_symbol
  _atom_site_label
  _atom_site_symmetry_multiplicity
  _atom_site_fract_x
  _atom_site_fract_y
  _atom_site_fract_z
  _atom_site_occupancy
  _atom_site_charge
Ce  Ce1       1.0  0.00907  0.00907  0.25000  1.0000 2.027054358
Ce  Ce2       1.0  0.99093  0.99093  0.75000  1.0000 2.027054358
H   H1        1.0  0.94860  0.18340  0.07460  1.0000 0.1452343051
H   H2        1.0  0.18340  0.94860  0.42540  1.0000 0.1391669457
H   H3        1.0  0.05140  0.81660  0.92540  1.0000 0.1391669457
H   H4        1.0  0.81660  0.05140  0.57460  1.0000 0.1452343051
H   H5        1.0  0.03990  0.25230  0.01170  1.0000 0.134895641
H   H6        1.0  0.25230  0.03990  0.48830  1.0000 0.1391669457
H   H7        1.0  0.96010  0.74770  0.98830  1.0000 0.1391669457
H   H8        1.0  0.74770  0.96010  0.51170  1.0000 0.1391669457
H   H9        1.0  0.86630  0.20770  0.82880  1.0000 0.1109150961
H   H10       1.0  0.20770  0.86630  0.67120  1.0000 0.1109150961
H   H11       1.0  0.13370  0.79230  0.17120  1.0000 0.1109150961
H   H12       1.0  0.79230  0.13370  0.32880  1.0000 0.1109150961
H   H13       1.0  0.97060  0.28340  0.76220  1.0000 0.1109150961
H   H14       1.0  0.28340  0.97060  0.73780  1.0000 0.1109150961
H   H15       1.0  0.02940  0.71660  0.23780  1.0000 0.1109150961
H   H16       1.0  0.71660  0.02940  0.26220  1.0000 0.1109150961
H   H17       1.0  0.89650  0.35050  0.86970  1.0000 0.2533010129
H   H18       1.0  0.35050  0.89650  0.63030  1.0000 0.2533010129
H   H19       1.0  0.10350  0.64950  0.13030  1.0000 0.2533010129
H   H20       1.0  0.64950  0.10350  0.36970  1.0000 0.2533010129
H   H21       1.0  0.80390  0.25010  0.04480  1.0000 0.118383639
H   H22       1.0  0.25010  0.80390  0.45520  1.0000 0.118383639
H   H23       1.0  0.19610  0.74990  0.95520  1.0000 0.118383639
H   H24       1.0  0.74990  0.19610  0.54480  1.0000 0.118383639
H   H25       1.0  0.87490  0.25150  0.15700  1.0000 0.118383639
H   H26       1.0  0.25150  0.87490  0.34300  1.0000 0.118383639
H   H27       1.0  0.12510  0.74850  0.84300  1.0000 0.118383639
H   H28       1.0  0.74850  0.12510  0.65700  1.0000 0.118383639
H   H29       1.0  0.04180  0.36320  0.07390  1.0000 0.1109150961
H   H30       1.0  0.36320  0.04180  0.42610  1.0000 0.1109150961
H   H31       1.0  0.95820  0.63680  0.92610  1.0000 0.1109150961
H   H32       1.0  0.63680  0.95820  0.57390  1.0000 0.1109150961
H   H33       1.0  0.00690  0.43410  0.06490  1.0000 0.1109150961
H   H34       1.0  0.43410  0.00690  0.43510  1.0000 0.1109150961
H   H35       1.0  0.99310  0.56590  0.93510  1.0000 0.1109150961
H   H36       1.0  0.56590  0.99310  0.56490  1.0000 0.1109150961
H   H37       1.0  0.79530  0.32150  0.18640  1.0000 0.118383639
H   H38       1.0  0.32150  0.79530  0.31360  1.0000 0.118383639
H   H39       1.0  0.20470  0.67850  0.81360  1.0000 0.118383639
H   H40       1.0  0.67850  0.20470  0.68640  1.0000 0.118383639
H   H41       1.0  0.89700  0.39260  0.21180  1.0000 0.1109150961
H   H42       1.0  0.39260  0.89700  0.28820  1.0000 0.1109150961
H   H43       1.0  0.10300  0.60740  0.78820  1.0000 0.1109150961
H   H44       1.0  0.60740  0.10300  0.71180  1.0000 0.1109150961
H   H45       1.0  0.05380  0.46020  0.79320  1.0000 0.118383639
H   H46       1.0  0.46020  0.05380  0.70680  1.0000 0.118383639
H   H47       1.0  0.94620  0.53980  0.20680  1.0000 0.118383639
H   H48       1.0  0.53980  0.94620  0.29320  1.0000 0.118383639
H   H49       1.0  0.08480  0.40220  0.82600  1.0000 0.1027680533
H   H50       1.0  0.40220  0.08480  0.67400  1.0000 0.1027680533
H   H51       1.0  0.91520  0.59780  0.17400  1.0000 0.1027680533
H   H52       1.0  0.59780  0.91520  0.32600  1.0000 0.1027680533
H   H53       1.0  0.19170  0.48850  0.02510  1.0000 0.1027680533
H   H54       1.0  0.48850  0.19170  0.47490  1.0000 0.1027680533
H   H55       1.0  0.80830  0.51150  0.97490  1.0000 0.1027680533
H   H56       1.0  0.51150  0.80830  0.52510  1.0000 0.1027680533
H   H57       1.0  0.21260  0.53780  0.83490  1.0000 0.1027680533
H   H58       1.0  0.53780  0.21260  0.66510  1.0000 0.1027680533
H   H59       1.0  0.78740  0.46220  0.16510  1.0000 0.1027680533
H   H60       1.0  0.46220  0.78740  0.33490  1.0000 0.1027680533
H   H61       1.0  0.71960  0.29940  0.88450  1.0000 0.080293018
H   H62       1.0  0.29940  0.71960  0.61550  1.0000 0.080293018
H   H63       1.0  0.28040  0.70060  0.11550  1.0000 0.080293018
H   H64       1.0  0.70060  0.28040  0.38450  1.0000 0.080293018
H   H65       1.0  0.69568  0.36232  0.95370  1.0000 0.080293018
H   H66       1.0  0.36232  0.69568  0.54630  1.0000 0.080293018
H   H67       1.0  0.30432  0.63768  0.04630  1.0000 0.080293018
H   H68       1.0  0.63768  0.30432  0.45370  1.0000 0.080293018
H   H69       1.0  0.77710  0.47890  0.78860  1.0000 0.1109150961
H   H70       1.0  0.47890  0.77710  0.71140  1.0000 0.1109150961
H   H71       1.0  0.22290  0.52110  0.21140  1.0000 0.1109150961
H   H72       1.0  0.52110  0.22290  0.28860  1.0000 0.1109150961
H   H73       1.0  0.69240  0.38400  0.66890  1.0000 0.118383639
H   H74       1.0  0.38400  0.69240  0.83110  1.0000 0.118383639
H   H75       1.0  0.30760  0.61600  0.33110  1.0000 0.118383639
H   H76       1.0  0.61600  0.30760  0.16890  1.0000 0.118383639
C   C1        1.0  0.97200  0.13140  0.89610  1.0000 0.6669936215
C   C2        1.0  0.13140  0.97200  0.60390  1.0000 0.6669936215
C   C3        1.0  0.02800  0.86860  0.10390  1.0000 0.6669936215
C   C4        1.0  0.86860  0.02800  0.39610  1.0000 0.6669936215
C   C5        1.0  0.97340  0.20460  0.97600  1.0000 -0.3612575944
C   C6        1.0  0.20460  0.97340  0.52400  1.0000 -0.3612575944
C   C7        1.0  0.02660  0.79540  0.02400  1.0000 -0.3612575944
C   C8        1.0  0.79540  0.02660  0.47600  1.0000 -0.3612575944
C   C9        1.0  0.93210  0.25350  0.86600  1.0000 -0.0365444218
C   C10       1.0  0.25350  0.93210  0.63400  1.0000 -0.0365444218
C   C11       1.0  0.06790  0.74650  0.13400  1.0000 -0.0365444218
C   C12       1.0  0.74650  0.06790  0.36600  1.0000 -0.0365444218
C   C13       1.0  0.86300  0.28500  0.07200  1.0000 -0.1377871747
C   C14       1.0  0.28500  0.86300  0.42800  1.0000 -0.1377871747
C   C15       1.0  0.13700  0.71500  0.92800  1.0000 -0.1377871747
C   C16       1.0  0.71500  0.13700  0.57200  1.0000 -0.1377871747
C   C17       1.0  0.01790  0.39490  0.00400  1.0000 -0.1022723935
C   C18       1.0  0.39490  0.01790  0.49600  1.0000 -0.1022723935
C   C19       1.0  0.98210  0.60510  0.99600  1.0000 -0.1022723935
C   C20       1.0  0.60510  0.98210  0.50400  1.0000 -0.1022723935
C   C21       1.0  0.84350  0.35390  0.12800  1.0000 -0.1184016805
C   C22       1.0  0.35390  0.84350  0.37200  1.0000 -0.1184016805
C   C23       1.0  0.15650  0.64610  0.87200  1.0000 -0.1184016805
C   C24       1.0  0.64610  0.15650  0.62800  1.0000 -0.1184016805
C   C25       1.0  0.07890  0.44310  0.87000  1.0000 -0.1695154871
C   C26       1.0  0.44310  0.07890  0.63000  1.0000 -0.1695154871
C   C27       1.0  0.92110  0.55690  0.13000  1.0000 -0.1695154871
C   C28       1.0  0.55690  0.92110  0.37000  1.0000 -0.1695154871
C   C29       1.0  0.16940  0.51140  0.93200  1.0000 -0.0907438754
C   C30       1.0  0.51140  0.16940  0.56800  1.0000 -0.0907438754
C   C31       1.0  0.83060  0.48860  0.06800  1.0000 -0.0907438754
C   C32       1.0  0.48860  0.83060  0.43200  1.0000 -0.0907438754
C   C33       1.0  0.75180  0.36740  0.89500  1.0000 -0.0695666115
C   C34       1.0  0.36740  0.75180  0.60500  1.0000 -0.0695666115
C   C35       1.0  0.24820  0.63260  0.10500  1.0000 -0.0695666115
C   C36       1.0  0.63260  0.24820  0.39500  1.0000 -0.0695666115
C   C37       1.0  0.75740  0.41840  0.73200  1.0000 -0.323277932
C   C38       1.0  0.41840  0.75740  0.76800  1.0000 -0.323277932
C   C39       1.0  0.24260  0.58160  0.26800  1.0000 -0.323277932
C   C40       1.0  0.58160  0.24260  0.23200  1.0000 -0.323277932
C   C41       1.0  0.82700  0.42360  0.63400  1.0000 0.5943446343
C   C42       1.0  0.42360  0.82700  0.86600  1.0000 0.5943446343
C   C43       1.0  0.17300  0.57640  0.36600  1.0000 0.5943446343
C   C44       1.0  0.57640  0.17300  0.13400  1.0000 0.5943446343
N   N1        1.0  0.92850  0.32530  0.94590  1.0000 -0.0342969898
N   N2        1.0  0.32530  0.92850  0.55410  1.0000 -0.0365444218
N   N3        1.0  0.07150  0.67470  0.05410  1.0000 -0.0365444218
N   N4        1.0  0.67470  0.07150  0.44590  1.0000 -0.0365444218
N   N5        1.0  0.83240  0.41340  0.00100  1.0000 -0.1292183663
N   N6        1.0  0.41340  0.83240  0.49900  1.0000 -0.1292183663
N   N7        1.0  0.16760  0.58660  0.99900  1.0000 -0.1292183663
N   N8        1.0  0.58660  0.16760  0.50100  1.0000 -0.1292183663
O   O1        1.0  0.99060  0.07460  0.98510  1.0000 -0.7021308954
O   O2        1.0  0.07460  0.99060  0.51490  1.0000 -0.7021308954
O   O3        1.0  0.00940  0.92540  0.01490  1.0000 -0.7021308954
O   O4        1.0  0.92540  0.00940  0.48510  1.0000 -0.7021308954
O   O5        1.0  0.07790  0.16730  0.31780  1.0000 -0.4519600238
O   O6        1.0  0.16730  0.07790  0.18220  1.0000 -0.4519600238
O   O7        1.0  0.92210  0.83270  0.68220  1.0000 -0.4519600238
O   O8        1.0  0.83270  0.92210  0.81780  1.0000 -0.4519600238
O   O9        1.0  0.04210  0.87490  0.24980  1.0000 -0.579518732
O   O10       1.0  0.87490  0.04210  0.25020  1.0000 -0.579518732
O   O11       1.0  0.95790  0.12510  0.75020  1.0000 -0.579518732
O   O12       1.0  0.12510  0.95790  0.74980  1.0000 -0.579518732
O   O13       1.0  0.86020  0.37200  0.67010  1.0000 -0.6014574583
O   O14       1.0  0.37200  0.86020  0.82990  1.0000 -0.6014574583
O   O15       1.0  0.13980  0.62800  0.32990  1.0000 -0.6014574583
O   O16       1.0  0.62800  0.13980  0.17010  1.0000 -0.6014574583
O   O17       1.0  0.84630  0.47870  0.51400  1.0000 -0.6253022667
O   O18       1.0  0.47870  0.84630  0.98600  1.0000 -0.6246129985
O   O19       1.0  0.15370  0.52130  0.48600  1.0000 -0.6253022667
O   O20       1.0  0.52130  0.15370  0.01400  1.0000 -0.6253022667
