# DDEC6 charges by PACMAN v1.1 (https://github.com/mtap-research/PACMAN-charge/)
data_1999[Cd][nan]3[FSR]1
_chemical_formula_sum              "Cd4 H44 C40 S4 N8 O22"
_cell_length_a       13.243
_cell_length_b       13.243
_cell_length_c       13.5956
_cell_angle_alpha    61.697
_cell_angle_beta     118.303
_cell_angle_gamma    136.776

_symmetry_space_group_name_H-M    "P 1"
_symmetry_Int_Tables_number       1

loop_
  _symmetry_equiv_pos_as_xyz
  'x, y, z'

loop_
  _atom_site_type_symbol
  _atom_site_label
  _atom_site_symmetry_multiplicity
  _atom_site_fract_x
  _atom_site_fract_y
  _atom_site_fract_z
  _atom_site_occupancy
  _atom_site_charge
Cd  Cd1       1.0  0.18978  0.67682  0.85645  1.0000 0.9821756381
Cd  Cd2       1.0  0.67682  0.18978  0.14355  1.0000 0.9853877125
Cd  Cd3       1.0  0.67285  0.18103  0.60272  1.0000 0.9821756381
Cd  Cd4       1.0  0.18103  0.67285  0.39728  1.0000 0.9821756381
H   H1        1.0  0.40200  0.59600  0.00290  1.0000 0.1205642097
H   H2        1.0  0.59600  0.40200  0.99710  1.0000 0.1205642097
H   H3        1.0  0.40560  0.40340  0.11170  1.0000 0.1407860012
H   H4        1.0  0.40340  0.40560  0.88830  1.0000 0.1407860012
H   H5        1.0  0.95050  0.10930  0.05920  1.0000 0.1205642097
H   H6        1.0  0.10930  0.95050  0.94080  1.0000 0.1205642097
H   H7        1.0  0.96140  0.31740  0.95720  1.0000 0.101485571
H   H8        1.0  0.31740  0.96140  0.04280  1.0000 0.101485571
H   H9        1.0  0.40720  0.23000  0.20530  1.0000 0.1407860012
H   H10       1.0  0.23000  0.40720  0.79470  1.0000 0.1407860012
H   H11       1.0  0.40280  0.02920  0.29750  1.0000 0.1086942057
H   H12       1.0  0.02920  0.40280  0.70250  1.0000 0.1086942057
H   H13       1.0  0.96040  0.74040  0.23920  1.0000 0.1205642097
H   H14       1.0  0.74040  0.96040  0.76080  1.0000 0.1205642097
H   H15       1.0  0.95200  0.93380  0.13680  1.0000 0.12867102
H   H16       1.0  0.93380  0.95200  0.86320  1.0000 0.12867102
H   H17       1.0  0.42060  0.04660  0.78500  1.0000 0.1086942057
H   H18       1.0  0.04660  0.42060  0.21500  1.0000 0.1086942057
H   H19       1.0  0.42190  0.24430  0.69510  1.0000 0.1407860012
H   H20       1.0  0.24430  0.42190  0.30490  1.0000 0.1407860012
H   H21       1.0  0.96330  0.94110  0.63580  1.0000 0.12867102
H   H22       1.0  0.94110  0.96330  0.36420  1.0000 0.12867102
H   H23       1.0  0.97620  0.75220  0.72150  1.0000 0.1205642097
H   H24       1.0  0.75220  0.97620  0.27850  1.0000 0.1205642097
H   H25       1.0  0.95830  0.30990  0.45990  1.0000 0.1086942057
H   H26       1.0  0.30990  0.95830  0.54010  1.0000 0.1086942057
H   H27       1.0  0.95890  0.11030  0.54820  1.0000 0.1205642097
H   H28       1.0  0.11030  0.95890  0.45180  1.0000 0.1205642097
H   H29       1.0  0.41370  0.41690  0.64030  1.0000 0.1407860012
H   H30       1.0  0.41690  0.41370  0.35970  1.0000 0.1407860012
H   H31       1.0  0.40010  0.60730  0.54990  1.0000 0.1205642097
H   H32       1.0  0.60730  0.40010  0.45010  1.0000 0.1205642097
H   H33       1.0  0.22220  0.73040  0.05810  1.0000 0.3897434545
H   H34       1.0  0.73040  0.22220  0.94190  1.0000 0.3897434545
H   H35       1.0  0.03980  0.60620  0.00910  1.0000 0.3821369109
H   H36       1.0  0.60620  0.03980  0.99090  1.0000 0.3821369109
H   H37       1.0  0.49560  0.87720  0.99620  1.0000 0.3897434545
H   H38       1.0  0.87720  0.49560  0.00380  1.0000 0.3897434545
H   H39       1.0  0.52290  0.90230  0.87770  1.0000 0.398883864
H   H40       1.0  0.90230  0.52290  0.12230  1.0000 0.398883864
H   H41       1.0  0.56570  0.01970  0.43970  1.0000 0.4146650729
H   H42       1.0  0.01970  0.56570  0.56030  1.0000 0.4146650729
H   H43       1.0  0.70930  0.03230  0.53340  1.0000 0.398883864
H   H44       1.0  0.03230  0.70930  0.46660  1.0000 0.398883864
C   C1        1.0  0.30920  0.49680  0.01460  1.0000 0.0858795026
C   C2        1.0  0.49680  0.30920  0.98540  1.0000 0.0858795026
C   C3        1.0  0.31160  0.38060  0.07930  1.0000 -0.1798920001
C   C4        1.0  0.38060  0.31160  0.92070  1.0000 -0.1798920001
C   C5        1.0  0.18030  0.23510  0.09830  1.0000 0.101485571
C   C6        1.0  0.23510  0.18030  0.90170  1.0000 0.101485571
C   C7        1.0  0.04610  0.20930  0.04960  1.0000 -0.1944732296
C   C8        1.0  0.20930  0.04610  0.95040  1.0000 -0.1944732296
C   C9        1.0  0.05220  0.33380  0.98750  1.0000 0.0809489933
C   C10       1.0  0.33380  0.05220  0.01250  1.0000 0.0809489933
C   C11       1.0  0.18220  0.10740  0.16110  1.0000 0.101485571
C   C12       1.0  0.10740  0.18220  0.83890  1.0000 0.101485571
C   C13       1.0  0.31390  0.13070  0.21010  1.0000 -0.1695193353
C   C14       1.0  0.13070  0.31390  0.78990  1.0000 -0.1695193353
C   C15       1.0  0.31000  0.00960  0.26700  1.0000 0.0809489933
C   C16       1.0  0.00960  0.31000  0.73300  1.0000 0.0809489933
C   C17       1.0  0.05270  0.84190  0.23150  1.0000 0.0612543744
C   C18       1.0  0.84190  0.05270  0.76850  1.0000 0.0612543744
C   C19       1.0  0.04640  0.95600  0.17110  1.0000 -0.1995068158
C   C20       1.0  0.95600  0.04640  0.82890  1.0000 -0.1995068158
C   C21       1.0  0.32690  0.02510  0.75330  1.0000 0.0690551323
C   C22       1.0  0.02510  0.32690  0.24670  1.0000 0.0690551323
C   C23       1.0  0.32830  0.14390  0.70210  1.0000 -0.1695193353
C   C24       1.0  0.14390  0.32830  0.29790  1.0000 -0.1695193353
C   C25       1.0  0.19290  0.11670  0.65990  1.0000 0.1086942057
C   C26       1.0  0.11670  0.19290  0.34010  1.0000 0.1086942057
C   C27       1.0  0.05840  0.96540  0.66650  1.0000 -0.1995068158
C   C28       1.0  0.96540  0.05840  0.33350  1.0000 -0.1995068158
C   C29       1.0  0.06810  0.85390  0.71770  1.0000 0.0809489933
C   C30       1.0  0.85390  0.06810  0.28230  1.0000 0.0809489933
C   C31       1.0  0.05200  0.33180  0.49680  1.0000 0.0858795026
C   C32       1.0  0.33180  0.05200  0.50320  1.0000 0.0858795026
C   C33       1.0  0.05210  0.21210  0.54990  1.0000 -0.208929986
C   C34       1.0  0.21210  0.05210  0.45010  1.0000 -0.208929986
C   C35       1.0  0.18920  0.24220  0.60440  1.0000 0.101485571
C   C36       1.0  0.24220  0.18920  0.39560  1.0000 0.101485571
C   C37       1.0  0.31840  0.39120  0.60400  1.0000 -0.1798920001
C   C38       1.0  0.39120  0.31840  0.39600  1.0000 -0.1798920001
C   C39       1.0  0.30960  0.50540  0.54930  1.0000 0.101485571
C   C40       1.0  0.50540  0.30960  0.45070  1.0000 0.101485571
S   S1        1.0  0.39428  0.77732  0.68840  1.0000 1.4141633806
S   S2        1.0  0.77732  0.39428  0.31160  1.0000 1.4141633806
S   S3        1.0  0.79374  0.42286  0.72320  1.0000 1.3895141182
S   S4        1.0  0.42286  0.79374  0.27680  1.0000 1.3895141182
N   N1        1.0  0.18180  0.47500  0.96880  1.0000 -0.2441831607
N   N2        1.0  0.47500  0.18180  0.03120  1.0000 -0.2441831607
N   N3        1.0  0.18190  0.86650  0.28020  1.0000 -0.2463776025
N   N4        1.0  0.86650  0.18190  0.71980  1.0000 -0.2463776025
N   N5        1.0  0.19690  0.87790  0.76190  1.0000 -0.2620585861
N   N6        1.0  0.87790  0.19690  0.23810  1.0000 -0.2620585861
N   N7        1.0  0.17730  0.47590  0.49550  1.0000 -0.2463776025
N   N8        1.0  0.47590  0.17730  0.50450  1.0000 -0.2463776025
O   O1        1.0  0.24650  0.70170  0.70510  1.0000 -0.6891104283
O   O2        1.0  0.70170  0.24650  0.29490  1.0000 -0.6891104283
O   O3        1.0  0.44520  0.69360  0.76620  1.0000 -0.682132006
O   O4        1.0  0.69360  0.44520  0.23380  1.0000 -0.682132006
O   O5        1.0  0.50580  0.93260  0.71000  1.0000 -0.7031261625
O   O6        1.0  0.93260  0.50580  0.29000  1.0000 -0.7031261625
O   O7        1.0  0.37430  0.78870  0.56890  1.0000 -0.6621493625
O   O8        1.0  0.78870  0.37430  0.43110  1.0000 -0.6621493625
O   O9        1.0  0.82720  0.42620  0.63150  1.0000 -0.6621493625
O   O10       1.0  0.42620  0.82720  0.36850  1.0000 -0.6621493625
O   O11       1.0  0.72570  0.49110  0.67080  1.0000 -0.6621493625
O   O12       1.0  0.49110  0.72570  0.32920  1.0000 -0.6621493625
O   O13       1.0  0.69350  0.26430  0.77620  1.0000 -0.6621493625
O   O14       1.0  0.26430  0.69350  0.22380  1.0000 -0.6621493625
O   O15       1.0  0.93270  0.50470  0.80540  1.0000 -0.6891104283
O   O16       1.0  0.50470  0.93270  0.19460  1.0000 -0.6891104283
O   O17       1.0  0.14080  0.67000  0.00350  1.0000 -0.7576594951
O   O18       1.0  0.67000  0.14080  0.99650  1.0000 -0.7576594951
O   O19       1.0  0.45640  0.85440  0.92350  1.0000 -0.747050971
O   O20       1.0  0.85440  0.45640  0.07650  1.0000 -0.747050971
O   O21       1.0  0.64340  0.05220  0.50590  1.0000 -0.7576594951
O   O22       1.0  0.05220  0.64340  0.49410  1.0000 -0.7576594951
