# DDEC6 charges by PACMAN v1.1 (https://github.com/mtap-research/PACMAN-charge/)
data_1999[Fe][nan]3[FSR]1
_chemical_formula_sum              "Fe8 P12 H12 C8 O64"
_cell_length_a       10.8294
_cell_length_b       12.7465
_cell_length_c       15.717
_cell_angle_alpha    90
_cell_angle_beta     128.221
_cell_angle_gamma    90

_symmetry_space_group_name_H-M    "P 1"
_symmetry_Int_Tables_number       1

loop_
  _symmetry_equiv_pos_as_xyz
  'x, y, z'

loop_
  _atom_site_type_symbol
  _atom_site_label
  _atom_site_symmetry_multiplicity
  _atom_site_fract_x
  _atom_site_fract_y
  _atom_site_fract_z
  _atom_site_occupancy
  _atom_site_charge
Fe  Fe1       1.0  0.37059  0.87900  0.34082  1.0000 1.4226477613
Fe  Fe2       1.0  0.37059  0.62100  0.84082  1.0000 1.4226477613
Fe  Fe3       1.0  0.62941  0.12100  0.65918  1.0000 1.4226477613
Fe  Fe4       1.0  0.62941  0.37900  0.15918  1.0000 1.4226477613
Fe  Fe5       1.0  0.65725  0.87512  0.14779  1.0000 1.4693024029
Fe  Fe6       1.0  0.65725  0.62488  0.64779  1.0000 1.4693024029
Fe  Fe7       1.0  0.34275  0.12488  0.85221  1.0000 1.4693024029
Fe  Fe8       1.0  0.34275  0.37512  0.35221  1.0000 1.4693024029
P   P1        1.0  0.44699  0.87658  0.88142  1.0000 1.5679733326
P   P2        1.0  0.44699  0.62342  0.38142  1.0000 1.5679733326
P   P3        1.0  0.55301  0.12342  0.11858  1.0000 1.5679733326
P   P4        1.0  0.55301  0.37658  0.61858  1.0000 1.5679733326
P   P5        1.0  0.53699  0.62737  0.10772  1.0000 1.5623095801
P   P6        1.0  0.53699  0.87263  0.60772  1.0000 1.5623095801
P   P7        1.0  0.46301  0.37263  0.89228  1.0000 1.5623095801
P   P8        1.0  0.46301  0.12737  0.39228  1.0000 1.5623095801
P   P9        1.0  0.05112  0.83985  0.30309  1.0000 1.4996572604
P   P10       1.0  0.05112  0.66015  0.80309  1.0000 1.4996572604
P   P11       1.0  0.94888  0.16015  0.69691  1.0000 1.4996572604
P   P12       1.0  0.94888  0.33985  0.19691  1.0000 1.4996572604
H   H1        1.0  0.45810  0.88920  0.75860  1.0000 0.3402035853
H   H2        1.0  0.45810  0.61080  0.25860  1.0000 0.3402035853
H   H3        1.0  0.54190  0.11080  0.24140  1.0000 0.3402035853
H   H4        1.0  0.54190  0.38920  0.74140  1.0000 0.3402035853
H   H5        1.0  0.41900  0.64790  0.16700  1.0000 0.3402035853
H   H6        1.0  0.41900  0.85210  0.66700  1.0000 0.3402035853
H   H7        1.0  0.58100  0.35210  0.83300  1.0000 0.3402035853
H   H8        1.0  0.58100  0.14790  0.33300  1.0000 0.3402035853
H   H9        1.0  0.15660  0.69740  0.33900  1.0000 0.4192385247
H   H10       1.0  0.15660  0.80260  0.83900  1.0000 0.4192385247
H   H11       1.0  0.84340  0.30260  0.66100  1.0000 0.4192385247
H   H12       1.0  0.84340  0.19740  0.16100  1.0000 0.4192385247
C   C1        1.0  0.59210  0.87400  0.29810  1.0000 0.4808674177
C   C2        1.0  0.59210  0.62600  0.79810  1.0000 0.4808674177
C   C3        1.0  0.40790  0.12600  0.70190  1.0000 0.4808674177
C   C4        1.0  0.40790  0.37400  0.20190  1.0000 0.4808674177
C   C5        1.0  0.43050  0.87340  0.18610  1.0000 0.4892540296
C   C6        1.0  0.43050  0.62660  0.68610  1.0000 0.4892540296
C   C7        1.0  0.56950  0.12660  0.81390  1.0000 0.4892540296
C   C8        1.0  0.56950  0.37340  0.31390  1.0000 0.4892540296
O   O1        1.0  0.47190  0.61360  0.99130  1.0000 -0.696062389
O   O2        1.0  0.47190  0.88640  0.49130  1.0000 -0.6936242478
O   O3        1.0  0.52810  0.38640  0.00870  1.0000 -0.6936242478
O   O4        1.0  0.52810  0.11360  0.50870  1.0000 -0.6936242478
O   O5        1.0  0.14530  0.88800  0.26950  1.0000 -0.6936242478
O   O6        1.0  0.14530  0.61200  0.76950  1.0000 -0.6936242478
O   O7        1.0  0.85470  0.11200  0.73050  1.0000 -0.6936242478
O   O8        1.0  0.85470  0.38800  0.23050  1.0000 -0.6936242478
O   O9        1.0  0.62810  0.53160  0.17640  1.0000 -0.7119745741
O   O10       1.0  0.62810  0.96840  0.67640  1.0000 -0.7119745741
O   O11       1.0  0.37190  0.46840  0.82360  1.0000 -0.7119745741
O   O12       1.0  0.37190  0.03160  0.32360  1.0000 -0.7119745741
O   O13       1.0  0.34520  0.77790  0.83930  1.0000 -0.7384355421
O   O14       1.0  0.34520  0.72210  0.33930  1.0000 -0.7384355421
O   O15       1.0  0.65480  0.22210  0.16070  1.0000 -0.7384355421
O   O16       1.0  0.65480  0.27790  0.66070  1.0000 -0.7384355421
O   O17       1.0  0.59130  0.86630  0.37760  1.0000 -0.4268592501
O   O18       1.0  0.59130  0.63370  0.87760  1.0000 -0.4268592501
O   O19       1.0  0.40870  0.13370  0.62240  1.0000 -0.4268592501
O   O20       1.0  0.40870  0.36630  0.12240  1.0000 -0.4268592501
O   O21       1.0  0.31410  0.86820  0.18570  1.0000 -0.4268592501
O   O22       1.0  0.31410  0.63180  0.68570  1.0000 -0.4268592501
O   O23       1.0  0.68590  0.13180  0.81430  1.0000 -0.4268592501
O   O24       1.0  0.68590  0.36820  0.31430  1.0000 -0.4268592501
O   O25       1.0  0.88030  0.86600  0.21720  1.0000 -0.6782124469
O   O26       1.0  0.88030  0.63400  0.71720  1.0000 -0.6782124469
O   O27       1.0  0.11970  0.13400  0.78280  1.0000 -0.6782124469
O   O28       1.0  0.11970  0.36600  0.28280  1.0000 -0.6782124469
O   O29       1.0  0.58550  0.86930  0.00020  1.0000 -0.6936242478
O   O30       1.0  0.58550  0.63070  0.50020  1.0000 -0.696062389
O   O31       1.0  0.41450  0.13070  0.99980  1.0000 -0.6936242478
O   O32       1.0  0.41450  0.36930  0.49980  1.0000 -0.696062389
O   O33       1.0  0.64250  0.72230  0.15970  1.0000 -0.7384355421
O   O34       1.0  0.64250  0.77770  0.65970  1.0000 -0.7384355421
O   O35       1.0  0.35750  0.27770  0.84030  1.0000 -0.7384355421
O   O36       1.0  0.35750  0.22230  0.34030  1.0000 -0.7384355421
O   O37       1.0  0.34100  0.97040  0.85150  1.0000 -0.7475230525
O   O38       1.0  0.34100  0.52960  0.35150  1.0000 -0.7475230525
O   O39       1.0  0.65900  0.02960  0.14850  1.0000 -0.7475230525
O   O40       1.0  0.65900  0.47040  0.64850  1.0000 -0.7475230525
O   O41       1.0  0.42840  0.87970  0.10600  1.0000 -0.436235247
O   O42       1.0  0.42840  0.62030  0.60600  1.0000 -0.436235247
O   O43       1.0  0.57160  0.12030  0.89400  1.0000 -0.436235247
O   O44       1.0  0.57160  0.37970  0.39400  1.0000 -0.436235247
O   O45       1.0  0.70910  0.88210  0.30160  1.0000 -0.4133442546
O   O46       1.0  0.70910  0.61790  0.80160  1.0000 -0.4133442546
O   O47       1.0  0.29090  0.11790  0.69840  1.0000 -0.4133442546
O   O48       1.0  0.29090  0.38210  0.19840  1.0000 -0.4133442546
O   O49       1.0  0.52650  0.88490  0.82430  1.0000 -0.54412554
O   O50       1.0  0.52650  0.61510  0.32430  1.0000 -0.5455282757
O   O51       1.0  0.47350  0.11510  0.17570  1.0000 -0.54412554
O   O52       1.0  0.47350  0.38490  0.67570  1.0000 -0.5455282757
O   O53       1.0  0.38930  0.64010  0.10510  1.0000 -0.5286907683
O   O54       1.0  0.38930  0.85990  0.60510  1.0000 -0.5286907683
O   O55       1.0  0.61070  0.35990  0.89490  1.0000 -0.5248735378
O   O56       1.0  0.61070  0.14010  0.39490  1.0000 -0.5248735378
O   O57       1.0  0.06410  0.71510  0.29720  1.0000 -0.5286907683
O   O58       1.0  0.06410  0.78490  0.79720  1.0000 -0.5286907683
O   O59       1.0  0.93590  0.28490  0.70280  1.0000 -0.5286907683
O   O60       1.0  0.93590  0.21510  0.20280  1.0000 -0.5286907683
O   O61       1.0  0.11750  0.87160  0.41560  1.0000 -0.5907771418
O   O62       1.0  0.11750  0.62840  0.91560  1.0000 -0.5907771418
O   O63       1.0  0.88250  0.12840  0.58440  1.0000 -0.5907771418
O   O64       1.0  0.88250  0.37160  0.08440  1.0000 -0.5907771418
