# DDEC6 charges by PACMAN v1.1 (https://github.com/mtap-research/PACMAN-charge/)
data_1999[Co][crb]3[FSR]1
_chemical_formula_sum              "Co8 H44 C36 N16 O24"
_cell_length_a       13.6182
_cell_length_b       13.6182
_cell_length_c       13.6182
_cell_angle_alpha    105.722
_cell_angle_beta     105.722
_cell_angle_gamma    117.261

_symmetry_space_group_name_H-M    "P 1"
_symmetry_Int_Tables_number       1

loop_
  _symmetry_equiv_pos_as_xyz
  'x, y, z'

loop_
  _atom_site_type_symbol
  _atom_site_label
  _atom_site_symmetry_multiplicity
  _atom_site_fract_x
  _atom_site_fract_y
  _atom_site_fract_z
  _atom_site_occupancy
  _atom_site_charge
Co  Co1       1.0  0.27680  0.95360  0.01580  1.0000 0.9054566144
Co  Co2       1.0  0.26100  0.27680  0.32320  1.0000 0.9054566144
Co  Co3       1.0  0.95360  0.93780  0.67680  1.0000 0.9054566144
Co  Co4       1.0  0.06220  0.73900  0.01580  1.0000 0.9054566144
Co  Co5       1.0  0.72320  0.04640  0.98420  1.0000 0.9054566144
Co  Co6       1.0  0.73900  0.72320  0.67680  1.0000 0.9054566144
Co  Co7       1.0  0.04640  0.06220  0.32320  1.0000 0.9054566144
Co  Co8       1.0  0.93780  0.26100  0.98420  1.0000 0.9054566144
H   H1        1.0  0.85290  0.65530  0.87260  1.0000 0.3827219426
H   H2        1.0  0.98030  0.85290  0.19760  1.0000 0.3827219426
H   H3        1.0  0.65530  0.78270  0.80240  1.0000 0.3827219426
H   H4        1.0  0.21730  0.01970  0.87260  1.0000 0.3827219426
H   H5        1.0  0.14710  0.34470  0.12740  1.0000 0.3827219426
H   H6        1.0  0.01970  0.14710  0.80240  1.0000 0.3827219426
H   H7        1.0  0.34470  0.21730  0.19760  1.0000 0.3827219426
H   H8        1.0  0.78270  0.98030  0.12740  1.0000 0.3827219426
H   H9        1.0  0.07200  0.63300  0.35500  1.0000 0.1284464269
H   H10       1.0  0.71700  0.07200  0.43900  1.0000 0.1284464269
H   H11       1.0  0.63300  0.27800  0.56100  1.0000 0.1284464269
H   H12       1.0  0.72200  0.28300  0.35500  1.0000 0.1284464269
H   H13       1.0  0.92800  0.36700  0.64500  1.0000 0.1284464269
H   H14       1.0  0.28300  0.92800  0.56100  1.0000 0.1284464269
H   H15       1.0  0.36700  0.72200  0.43900  1.0000 0.1284464269
H   H16       1.0  0.27800  0.71700  0.64500  1.0000 0.1284464269
H   H17       1.0  0.26190  0.76750  0.02940  1.0000 0.3555835156
H   H18       1.0  0.23250  0.26190  0.49440  1.0000 0.3555835156
H   H19       1.0  0.76750  0.73810  0.50560  1.0000 0.3555835156
H   H20       1.0  0.73810  0.23250  0.97060  1.0000 0.3555835156
H   H21       1.0  0.08900  0.76100  0.26800  1.0000 0.0994098118
H   H22       1.0  0.82100  0.08900  0.32800  1.0000 0.0994098118
H   H23       1.0  0.76100  0.49300  0.67200  1.0000 0.0994098118
H   H24       1.0  0.50700  0.17900  0.26800  1.0000 0.0994098118
H   H25       1.0  0.91100  0.23900  0.73200  1.0000 0.0994098118
H   H26       1.0  0.17900  0.91100  0.67200  1.0000 0.0994098118
H   H27       1.0  0.23900  0.50700  0.32800  1.0000 0.0994098118
H   H28       1.0  0.49300  0.82100  0.73200  1.0000 0.0994098118
H   H29       1.0  0.79820  0.58840  0.93620  1.0000 0.3907968371
H   H30       1.0  0.86200  0.79820  0.20980  1.0000 0.3907968371
H   H31       1.0  0.58840  0.65220  0.79020  1.0000 0.3907968371
H   H32       1.0  0.34780  0.13800  0.93620  1.0000 0.3907968371
H   H33       1.0  0.20180  0.41160  0.06380  1.0000 0.3907968371
H   H34       1.0  0.13800  0.20180  0.79020  1.0000 0.3907968371
H   H35       1.0  0.41160  0.34780  0.20980  1.0000 0.3907968371
H   H36       1.0  0.65220  0.86200  0.06380  1.0000 0.3907968371
H   H37       1.0  0.00130  0.42790  0.24720  1.0000 0.0994098118
H   H38       1.0  0.75410  0.00130  0.57340  1.0000 0.0994098118
H   H39       1.0  0.42790  0.18070  0.42660  1.0000 0.0994098118
H   H40       1.0  0.81930  0.24590  0.24720  1.0000 0.0994098118
H   H41       1.0  0.99870  0.57210  0.75280  1.0000 0.0994098118
H   H42       1.0  0.24590  0.99870  0.42660  1.0000 0.0994098118
H   H43       1.0  0.57210  0.81930  0.57340  1.0000 0.0994098118
H   H44       1.0  0.18070  0.75410  0.75280  1.0000 0.0994098118
C   C1        1.0  0.17700  0.00500  0.18200  1.0000 0.8037638633
C   C2        1.0  0.99500  0.17700  0.17200  1.0000 0.8037638633
C   C3        1.0  0.00500  0.82300  0.82800  1.0000 0.8037638633
C   C4        1.0  0.82300  0.99500  0.81800  1.0000 0.8037638633
C   C5        1.0  0.98800  0.51670  0.78670  1.0000 0.0742739036
C   C6        1.0  0.20130  0.98800  0.47130  1.0000 0.0742739036
C   C7        1.0  0.51670  0.73000  0.52870  1.0000 0.0742739036
C   C8        1.0  0.27000  0.79870  0.78670  1.0000 0.0742739036
C   C9        1.0  0.01200  0.48330  0.21330  1.0000 0.0742739036
C   C10       1.0  0.79870  0.01200  0.52870  1.0000 0.0742739036
C   C11       1.0  0.48330  0.27000  0.47130  1.0000 0.0742739036
C   C12       1.0  0.73000  0.20130  0.21330  1.0000 0.0742739036
C   C13       1.0  0.94400  0.39500  0.72300  1.0000 -0.2191032873
C   C14       1.0  0.22100  0.94400  0.54900  1.0000 -0.2191032873
C   C15       1.0  0.39500  0.67200  0.45100  1.0000 -0.2191032873
C   C16       1.0  0.32800  0.77900  0.72300  1.0000 -0.2191032873
C   C17       1.0  0.05600  0.60500  0.27700  1.0000 -0.2191032873
C   C18       1.0  0.77900  0.05600  0.45100  1.0000 -0.2191032873
C   C19       1.0  0.60500  0.32800  0.54900  1.0000 -0.2191032873
C   C20       1.0  0.67200  0.22100  0.27700  1.0000 -0.2191032873
C   C21       1.0  0.93600  0.32300  0.77500  1.0000 0.0825632156
C   C22       1.0  0.16100  0.93600  0.61300  1.0000 0.0825632156
C   C23       1.0  0.32300  0.54800  0.38700  1.0000 0.0825632156
C   C24       1.0  0.45200  0.83900  0.77500  1.0000 0.0825632156
C   C25       1.0  0.06400  0.67700  0.22500  1.0000 0.0825632156
C   C26       1.0  0.83900  0.06400  0.38700  1.0000 0.0825632156
C   C27       1.0  0.67700  0.45200  0.61300  1.0000 0.0825632156
C   C28       1.0  0.54800  0.16100  0.22500  1.0000 0.0825632156
C   C29       1.0  0.00870  0.52120  0.05930  1.0000 0.2542422718
C   C30       1.0  0.94940  0.00870  0.48750  1.0000 0.2542422718
C   C31       1.0  0.52120  0.46190  0.51250  1.0000 0.2542422718
C   C32       1.0  0.53810  0.05060  0.05930  1.0000 0.2542422718
C   C33       1.0  0.99130  0.47880  0.94070  1.0000 0.2542422718
C   C34       1.0  0.05060  0.99130  0.51250  1.0000 0.2542422718
C   C35       1.0  0.47880  0.53810  0.48750  1.0000 0.2542422718
C   C36       1.0  0.46190  0.94940  0.94070  1.0000 0.2542422718
N   N1        1.0  0.00690  0.55590  0.89640  1.0000 -0.3334726424
N   N2        1.0  0.11050  0.00690  0.45100  1.0000 -0.3334726424
N   N3        1.0  0.55590  0.65950  0.54900  1.0000 -0.3334726424
N   N4        1.0  0.34050  0.88950  0.89640  1.0000 -0.3334726424
N   N5        1.0  0.99310  0.44410  0.10360  1.0000 -0.3334726424
N   N6        1.0  0.88950  0.99310  0.54900  1.0000 -0.3334726424
N   N7        1.0  0.44410  0.34050  0.45100  1.0000 -0.3334726424
N   N8        1.0  0.65950  0.11050  0.10360  1.0000 -0.3334726424
N   N9        1.0  0.95700  0.36230  0.88470  1.0000 -0.320566892
N   N10       1.0  0.07230  0.95700  0.59470  1.0000 -0.320566892
N   N11       1.0  0.36230  0.47760  0.40530  1.0000 -0.320566892
N   N12       1.0  0.52240  0.92770  0.88470  1.0000 -0.320566892
N   N13       1.0  0.04300  0.63770  0.11530  1.0000 -0.320566892
N   N14       1.0  0.92770  0.04300  0.40530  1.0000 -0.320566892
N   N15       1.0  0.63770  0.52240  0.59470  1.0000 -0.320566892
N   N16       1.0  0.47760  0.07230  0.11530  1.0000 -0.320566892
O   O1        1.0  0.24660  0.81660  0.06320  1.0000 -0.8816681386
O   O2        1.0  0.18340  0.24660  0.43000  1.0000 -0.8816681386
O   O3        1.0  0.81660  0.75340  0.57000  1.0000 -0.8816681386
O   O4        1.0  0.75340  0.18340  0.93680  1.0000 -0.8816681386
O   O5        1.0  0.87400  0.67010  0.95310  1.0000 -0.7366032631
O   O6        1.0  0.92090  0.87400  0.20390  1.0000 -0.7366032631
O   O7        1.0  0.67010  0.71700  0.79610  1.0000 -0.7366032631
O   O8        1.0  0.28300  0.07910  0.95310  1.0000 -0.7366032631
O   O9        1.0  0.12600  0.32990  0.04690  1.0000 -0.7366032631
O   O10       1.0  0.07910  0.12600  0.79610  1.0000 -0.7366032631
O   O11       1.0  0.32990  0.28300  0.20390  1.0000 -0.7366032631
O   O12       1.0  0.71700  0.92090  0.04690  1.0000 -0.7366032631
O   O13       1.0  0.17730  0.08430  0.26160  1.0000 -0.6679650278
O   O14       1.0  0.91570  0.17730  0.09300  1.0000 -0.6679650278
O   O15       1.0  0.08430  0.82270  0.90700  1.0000 -0.6679650278
O   O16       1.0  0.82270  0.91570  0.73840  1.0000 -0.6679650278
O   O17       1.0  0.09770  0.88960  0.14490  1.0000 -0.6124318571
O   O18       1.0  0.95280  0.09770  0.20810  1.0000 -0.6124318571
O   O19       1.0  0.88960  0.74470  0.79190  1.0000 -0.6124318571
O   O20       1.0  0.25530  0.04720  0.14490  1.0000 -0.6124318571
O   O21       1.0  0.90230  0.11040  0.85510  1.0000 -0.6124318571
O   O22       1.0  0.04720  0.90230  0.79190  1.0000 -0.6124318571
O   O23       1.0  0.11040  0.25530  0.20810  1.0000 -0.6124318571
O   O24       1.0  0.74470  0.95280  0.85510  1.0000 -0.6124318571
