# DDEC6 charges by PACMAN v1.1 (https://github.com/mtap-research/PACMAN-charge/)
data_2000[Cu][sod]3[FSR]1
_chemical_formula_sum              "Cu12 H72 C96 N48 O24"
_cell_length_a       15.76
_cell_length_b       15.76
_cell_length_c       15.76
_cell_angle_alpha    90
_cell_angle_beta     90
_cell_angle_gamma    90

_symmetry_space_group_name_H-M    "P 1"
_symmetry_Int_Tables_number       1

loop_
  _symmetry_equiv_pos_as_xyz
  'x, y, z'

loop_
  _atom_site_type_symbol
  _atom_site_label
  _atom_site_symmetry_multiplicity
  _atom_site_fract_x
  _atom_site_fract_y
  _atom_site_fract_z
  _atom_site_occupancy
  _atom_site_charge
Cu  Cu1       1.0  0.25000  0.50000  0.00000  1.0000 0.6990172336
Cu  Cu2       1.0  0.00000  0.25000  0.50000  1.0000 0.6990172336
Cu  Cu3       1.0  0.50000  0.00000  0.25000  1.0000 0.6990172336
Cu  Cu4       1.0  0.00000  0.75000  0.50000  1.0000 0.6990172336
Cu  Cu5       1.0  0.75000  0.50000  0.00000  1.0000 0.6990172336
Cu  Cu6       1.0  0.50000  0.00000  0.75000  1.0000 0.6990172336
Cu  Cu7       1.0  0.75000  0.00000  0.50000  1.0000 0.6990172336
Cu  Cu8       1.0  0.25000  0.00000  0.50000  1.0000 0.6990172336
Cu  Cu9       1.0  0.50000  0.75000  0.00000  1.0000 0.6990172336
Cu  Cu10      1.0  0.50000  0.25000  0.00000  1.0000 0.6990172336
Cu  Cu11      1.0  0.00000  0.50000  0.75000  1.0000 0.6990172336
Cu  Cu12      1.0  0.00000  0.50000  0.25000  1.0000 0.6990172336
H   H1        1.0  0.06400  0.74700  0.93600  1.0000 0.1333467483
H   H2        1.0  0.93600  0.06400  0.74700  1.0000 0.1333467483
H   H3        1.0  0.74700  0.93600  0.06400  1.0000 0.1333467483
H   H4        1.0  0.24700  0.56400  0.56400  1.0000 0.1333467483
H   H5        1.0  0.24700  0.43600  0.43600  1.0000 0.1333467483
H   H6        1.0  0.75300  0.56400  0.43600  1.0000 0.1333467483
H   H7        1.0  0.56400  0.43600  0.75300  1.0000 0.1333467483
H   H8        1.0  0.43600  0.43600  0.24700  1.0000 0.1333467483
H   H9        1.0  0.56400  0.56400  0.24700  1.0000 0.1333467483
H   H10       1.0  0.43600  0.24700  0.43600  1.0000 0.1333467483
H   H11       1.0  0.43600  0.75300  0.56400  1.0000 0.1333467483
H   H12       1.0  0.56400  0.24700  0.56400  1.0000 0.1333467483
H   H13       1.0  0.56400  0.75300  0.43600  1.0000 0.1333467483
H   H14       1.0  0.43600  0.56400  0.75300  1.0000 0.1333467483
H   H15       1.0  0.75300  0.43600  0.56400  1.0000 0.1333467483
H   H16       1.0  0.74700  0.06400  0.93600  1.0000 0.1333467483
H   H17       1.0  0.06400  0.93600  0.74700  1.0000 0.1333467483
H   H18       1.0  0.93600  0.74700  0.06400  1.0000 0.1333467483
H   H19       1.0  0.25300  0.93600  0.93600  1.0000 0.1333467483
H   H20       1.0  0.25300  0.06400  0.06400  1.0000 0.1333467483
H   H21       1.0  0.06400  0.06400  0.25300  1.0000 0.1333467483
H   H22       1.0  0.93600  0.93600  0.25300  1.0000 0.1333467483
H   H23       1.0  0.06400  0.25300  0.06400  1.0000 0.1333467483
H   H24       1.0  0.93600  0.25300  0.93600  1.0000 0.1333467483
H   H25       1.0  0.17030  0.67610  0.00770  1.0000 0.1132112617
H   H26       1.0  0.00770  0.17030  0.67610  1.0000 0.1132112617
H   H27       1.0  0.67610  0.00770  0.17030  1.0000 0.1132112617
H   H28       1.0  0.17610  0.67030  0.49230  1.0000 0.1132112617
H   H29       1.0  0.17610  0.32970  0.50770  1.0000 0.1132112617
H   H30       1.0  0.82390  0.67030  0.50770  1.0000 0.1132112617
H   H31       1.0  0.67030  0.50770  0.82390  1.0000 0.1132112617
H   H32       1.0  0.32970  0.50770  0.17610  1.0000 0.1132112617
H   H33       1.0  0.67030  0.49230  0.17610  1.0000 0.1132112617
H   H34       1.0  0.50770  0.17610  0.32970  1.0000 0.1132112617
H   H35       1.0  0.50770  0.82390  0.67030  1.0000 0.1132112617
H   H36       1.0  0.49230  0.17610  0.67030  1.0000 0.1132112617
H   H37       1.0  0.67030  0.17610  0.49230  1.0000 0.1132112617
H   H38       1.0  0.67030  0.82390  0.50770  1.0000 0.1132112617
H   H39       1.0  0.32970  0.17610  0.50770  1.0000 0.1132112617
H   H40       1.0  0.49230  0.67030  0.17610  1.0000 0.1132112617
H   H41       1.0  0.50770  0.67030  0.82390  1.0000 0.1132112617
H   H42       1.0  0.50770  0.32970  0.17610  1.0000 0.1132112617
H   H43       1.0  0.17610  0.49230  0.67030  1.0000 0.1132112617
H   H44       1.0  0.82390  0.50770  0.67030  1.0000 0.1132112617
H   H45       1.0  0.17610  0.50770  0.32970  1.0000 0.1132112617
H   H46       1.0  0.67610  0.17030  0.00770  1.0000 0.1132112617
H   H47       1.0  0.17030  0.00770  0.67610  1.0000 0.1132112617
H   H48       1.0  0.00770  0.67610  0.17030  1.0000 0.1132112617
H   H49       1.0  0.32970  0.82390  0.49230  1.0000 0.1132112617
H   H50       1.0  0.49230  0.32970  0.82390  1.0000 0.1132112617
H   H51       1.0  0.82390  0.49230  0.32970  1.0000 0.1132112617
H   H52       1.0  0.32390  0.82970  0.00770  1.0000 0.1132112617
H   H53       1.0  0.32390  0.17030  0.99230  1.0000 0.1132112617
H   H54       1.0  0.67610  0.82970  0.99230  1.0000 0.1132112617
H   H55       1.0  0.82970  0.99230  0.67610  1.0000 0.1132112617
H   H56       1.0  0.17030  0.99230  0.32390  1.0000 0.1132112617
H   H57       1.0  0.82970  0.00770  0.32390  1.0000 0.1132112617
H   H58       1.0  0.99230  0.32390  0.17030  1.0000 0.1132112617
H   H59       1.0  0.99230  0.67610  0.82970  1.0000 0.1132112617
H   H60       1.0  0.00770  0.32390  0.82970  1.0000 0.1132112617
H   H61       1.0  0.82970  0.32390  0.00770  1.0000 0.1132112617
H   H62       1.0  0.82970  0.67610  0.99230  1.0000 0.1132112617
H   H63       1.0  0.17030  0.32390  0.99230  1.0000 0.1132112617
H   H64       1.0  0.00770  0.82970  0.32390  1.0000 0.1132112617
H   H65       1.0  0.99230  0.82970  0.67610  1.0000 0.1132112617
H   H66       1.0  0.99230  0.17030  0.32390  1.0000 0.1132112617
H   H67       1.0  0.32390  0.00770  0.82970  1.0000 0.1132112617
H   H68       1.0  0.67610  0.99230  0.82970  1.0000 0.1132112617
H   H69       1.0  0.32390  0.99230  0.17030  1.0000 0.1132112617
H   H70       1.0  0.82390  0.32970  0.49230  1.0000 0.1132112617
H   H71       1.0  0.32970  0.49230  0.82390  1.0000 0.1132112617
H   H72       1.0  0.49230  0.82390  0.32970  1.0000 0.1132112617
C   C1        1.0  0.12220  0.53120  0.87780  1.0000 0.5922617981
C   C2        1.0  0.87780  0.12220  0.53120  1.0000 0.5922617981
C   C3        1.0  0.53120  0.87780  0.12220  1.0000 0.5922617981
C   C4        1.0  0.03120  0.62220  0.62220  1.0000 0.5922617981
C   C5        1.0  0.03120  0.37780  0.37780  1.0000 0.5922617981
C   C6        1.0  0.96880  0.62220  0.37780  1.0000 0.5922617981
C   C7        1.0  0.62220  0.37780  0.96880  1.0000 0.5922617981
C   C8        1.0  0.37780  0.37780  0.03120  1.0000 0.5922617981
C   C9        1.0  0.62220  0.62220  0.03120  1.0000 0.5922617981
C   C10       1.0  0.37780  0.03120  0.37780  1.0000 0.5922617981
C   C11       1.0  0.37780  0.96880  0.62220  1.0000 0.5922617981
C   C12       1.0  0.62220  0.03120  0.62220  1.0000 0.5922617981
C   C13       1.0  0.62220  0.96880  0.37780  1.0000 0.5922617981
C   C14       1.0  0.37780  0.62220  0.96880  1.0000 0.5922617981
C   C15       1.0  0.96880  0.37780  0.62220  1.0000 0.5922617981
C   C16       1.0  0.53120  0.12220  0.87780  1.0000 0.5922617981
C   C17       1.0  0.12220  0.87780  0.53120  1.0000 0.5922617981
C   C18       1.0  0.87780  0.53120  0.12220  1.0000 0.5922617981
C   C19       1.0  0.46880  0.87780  0.87780  1.0000 0.5922617981
C   C20       1.0  0.46880  0.12220  0.12220  1.0000 0.5922617981
C   C21       1.0  0.12220  0.12220  0.46880  1.0000 0.5922617981
C   C22       1.0  0.87780  0.87780  0.46880  1.0000 0.5922617981
C   C23       1.0  0.12220  0.46880  0.12220  1.0000 0.5922617981
C   C24       1.0  0.87780  0.46880  0.87780  1.0000 0.5922617981
C   C25       1.0  0.07870  0.69270  0.92130  1.0000 -0.2677660615
C   C26       1.0  0.92130  0.07870  0.69270  1.0000 -0.2677660615
C   C27       1.0  0.69270  0.92130  0.07870  1.0000 -0.2677660615
C   C28       1.0  0.19270  0.57870  0.57870  1.0000 -0.2677660615
C   C29       1.0  0.19270  0.42130  0.42130  1.0000 -0.2677660615
C   C30       1.0  0.80730  0.57870  0.42130  1.0000 -0.2677660615
C   C31       1.0  0.57870  0.42130  0.80730  1.0000 -0.2677660615
C   C32       1.0  0.42130  0.42130  0.19270  1.0000 -0.2677660615
C   C33       1.0  0.57870  0.57870  0.19270  1.0000 -0.2677660615
C   C34       1.0  0.42130  0.19270  0.42130  1.0000 -0.2677660615
C   C35       1.0  0.42130  0.80730  0.57870  1.0000 -0.2677660615
C   C36       1.0  0.57870  0.19270  0.57870  1.0000 -0.2677660615
C   C37       1.0  0.57870  0.80730  0.42130  1.0000 -0.2677660615
C   C38       1.0  0.42130  0.57870  0.80730  1.0000 -0.2677660615
C   C39       1.0  0.80730  0.42130  0.57870  1.0000 -0.2677660615
C   C40       1.0  0.69270  0.07870  0.92130  1.0000 -0.2677660615
C   C41       1.0  0.07870  0.92130  0.69270  1.0000 -0.2677660615
C   C42       1.0  0.92130  0.69270  0.07870  1.0000 -0.2677660615
C   C43       1.0  0.30730  0.92130  0.92130  1.0000 -0.2677660615
C   C44       1.0  0.30730  0.07870  0.07870  1.0000 -0.2677660615
C   C45       1.0  0.07870  0.07870  0.30730  1.0000 -0.2677660615
C   C46       1.0  0.92130  0.92130  0.30730  1.0000 -0.2677660615
C   C47       1.0  0.07870  0.30730  0.07870  1.0000 -0.2677660615
C   C48       1.0  0.92130  0.30730  0.92130  1.0000 -0.2677660615
C   C49       1.0  0.14140  0.64920  0.96380  1.0000 0.1373397354
C   C50       1.0  0.96380  0.14140  0.64920  1.0000 0.1373397354
C   C51       1.0  0.64920  0.96380  0.14140  1.0000 0.1373397354
C   C52       1.0  0.14920  0.64140  0.53620  1.0000 0.1373397354
C   C53       1.0  0.14920  0.35860  0.46380  1.0000 0.1373397354
C   C54       1.0  0.85080  0.64140  0.46380  1.0000 0.1373397354
C   C55       1.0  0.64140  0.46380  0.85080  1.0000 0.1373397354
C   C56       1.0  0.35860  0.46380  0.14920  1.0000 0.1373397354
C   C57       1.0  0.64140  0.53620  0.14920  1.0000 0.1373397354
C   C58       1.0  0.46380  0.14920  0.35860  1.0000 0.1373397354
C   C59       1.0  0.46380  0.85080  0.64140  1.0000 0.1373397354
C   C60       1.0  0.53620  0.14920  0.64140  1.0000 0.1373397354
C   C61       1.0  0.64140  0.14920  0.53620  1.0000 0.1373397354
C   C62       1.0  0.64140  0.85080  0.46380  1.0000 0.1373397354
C   C63       1.0  0.35860  0.14920  0.46380  1.0000 0.1373397354
C   C64       1.0  0.53620  0.64140  0.14920  1.0000 0.1373397354
C   C65       1.0  0.46380  0.64140  0.85080  1.0000 0.1373397354
C   C66       1.0  0.46380  0.35860  0.14920  1.0000 0.1373397354
C   C67       1.0  0.14920  0.53620  0.64140  1.0000 0.1373397354
C   C68       1.0  0.85080  0.46380  0.64140  1.0000 0.1373397354
C   C69       1.0  0.14920  0.46380  0.35860  1.0000 0.1373397354
C   C70       1.0  0.64920  0.14140  0.96380  1.0000 0.1373397354
C   C71       1.0  0.14140  0.96380  0.64920  1.0000 0.1373397354
C   C72       1.0  0.96380  0.64920  0.14140  1.0000 0.1373397354
C   C73       1.0  0.35860  0.85080  0.53620  1.0000 0.1373397354
C   C74       1.0  0.53620  0.35860  0.85080  1.0000 0.1373397354
C   C75       1.0  0.85080  0.53620  0.35860  1.0000 0.1373397354
C   C76       1.0  0.35080  0.85860  0.96380  1.0000 0.1373397354
C   C77       1.0  0.35080  0.14140  0.03620  1.0000 0.1373397354
C   C78       1.0  0.64920  0.85860  0.03620  1.0000 0.1373397354
C   C79       1.0  0.85860  0.03620  0.64920  1.0000 0.1373397354
C   C80       1.0  0.14140  0.03620  0.35080  1.0000 0.1373397354
C   C81       1.0  0.85860  0.96380  0.35080  1.0000 0.1373397354
C   C82       1.0  0.03620  0.35080  0.14140  1.0000 0.1373397354
C   C83       1.0  0.03620  0.64920  0.85860  1.0000 0.1373397354
C   C84       1.0  0.96380  0.35080  0.85860  1.0000 0.1373397354
C   C85       1.0  0.85860  0.35080  0.96380  1.0000 0.1373397354
C   C86       1.0  0.85860  0.64920  0.03620  1.0000 0.1373397354
C   C87       1.0  0.14140  0.35080  0.03620  1.0000 0.1373397354
C   C88       1.0  0.96380  0.85860  0.35080  1.0000 0.1373397354
C   C89       1.0  0.03620  0.85860  0.64920  1.0000 0.1373397354
C   C90       1.0  0.03620  0.14140  0.35080  1.0000 0.1373397354
C   C91       1.0  0.35080  0.96380  0.85860  1.0000 0.1373397354
C   C92       1.0  0.64920  0.03620  0.85860  1.0000 0.1373397354
C   C93       1.0  0.35080  0.03620  0.14140  1.0000 0.1373397354
C   C94       1.0  0.85080  0.35860  0.53620  1.0000 0.1373397354
C   C95       1.0  0.35860  0.53620  0.85080  1.0000 0.1373397354
C   C96       1.0  0.53620  0.85080  0.35860  1.0000 0.1373397354
N   N1        1.0  0.16160  0.57050  0.94400  1.0000 -0.3665370618
N   N2        1.0  0.94400  0.16160  0.57050  1.0000 -0.3665370618
N   N3        1.0  0.57050  0.94400  0.16160  1.0000 -0.3665370618
N   N4        1.0  0.07050  0.66160  0.55600  1.0000 -0.3665370618
N   N5        1.0  0.07050  0.33840  0.44400  1.0000 -0.3665370618
N   N6        1.0  0.92950  0.66160  0.44400  1.0000 -0.3665370618
N   N7        1.0  0.66160  0.44400  0.92950  1.0000 -0.3665370618
N   N8        1.0  0.33840  0.44400  0.07050  1.0000 -0.3665370618
N   N9        1.0  0.66160  0.55600  0.07050  1.0000 -0.3665370618
N   N10       1.0  0.44400  0.07050  0.33840  1.0000 -0.3665370618
N   N11       1.0  0.44400  0.92950  0.66160  1.0000 -0.3665370618
N   N12       1.0  0.55600  0.07050  0.66160  1.0000 -0.3665370618
N   N13       1.0  0.66160  0.07050  0.55600  1.0000 -0.3665370618
N   N14       1.0  0.66160  0.92950  0.44400  1.0000 -0.3665370618
N   N15       1.0  0.33840  0.07050  0.44400  1.0000 -0.3665370618
N   N16       1.0  0.55600  0.66160  0.07050  1.0000 -0.3665370618
N   N17       1.0  0.44400  0.66160  0.92950  1.0000 -0.3665370618
N   N18       1.0  0.44400  0.33840  0.07050  1.0000 -0.3665370618
N   N19       1.0  0.07050  0.55600  0.66160  1.0000 -0.3665370618
N   N20       1.0  0.92950  0.44400  0.66160  1.0000 -0.3665370618
N   N21       1.0  0.07050  0.44400  0.33840  1.0000 -0.3665370618
N   N22       1.0  0.57050  0.16160  0.94400  1.0000 -0.3665370618
N   N23       1.0  0.16160  0.94400  0.57050  1.0000 -0.3665370618
N   N24       1.0  0.94400  0.57050  0.16160  1.0000 -0.3665370618
N   N25       1.0  0.33840  0.92950  0.55600  1.0000 -0.3665370618
N   N26       1.0  0.55600  0.33840  0.92950  1.0000 -0.3665370618
N   N27       1.0  0.92950  0.55600  0.33840  1.0000 -0.3665370618
N   N28       1.0  0.42950  0.83840  0.94400  1.0000 -0.3665370618
N   N29       1.0  0.42950  0.16160  0.05600  1.0000 -0.3665370618
N   N30       1.0  0.57050  0.83840  0.05600  1.0000 -0.3665370618
N   N31       1.0  0.83840  0.05600  0.57050  1.0000 -0.3665370618
N   N32       1.0  0.16160  0.05600  0.42950  1.0000 -0.3665370618
N   N33       1.0  0.83840  0.94400  0.42950  1.0000 -0.3665370618
N   N34       1.0  0.05600  0.42950  0.16160  1.0000 -0.3665370618
N   N35       1.0  0.05600  0.57050  0.83840  1.0000 -0.3665370618
N   N36       1.0  0.94400  0.42950  0.83840  1.0000 -0.3665370618
N   N37       1.0  0.83840  0.42950  0.94400  1.0000 -0.3665370618
N   N38       1.0  0.83840  0.57050  0.05600  1.0000 -0.3665370618
N   N39       1.0  0.16160  0.42950  0.05600  1.0000 -0.3665370618
N   N40       1.0  0.94400  0.83840  0.42950  1.0000 -0.3665370618
N   N41       1.0  0.05600  0.83840  0.57050  1.0000 -0.3665370618
N   N42       1.0  0.05600  0.16160  0.42950  1.0000 -0.3665370618
N   N43       1.0  0.42950  0.94400  0.83840  1.0000 -0.3665370618
N   N44       1.0  0.57050  0.05600  0.83840  1.0000 -0.3665370618
N   N45       1.0  0.42950  0.05600  0.16160  1.0000 -0.3665370618
N   N46       1.0  0.92950  0.33840  0.55600  1.0000 -0.3665370618
N   N47       1.0  0.33840  0.55600  0.92950  1.0000 -0.3665370618
N   N48       1.0  0.55600  0.92950  0.33840  1.0000 -0.3665370618
O   O1        1.0  0.14580  0.45920  0.85420  1.0000 -0.5754735799
O   O2        1.0  0.85420  0.14580  0.45920  1.0000 -0.5754735799
O   O3        1.0  0.45920  0.85420  0.14580  1.0000 -0.5754735799
O   O4        1.0  0.95920  0.64580  0.64580  1.0000 -0.5747167201
O   O5        1.0  0.95920  0.35420  0.35420  1.0000 -0.5754735799
O   O6        1.0  0.04080  0.64580  0.35420  1.0000 -0.5754735799
O   O7        1.0  0.64580  0.35420  0.04080  1.0000 -0.5754735799
O   O8        1.0  0.35420  0.35420  0.95920  1.0000 -0.5754735799
O   O9        1.0  0.64580  0.64580  0.95920  1.0000 -0.5747167201
O   O10       1.0  0.35420  0.95920  0.35420  1.0000 -0.5754735799
O   O11       1.0  0.35420  0.04080  0.64580  1.0000 -0.5754735799
O   O12       1.0  0.64580  0.95920  0.64580  1.0000 -0.5754735799
O   O13       1.0  0.64580  0.04080  0.35420  1.0000 -0.5754735799
O   O14       1.0  0.35420  0.64580  0.04080  1.0000 -0.5754735799
O   O15       1.0  0.04080  0.35420  0.64580  1.0000 -0.5754735799
O   O16       1.0  0.45920  0.14580  0.85420  1.0000 -0.5754735799
O   O17       1.0  0.14580  0.85420  0.45920  1.0000 -0.5754735799
O   O18       1.0  0.85420  0.45920  0.14580  1.0000 -0.5754735799
O   O19       1.0  0.54080  0.85420  0.85420  1.0000 -0.5754735799
O   O20       1.0  0.54080  0.14580  0.14580  1.0000 -0.5747167201
O   O21       1.0  0.14580  0.14580  0.54080  1.0000 -0.5754735799
O   O22       1.0  0.85420  0.85420  0.54080  1.0000 -0.5754735799
O   O23       1.0  0.14580  0.54080  0.14580  1.0000 -0.5754735799
O   O24       1.0  0.85420  0.54080  0.85420  1.0000 -0.5754735799
