# DDEC6 charges by PACMAN v1.1 (https://github.com/mtap-research/PACMAN-charge/)
data_2000[Cu][pts]3[FSR]3
_chemical_formula_sum              "Cu4 H28 C40 I4 N8"
_cell_length_a       10.0916
_cell_length_b       10.0916
_cell_length_c       16.4373
_cell_angle_alpha    84.0737
_cell_angle_beta     95.9263
_cell_angle_gamma    87.6384

_symmetry_space_group_name_H-M    "P 1"
_symmetry_Int_Tables_number       1

loop_
  _symmetry_equiv_pos_as_xyz
  'x, y, z'

loop_
  _atom_site_type_symbol
  _atom_site_label
  _atom_site_symmetry_multiplicity
  _atom_site_fract_x
  _atom_site_fract_y
  _atom_site_fract_z
  _atom_site_occupancy
  _atom_site_charge
Cu  Cu1       1.0  0.06451  0.26009  0.82788  1.0000 0.2099539061
Cu  Cu2       1.0  0.73991  0.93549  0.32788  1.0000 0.2099539061
Cu  Cu3       1.0  0.23701  0.43915  0.79130  1.0000 0.2190600802
Cu  Cu4       1.0  0.56085  0.76299  0.29130  1.0000 0.2190600802
H   H1        1.0  0.01860  0.09920  0.69120  1.0000 0.1097048606
H   H2        1.0  0.90080  0.98140  0.19120  1.0000 0.1097048606
H   H3        1.0  0.62980  0.12360  0.59720  1.0000 0.1199745406
H   H4        1.0  0.87640  0.37020  0.09720  1.0000 0.1199745406
H   H5        1.0  0.58150  0.27370  0.69070  1.0000 0.1199745406
H   H6        1.0  0.72630  0.41850  0.19070  1.0000 0.1199745406
H   H7        1.0  0.75160  0.33660  0.78460  1.0000 0.1009678143
H   H8        1.0  0.66340  0.24840  0.28460  1.0000 0.1009678143
H   H9        1.0  0.74620  0.07820  0.47510  1.0000 0.1009678143
H   H10       1.0  0.92180  0.25380  0.97510  1.0000 0.1009678143
H   H11       1.0  0.00820  0.88780  0.65750  1.0000 0.1199745406
H   H12       1.0  0.11220  0.99180  0.15750  1.0000 0.1199745406
H   H13       1.0  0.97010  0.75510  0.43220  1.0000 0.1097048606
H   H14       1.0  0.24490  0.02990  0.93220  1.0000 0.1097048606
H   H15       1.0  0.07120  0.65720  0.69100  1.0000 0.1097048606
H   H16       1.0  0.34280  0.92880  0.19100  1.0000 0.1097048606
H   H17       1.0  0.18730  0.71430  0.46170  1.0000 0.1199745406
H   H18       1.0  0.28570  0.81270  0.96170  1.0000 0.1199745406
H   H19       1.0  0.37840  0.42940  0.62990  1.0000 0.1009678143
H   H20       1.0  0.57060  0.62160  0.12990  1.0000 0.1009678143
H   H21       1.0  0.38230  0.72570  0.42930  1.0000 0.1097048606
H   H22       1.0  0.27430  0.61770  0.92930  1.0000 0.1097048606
H   H23       1.0  0.43080  0.33820  0.52530  1.0000 0.1199745406
H   H24       1.0  0.66180  0.56920  0.02530  1.0000 0.1199745406
H   H25       1.0  0.59030  0.30110  0.43520  1.0000 0.1283410286
H   H26       1.0  0.69890  0.40970  0.93520  1.0000 0.1283410286
H   H27       1.0  0.64570  0.47630  0.34220  1.0000 0.1009678143
H   H28       1.0  0.52370  0.35430  0.84220  1.0000 0.1009678143
C   C1        1.0  0.92980  0.13460  0.69110  1.0000 -0.0068582411
C   C2        1.0  0.86540  0.07020  0.19110  1.0000 -0.0068582411
C   C3        1.0  0.82870  0.09730  0.63540  1.0000 0.0416585628
C   C4        1.0  0.90270  0.17130  0.13540  1.0000 0.0416585628
C   C5        1.0  0.69890  0.14910  0.63530  1.0000 -0.1113321258
C   C6        1.0  0.85090  0.30110  0.13530  1.0000 -0.1113321258
C   C7        1.0  0.67030  0.23830  0.69080  1.0000 -0.1333197932
C   C8        1.0  0.76170  0.32970  0.19080  1.0000 -0.1333197932
C   C9        1.0  0.77130  0.27570  0.74660  1.0000 0.05763964
C   C10       1.0  0.72430  0.22870  0.24660  1.0000 0.05763964
C   C11       1.0  0.81190  0.00870  0.49400  1.0000 -0.0068582411
C   C12       1.0  0.99130  0.18810  0.99400  1.0000 -0.0068582411
C   C13       1.0  0.87140  0.99720  0.57480  1.0000 0.05763964
C   C14       1.0  0.00280  0.12860  0.07480  1.0000 0.05763964
C   C15       1.0  0.96760  0.89560  0.60240  1.0000 -0.1660097321
C   C16       1.0  0.10440  0.03240  0.10240  1.0000 -0.1579947243
C   C17       1.0  0.00440  0.80540  0.54930  1.0000 0.0492107342
C   C18       1.0  0.19460  0.99560  0.04930  1.0000 0.0492107342
C   C19       1.0  0.94500  0.81680  0.46850  1.0000 0.0022353578
C   C20       1.0  0.18320  0.05500  0.96850  1.0000 0.0022353578
C   C21       1.0  0.12850  0.63410  0.65170  1.0000 0.0022353578
C   C22       1.0  0.36590  0.87150  0.15170  1.0000 0.0022353578
C   C23       1.0  0.11360  0.70180  0.57300  1.0000 0.0492107342
C   C24       1.0  0.29820  0.88640  0.07300  1.0000 0.0492107342
C   C25       1.0  0.19740  0.66800  0.51550  1.0000 -0.1660097321
C   C26       1.0  0.33200  0.80260  0.01550  1.0000 -0.1660097321
C   C27       1.0  0.29610  0.56650  0.53670  1.0000 0.0492107342
C   C28       1.0  0.43350  0.70390  0.03670  1.0000 0.0492107342
C   C29       1.0  0.31100  0.49880  0.61540  1.0000 0.0022353578
C   C30       1.0  0.50120  0.68900  0.11540  1.0000 0.0022353578
C   C31       1.0  0.42450  0.63950  0.43050  1.0000 0.0022353578
C   C32       1.0  0.36050  0.57550  0.93050  1.0000 0.0022353578
C   C33       1.0  0.39160  0.53540  0.48570  1.0000 0.0416585628
C   C34       1.0  0.46460  0.60840  0.98570  1.0000 0.0416585628
C   C35       1.0  0.45330  0.40930  0.48750  1.0000 -0.1113321258
C   C36       1.0  0.59070  0.54670  0.98750  1.0000 -0.1113321258
C   C37       1.0  0.54810  0.38730  0.43400  1.0000 -0.1403358857
C   C38       1.0  0.61270  0.45190  0.93400  1.0000 -0.1403358857
C   C39       1.0  0.58100  0.49140  0.37880  1.0000 0.05763964
C   C40       1.0  0.50860  0.41900  0.87880  1.0000 0.05763964
I   I1        1.0  0.29011  0.18943  0.76420  1.0000 -0.4831907953
I   I2        1.0  0.81057  0.70989  0.26420  1.0000 -0.4831907953
I   I3        1.0  0.01051  0.50905  0.85474  1.0000 -0.4831907953
I   I4        1.0  0.49095  0.98949  0.35474  1.0000 -0.4831907953
N   N1        1.0  0.90120  0.22380  0.74670  1.0000 -0.1519727985
N   N2        1.0  0.77620  0.09880  0.24670  1.0000 -0.1519727985
N   N3        1.0  0.84870  0.91850  0.44090  1.0000 -0.1403358857
N   N4        1.0  0.08150  0.15130  0.94090  1.0000 -0.1403358857
N   N5        1.0  0.22720  0.53260  0.67290  1.0000 -0.1579947243
N   N6        1.0  0.46740  0.77280  0.17290  1.0000 -0.1579947243
N   N7        1.0  0.51920  0.61740  0.37700  1.0000 -0.1579947243
N   N8        1.0  0.38260  0.48080  0.87700  1.0000 -0.1579947243
