# DDEC6 charges by PACMAN v1.1 (https://github.com/mtap-research/PACMAN-charge/)
data_2000[Er][scu]3[FSR]1
_chemical_formula_sum              "Er4 H36 C36 O32"
_cell_length_a       9.08354
_cell_length_b       9.08354
_cell_length_c       15.9193
_cell_angle_alpha    88.4173
_cell_angle_beta     91.5827
_cell_angle_gamma    95.2283

_symmetry_space_group_name_H-M    "P 1"
_symmetry_Int_Tables_number       1

loop_
  _symmetry_equiv_pos_as_xyz
  'x, y, z'

loop_
  _atom_site_type_symbol
  _atom_site_label
  _atom_site_symmetry_multiplicity
  _atom_site_fract_x
  _atom_site_fract_y
  _atom_site_fract_z
  _atom_site_occupancy
  _atom_site_charge
Er  Er1       1.0  0.27785  0.52243  0.98901  1.0000 1.9902753901
Er  Er2       1.0  0.47757  0.72215  0.48901  1.0000 1.9902753901
Er  Er3       1.0  0.72215  0.47757  0.01100  1.0000 1.9902753901
Er  Er4       1.0  0.52243  0.27785  0.51099  1.0000 1.9902753901
H   H1        1.0  0.06530  0.25550  0.22181  1.0000 0.1040036935
H   H2        1.0  0.74450  0.93470  0.72181  1.0000 0.1040036935
H   H3        1.0  0.93470  0.74450  0.77820  1.0000 0.1040036935
H   H4        1.0  0.25550  0.06530  0.27820  1.0000 0.1040036935
H   H5        1.0  0.84980  0.44500  0.26731  1.0000 0.1187499538
H   H6        1.0  0.55500  0.15020  0.76731  1.0000 0.1187499538
H   H7        1.0  0.15020  0.55500  0.73270  1.0000 0.1187499538
H   H8        1.0  0.44500  0.84980  0.23270  1.0000 0.1187499538
H   H9        1.0  0.81100  0.28420  0.23451  1.0000 0.1187499538
H   H10       1.0  0.71580  0.18900  0.73450  1.0000 0.1187499538
H   H11       1.0  0.18900  0.71580  0.76550  1.0000 0.1187499538
H   H12       1.0  0.28420  0.81100  0.26550  1.0000 0.1187499538
H   H13       1.0  0.93580  0.18520  0.35321  1.0000 0.1118300467
H   H14       1.0  0.81480  0.06420  0.85320  1.0000 0.1118300467
H   H15       1.0  0.06420  0.81480  0.64680  1.0000 0.1118300467
H   H16       1.0  0.18520  0.93580  0.14680  1.0000 0.1118300467
H   H17       1.0  0.98170  0.48130  0.41070  1.0000 0.1187499538
H   H18       1.0  0.51870  0.01830  0.91071  1.0000 0.1187499538
H   H19       1.0  0.01830  0.51870  0.58930  1.0000 0.1118300467
H   H20       1.0  0.48130  0.98170  0.08929  1.0000 0.1187499538
H   H21       1.0  0.02930  0.34250  0.46201  1.0000 0.1118300467
H   H22       1.0  0.65750  0.97070  0.96201  1.0000 0.1118300467
H   H23       1.0  0.97070  0.65750  0.53800  1.0000 0.1118300467
H   H24       1.0  0.34250  0.02930  0.03800  1.0000 0.1118300467
H   H25       1.0  0.20530  0.30170  0.36161  1.0000 0.1118300467
H   H26       1.0  0.69830  0.79470  0.86161  1.0000 0.1118300467
H   H27       1.0  0.79470  0.69830  0.63840  1.0000 0.1118300467
H   H28       1.0  0.30170  0.20530  0.13839  1.0000 0.1118300467
H   H29       1.0  0.12150  0.55510  0.26950  1.0000 0.1187499538
H   H30       1.0  0.44490  0.87850  0.76951  1.0000 0.1187499538
H   H31       1.0  0.87850  0.44490  0.73050  1.0000 0.1187499538
H   H32       1.0  0.55510  0.12150  0.23050  1.0000 0.1187499538
H   H33       1.0  0.24410  0.45590  0.24281  1.0000 0.1187499538
H   H34       1.0  0.54410  0.75590  0.74281  1.0000 0.1187499538
H   H35       1.0  0.75590  0.54410  0.75720  1.0000 0.1187499538
H   H36       1.0  0.45590  0.24410  0.25720  1.0000 0.1187499538
C   C1        1.0  0.03280  0.35540  0.22161  1.0000 -0.1301139001
C   C2        1.0  0.64460  0.96720  0.72161  1.0000 -0.1301139001
C   C3        1.0  0.96720  0.64460  0.77839  1.0000 -0.1301139001
C   C4        1.0  0.35540  0.03280  0.27840  1.0000 -0.1301139001
C   C5        1.0  0.88400  0.34700  0.26571  1.0000 -0.1898964349
C   C6        1.0  0.65300  0.11600  0.76570  1.0000 -0.1898964349
C   C7        1.0  0.11600  0.65300  0.73430  1.0000 -0.1898964349
C   C8        1.0  0.34700  0.88400  0.23430  1.0000 -0.1898964349
C   C9        1.0  0.90120  0.28400  0.35580  1.0000 -0.1138515029
C   C10       1.0  0.71600  0.09880  0.85581  1.0000 -0.1138515029
C   C11       1.0  0.09880  0.71600  0.64420  1.0000 -0.1138515029
C   C12       1.0  0.28400  0.90120  0.14419  1.0000 -0.1138515029
C   C13       1.0  0.01670  0.38430  0.40581  1.0000 -0.1996048656
C   C14       1.0  0.61570  0.98330  0.90581  1.0000 -0.1996048656
C   C15       1.0  0.98330  0.61570  0.59420  1.0000 -0.1996048656
C   C16       1.0  0.38430  0.01670  0.09420  1.0000 -0.1996048656
C   C17       1.0  0.16660  0.39900  0.36151  1.0000 -0.1185826588
C   C18       1.0  0.60100  0.83340  0.86151  1.0000 -0.1185826588
C   C19       1.0  0.83340  0.60100  0.63850  1.0000 -0.1185826588
C   C20       1.0  0.39900  0.16660  0.13850  1.0000 -0.1185826588
C   C21       1.0  0.14990  0.45470  0.27020  1.0000 -0.1898964349
C   C22       1.0  0.54530  0.85010  0.77021  1.0000 -0.1898964349
C   C23       1.0  0.85010  0.54530  0.72979  1.0000 -0.1898964349
C   C24       1.0  0.45470  0.14990  0.22980  1.0000 -0.1898964349
C   C25       1.0  0.02560  0.41160  0.13121  1.0000 0.6641217839
C   C26       1.0  0.58840  0.97440  0.63121  1.0000 0.6641217839
C   C27       1.0  0.97440  0.58840  0.86880  1.0000 0.6641217839
C   C28       1.0  0.41160  0.02560  0.36879  1.0000 0.6641217839
C   C29       1.0  0.75910  0.27290  0.40321  1.0000 0.559678502
C   C30       1.0  0.72710  0.24090  0.90321  1.0000 0.559678502
C   C31       1.0  0.24090  0.72710  0.59679  1.0000 0.559678502
C   C32       1.0  0.27290  0.75910  0.09680  1.0000 0.559678502
C   C33       1.0  0.27440  0.50420  0.40961  1.0000 0.6076894473
C   C34       1.0  0.49580  0.72560  0.90961  1.0000 0.6076894473
C   C35       1.0  0.72560  0.49580  0.59040  1.0000 0.6076894473
C   C36       1.0  0.50420  0.27440  0.09040  1.0000 0.6076894473
O   O1        1.0  0.14080  0.40740  0.08981  1.0000 -0.6422177333
O   O2        1.0  0.59260  0.85920  0.58981  1.0000 -0.6422177333
O   O3        1.0  0.85920  0.59260  0.91020  1.0000 -0.6422177333
O   O4        1.0  0.40740  0.14080  0.41019  1.0000 -0.6422177333
O   O5        1.0  0.90950  0.46010  0.10240  1.0000 -0.6093016792
O   O6        1.0  0.53990  0.09050  0.60240  1.0000 -0.6093016792
O   O7        1.0  0.09050  0.53990  0.89760  1.0000 -0.6093016792
O   O8        1.0  0.46010  0.90950  0.39760  1.0000 -0.6093016792
O   O9        1.0  0.72600  0.16140  0.45081  1.0000 -0.5925599713
O   O10       1.0  0.83860  0.27400  0.95081  1.0000 -0.5925599713
O   O11       1.0  0.27400  0.83860  0.54919  1.0000 -0.5925599713
O   O12       1.0  0.16140  0.72600  0.04920  1.0000 -0.5925599713
O   O13       1.0  0.67660  0.37700  0.39941  1.0000 -0.5670885373
O   O14       1.0  0.62300  0.32340  0.89941  1.0000 -0.5670885373
O   O15       1.0  0.32340  0.62300  0.60060  1.0000 -0.5670885373
O   O16       1.0  0.37700  0.67660  0.10060  1.0000 -0.5670885373
O   O17       1.0  0.38260  0.45760  0.45050  1.0000 -0.6648890305
O   O18       1.0  0.54240  0.61740  0.95051  1.0000 -0.665774994
O   O19       1.0  0.61740  0.54240  0.54950  1.0000 -0.665774994
O   O20       1.0  0.45760  0.38260  0.04950  1.0000 -0.665774994
O   O21       1.0  0.25640  0.63920  0.40971  1.0000 -0.5925599713
O   O22       1.0  0.36080  0.74360  0.90970  1.0000 -0.5925599713
O   O23       1.0  0.74360  0.36080  0.59030  1.0000 -0.5925599713
O   O24       1.0  0.63920  0.25640  0.09030  1.0000 -0.5925599713
O   O25       1.0  0.15330  0.26230  0.95861  1.0000 -0.0192458186
O   O26       1.0  0.73770  0.84670  0.45861  1.0000 -0.0192458186
O   O27       1.0  0.84670  0.73770  0.04140  1.0000 -0.0192458186
O   O28       1.0  0.26230  0.15330  0.54140  1.0000 -0.0131851252
O   O29       1.0  0.34520  0.39320  0.87341  1.0000 -0.2230794905
O   O30       1.0  0.60680  0.65480  0.37341  1.0000 -0.2230794905
O   O31       1.0  0.65480  0.60680  0.12660  1.0000 -0.2230794905
O   O32       1.0  0.39320  0.34520  0.62660  1.0000 -0.2280451734
