# DDEC6 charges by PACMAN v1.1 (https://github.com/mtap-research/PACMAN-charge/)
data_2001[Zn][nan]3[FSR]1
_chemical_formula_sum              "Zn6 P4 C2 O20"
_cell_length_a       5.003
_cell_length_b       8.5434
_cell_length_c       12.4336
_cell_angle_alpha    92.99
_cell_angle_beta     97.138
_cell_angle_gamma    91.465

_symmetry_space_group_name_H-M    "P 1"
_symmetry_Int_Tables_number       1

loop_
  _symmetry_equiv_pos_as_xyz
  'x, y, z'

loop_
  _atom_site_type_symbol
  _atom_site_label
  _atom_site_symmetry_multiplicity
  _atom_site_fract_x
  _atom_site_fract_y
  _atom_site_fract_z
  _atom_site_occupancy
  _atom_site_charge
Zn  Zn1       1.0  0.60630  0.13674  0.94045  1.0000 1.0722216554
Zn  Zn2       1.0  0.39370  0.86326  0.05955  1.0000 1.0722216554
Zn  Zn3       1.0  0.11380  0.36276  0.13950  1.0000 1.1018495746
Zn  Zn4       1.0  0.88620  0.63724  0.86050  1.0000 1.1018495746
Zn  Zn5       1.0  0.85530  0.96820  0.70233  1.0000 1.0424304791
Zn  Zn6       1.0  0.14470  0.03180  0.29767  1.0000 1.0424304791
P   P1        1.0  0.61780  0.17610  0.20030  1.0000 1.5465682335
P   P2        1.0  0.38220  0.82390  0.79970  1.0000 1.5465682335
P   P3        1.0  0.04180  0.28790  0.87690  1.0000 1.5697034188
P   P4        1.0  0.95820  0.71210  0.12310  1.0000 1.5644987412
C   C1        1.0  0.04050  0.08500  0.51730  1.0000 0.4913965054
C   C2        1.0  0.95950  0.91500  0.48270  1.0000 0.4913965054
O   O1        1.0  0.33910  0.27500  0.87670  1.0000 -0.7285445593
O   O2        1.0  0.66090  0.72500  0.12330  1.0000 -0.7285445593
O   O3        1.0  0.54510  0.08560  0.09030  1.0000 -0.7672073804
O   O4        1.0  0.45490  0.91440  0.90970  1.0000 -0.7672073804
O   O5        1.0  0.88130  0.13670  0.82870  1.0000 -0.7672073804
O   O6        1.0  0.11870  0.86330  0.17130  1.0000 -0.7672073804
O   O7        1.0  0.95480  0.30510  0.99300  1.0000 -0.8010992222
O   O8        1.0  0.04520  0.69490  0.00700  1.0000 -0.8010992222
O   O9        1.0  0.94810  0.42620  0.80990  1.0000 -0.7107469253
O   O10       1.0  0.05190  0.57380  0.19010  1.0000 -0.7107469253
O   O11       1.0  0.49010  0.33640  0.19180  1.0000 -0.7285445593
O   O12       1.0  0.50990  0.66360  0.80820  1.0000 -0.7285445593
O   O13       1.0  0.92840  0.20130  0.22150  1.0000 -0.7579722815
O   O14       1.0  0.07160  0.79870  0.77850  1.0000 -0.7579722815
O   O15       1.0  0.52760  0.08020  0.28970  1.0000 -0.7542514615
O   O16       1.0  0.47240  0.91980  0.71030  1.0000 -0.7542514615
O   O17       1.0  0.98990  0.13680  0.60990  1.0000 -0.4029968791
O   O18       1.0  0.01010  0.86320  0.39010  1.0000 -0.4029968791
O   O19       1.0  0.14300  0.16350  0.45070  1.0000 -0.4029968791
O   O20       1.0  0.85700  0.83650  0.54930  1.0000 -0.4029968791
