# DDEC6 charges by PACMAN v1.1 (https://github.com/mtap-research/PACMAN-charge/)
data_2001[Cu][kdd]3[FSR]1
_chemical_formula_sum              "Cu2 H16 C24 N4 O8"
_cell_length_a       12.733
_cell_length_b       12.733
_cell_length_c       11.1001
_cell_angle_alpha    88.2678
_cell_angle_beta     91.7322
_cell_angle_gamma    22.6309

_symmetry_space_group_name_H-M    "P 1"
_symmetry_Int_Tables_number       1

loop_
  _symmetry_equiv_pos_as_xyz
  'x, y, z'

loop_
  _atom_site_type_symbol
  _atom_site_label
  _atom_site_symmetry_multiplicity
  _atom_site_fract_x
  _atom_site_fract_y
  _atom_site_fract_z
  _atom_site_occupancy
  _atom_site_charge
Cu  Cu1       1.0  0.12372  0.64924  0.89520  1.0000 0.7681771682
Cu  Cu2       1.0  0.35076  0.87628  0.39520  1.0000 0.7681771682
H   H1        1.0  0.32230  0.01590  0.62740  1.0000 0.1094921136
H   H2        1.0  0.98410  0.67770  0.12740  1.0000 0.1094921136
H   H3        1.0  0.54580  0.94180  0.73790  1.0000 0.1367807157
H   H4        1.0  0.05820  0.45420  0.23790  1.0000 0.1367807157
H   H5        1.0  0.08160  0.46380  0.49920  1.0000 0.1367807157
H   H6        1.0  0.53620  0.91840  0.99920  1.0000 0.1367807157
H   H7        1.0  0.85010  0.54110  0.39740  1.0000 0.1094921136
H   H8        1.0  0.45890  0.14990  0.89740  1.0000 0.1094921136
H   H9        1.0  0.35560  0.64280  0.82430  1.0000 0.1094921136
H   H10       1.0  0.35720  0.64440  0.32430  1.0000 0.1094921136
H   H11       1.0  0.24530  0.88330  0.68750  1.0000 0.1337196471
H   H12       1.0  0.11670  0.75470  0.18750  1.0000 0.1337196471
H   H13       1.0  0.52210  0.41170  0.57580  1.0000 0.1367807157
H   H14       1.0  0.58830  0.47790  0.07580  1.0000 0.1367807157
H   H15       1.0  0.66050  0.14510  0.70940  1.0000 0.1190221773
H   H16       1.0  0.85490  0.33950  0.20940  1.0000 0.1190221773
C   C1        1.0  0.47777  0.90237  0.60180  1.0000 0.0801201125
C   C2        1.0  0.09763  0.52223  0.10180  1.0000 0.0801201125
C   C3        1.0  0.60933  0.86113  0.66800  1.0000 -0.1565023923
C   C4        1.0  0.13887  0.39067  0.16800  1.0000 -0.1565023923
C   C5        1.0  0.83525  0.69965  0.62970  1.0000 0.0421133579
C   C6        1.0  0.30035  0.16475  0.12970  1.0000 0.0421133579
C   C7        1.0  0.92766  0.57666  0.52690  1.0000 -0.1565023923
C   C8        1.0  0.42334  0.07234  0.02690  1.0000 -0.1565023923
C   C9        1.0  0.78733  0.62433  0.46610  1.0000 0.0895630734
C   C10       1.0  0.37567  0.21267  0.96610  1.0000 0.0895630734
C   C11       1.0  0.98908  0.64588  0.69960  1.0000 0.5320767926
C   C12       1.0  0.35412  0.01092  0.19960  1.0000 0.5320767926
C   C13       1.0  0.18800  0.79680  0.77230  1.0000 0.0801201125
C   C14       1.0  0.20320  0.81200  0.27230  1.0000 0.0801201125
C   C15       1.0  0.12182  0.94222  0.69070  1.0000 -0.1565023923
C   C16       1.0  0.05778  0.87818  0.19070  1.0000 -0.1565023923
C   C17       1.0  0.87203  0.17423  0.61440  1.0000 0.0253243239
C   C18       1.0  0.82577  0.12797  0.11440  1.0000 0.0253243239
C   C19       1.0  0.69474  0.25334  0.62390  1.0000 -0.1565023923
C   C20       1.0  0.74666  0.30526  0.12390  1.0000 -0.1565023923
C   C21       1.0  0.79230  0.33970  0.52670  1.0000 0.5547981428
C   C22       1.0  0.66030  0.20770  0.02670  1.0000 0.5547981428
C   C23       1.0  0.77794  0.09374  0.70570  1.0000 0.1006419079
C   C24       1.0  0.90626  0.22206  0.20570  1.0000 0.1006419079
N   N1        1.0  0.56403  0.78643  0.50270  1.0000 -0.212383805
N   N2        1.0  0.21357  0.43597  0.00270  1.0000 -0.212383805
N   N3        1.0  0.02057  0.86917  0.77930  1.0000 -0.2255787982
N   N4        1.0  0.13083  0.97943  0.27930  1.0000 -0.2255787982
O   O1        1.0  0.88312  0.77572  0.78990  1.0000 -0.5404873027
O   O2        1.0  0.22428  0.11688  0.28990  1.0000 -0.5404873027
O   O3        1.0  0.20512  0.47912  0.66880  1.0000 -0.5404873027
O   O4        1.0  0.52088  0.79488  0.16880  1.0000 -0.5404873027
O   O5        1.0  0.53545  0.58605  0.48984  1.0000 -0.5511054231
O   O6        1.0  0.41395  0.46455  0.98984  1.0000 -0.5511054231
O   O7        1.0  0.97632  0.22812  0.49825  1.0000 -0.568443103
O   O8        1.0  0.77188  0.02368  0.99825  1.0000 -0.568443103
