# DDEC6 charges by PACMAN v1.1 (https://github.com/mtap-research/PACMAN-charge/)
data_2001[Co][dia]3[FSR]5
_chemical_formula_sum              "Co4 H50 C64 N8 O18"
_cell_length_a       10.389
_cell_length_b       10.389
_cell_length_c       18.5374
_cell_angle_alpha    79.658
_cell_angle_beta     100.342
_cell_angle_gamma    85.335

_symmetry_space_group_name_H-M    "P 1"
_symmetry_Int_Tables_number       1

loop_
  _symmetry_equiv_pos_as_xyz
  'x, y, z'

loop_
  _atom_site_type_symbol
  _atom_site_label
  _atom_site_symmetry_multiplicity
  _atom_site_fract_x
  _atom_site_fract_y
  _atom_site_fract_z
  _atom_site_occupancy
  _atom_site_charge
Co  Co1       1.0  0.50686  0.23844  0.78314  1.0000 0.9450067778
Co  Co2       1.0  0.76156  0.49314  0.28314  1.0000 0.9450067778
Co  Co3       1.0  0.49314  0.76156  0.21686  1.0000 0.9450067778
Co  Co4       1.0  0.23844  0.50686  0.71686  1.0000 0.9450067778
H   H1        1.0  0.50920  0.50920  0.75000  1.0000 0.382047226
H   H2        1.0  0.49080  0.49080  0.25000  1.0000 0.382047226
H   H3        1.0  0.69570  0.15930  0.02390  1.0000 0.1213318149
H   H4        1.0  0.84070  0.30430  0.52390  1.0000 0.1213318149
H   H5        1.0  0.30430  0.84070  0.97610  1.0000 0.1213318149
H   H6        1.0  0.15930  0.69570  0.47610  1.0000 0.1213318149
H   H7        1.0  0.35580  0.24700  0.53760  1.0000 0.1359725904
H   H8        1.0  0.75300  0.64420  0.03760  1.0000 0.1359725904
H   H9        1.0  0.64420  0.75300  0.46240  1.0000 0.1359725904
H   H10       1.0  0.24700  0.35580  0.96240  1.0000 0.1359725904
H   H11       1.0  0.62440  0.42420  0.01980  1.0000 0.1213318149
H   H12       1.0  0.57580  0.37560  0.51980  1.0000 0.1213318149
H   H13       1.0  0.37560  0.57580  0.98020  1.0000 0.1213318149
H   H14       1.0  0.42420  0.62440  0.48020  1.0000 0.1213318149
H   H15       1.0  0.78250  0.99790  0.28080  1.0000 0.1359725904
H   H16       1.0  0.00210  0.21750  0.78080  1.0000 0.1359725904
H   H17       1.0  0.21750  0.00210  0.71920  1.0000 0.1359725904
H   H18       1.0  0.99790  0.78250  0.21920  1.0000 0.1359725904
H   H19       1.0  0.73810  0.01390  0.15110  1.0000 0.1305672222
H   H20       1.0  0.98610  0.26190  0.65110  1.0000 0.1305672222
H   H21       1.0  0.26190  0.98610  0.84890  1.0000 0.1305672222
H   H22       1.0  0.01390  0.73810  0.34890  1.0000 0.1305672222
H   H23       1.0  0.79230  0.18090  0.33170  1.0000 0.1120339767
H   H24       1.0  0.81910  0.20770  0.83170  1.0000 0.1120339767
H   H25       1.0  0.20770  0.81910  0.66830  1.0000 0.1120339767
H   H26       1.0  0.18090  0.79230  0.16830  1.0000 0.1120339767
H   H27       1.0  0.71050  0.40730  0.13060  1.0000 0.1120339767
H   H28       1.0  0.59270  0.28950  0.63060  1.0000 0.1120339767
H   H29       1.0  0.28950  0.59270  0.86940  1.0000 0.1120339767
H   H30       1.0  0.40730  0.71050  0.36940  1.0000 0.1120339767
H   H31       1.0  0.95160  0.41200  0.42830  1.0000 0.1120339767
H   H32       1.0  0.58800  0.04840  0.92830  1.0000 0.1120339767
H   H33       1.0  0.04840  0.58800  0.57170  1.0000 0.1120339767
H   H34       1.0  0.41200  0.95160  0.07170  1.0000 0.1120339767
H   H35       1.0  0.32850  0.34770  0.40450  1.0000 0.1305672222
H   H36       1.0  0.65230  0.67150  0.90450  1.0000 0.1305672222
H   H37       1.0  0.67150  0.65230  0.59550  1.0000 0.1305672222
H   H38       1.0  0.34770  0.32850  0.09550  1.0000 0.1305672222
H   H39       1.0  0.11050  0.37490  0.53700  1.0000 0.1120339767
H   H40       1.0  0.62510  0.88950  0.03700  1.0000 0.1120339767
H   H41       1.0  0.88950  0.62510  0.46300  1.0000 0.1120339767
H   H42       1.0  0.37490  0.11050  0.96300  1.0000 0.1120339767
H   H43       1.0  0.02630  0.44890  0.22580  1.0000 0.1120339767
H   H44       1.0  0.55110  0.97370  0.72580  1.0000 0.1120339767
H   H45       1.0  0.97370  0.55110  0.77420  1.0000 0.1120339767
H   H46       1.0  0.44890  0.02630  0.27420  1.0000 0.1120339767
H   H47       1.0  0.24850  0.39690  0.27490  1.0000 0.1359725904
H   H48       1.0  0.60310  0.75150  0.77490  1.0000 0.1359725904
H   H49       1.0  0.75150  0.60310  0.72510  1.0000 0.1359725904
H   H50       1.0  0.39690  0.24850  0.22510  1.0000 0.1359725904
C   C1        1.0  0.30700  0.28200  0.64150  1.0000 0.6282654305
C   C2        1.0  0.71800  0.69300  0.14150  1.0000 0.6282654305
C   C3        1.0  0.69300  0.71800  0.35850  1.0000 0.6282654305
C   C4        1.0  0.28200  0.30700  0.85850  1.0000 0.6282654305
C   C5        1.0  0.68290  0.23450  0.04540  1.0000 -0.1132616352
C   C6        1.0  0.76550  0.31710  0.54540  1.0000 -0.1132616352
C   C7        1.0  0.31710  0.76550  0.95460  1.0000 -0.1132616352
C   C8        1.0  0.23450  0.68290  0.45460  1.0000 -0.1132616352
C   C9        1.0  0.28810  0.28650  0.55770  1.0000 -0.2194430183
C   C10       1.0  0.71350  0.71190  0.05770  1.0000 -0.2194430183
C   C11       1.0  0.71190  0.71350  0.44230  1.0000 -0.2194430183
C   C12       1.0  0.28650  0.28810  0.94230  1.0000 -0.2194430183
C   C13       1.0  0.63550  0.34810  0.99880  1.0000 -0.2054993834
C   C14       1.0  0.65190  0.36450  0.49880  1.0000 -0.2054993834
C   C15       1.0  0.36450  0.65190  0.00120  1.0000 -0.2054993834
C   C16       1.0  0.34810  0.63550  0.50120  1.0000 -0.2054993834
C   C17       1.0  0.59800  0.36460  0.91460  1.0000 0.609113266
C   C18       1.0  0.63540  0.40200  0.41460  1.0000 0.609113266
C   C19       1.0  0.40200  0.63540  0.08540  1.0000 0.609113266
C   C20       1.0  0.36460  0.59800  0.58540  1.0000 0.609113266
C   C21       1.0  0.76720  0.08220  0.24870  1.0000 -0.136160421
C   C22       1.0  0.91780  0.23280  0.74870  1.0000 -0.136160421
C   C23       1.0  0.23280  0.91780  0.75130  1.0000 -0.136160421
C   C24       1.0  0.08220  0.76720  0.25130  1.0000 -0.136160421
C   C25       1.0  0.74040  0.09060  0.17220  1.0000 -0.0994758557
C   C26       1.0  0.90940  0.25960  0.67220  1.0000 -0.0994758557
C   C27       1.0  0.25960  0.90940  0.82780  1.0000 -0.0994758557
C   C28       1.0  0.09060  0.74040  0.32780  1.0000 -0.0994758557
C   C29       1.0  0.71720  0.21560  0.12740  1.0000 0.0623756193
C   C30       1.0  0.78440  0.28280  0.62740  1.0000 0.0623756193
C   C31       1.0  0.28280  0.78440  0.87260  1.0000 0.0623756193
C   C32       1.0  0.21560  0.71720  0.37260  1.0000 0.0623756193
C   C33       1.0  0.77180  0.19120  0.27880  1.0000 0.0498729695
C   C34       1.0  0.80880  0.22820  0.77880  1.0000 0.0498729695
C   C35       1.0  0.22820  0.80880  0.72120  1.0000 0.0498729695
C   C36       1.0  0.19120  0.77180  0.22120  1.0000 0.0498729695
C   C37       1.0  0.72400  0.32240  0.16180  1.0000 0.0498729695
C   C38       1.0  0.67760  0.27600  0.66180  1.0000 0.0498729695
C   C39       1.0  0.27600  0.67760  0.83820  1.0000 0.0498729695
C   C40       1.0  0.32240  0.72400  0.33820  1.0000 0.0498729695
C   C41       1.0  0.01350  0.40750  0.39660  1.0000 0.0059908517
C   C42       1.0  0.59250  0.98650  0.89660  1.0000 0.0059908517
C   C43       1.0  0.98650  0.59250  0.60340  1.0000 0.0059908517
C   C44       1.0  0.40750  0.01350  0.10340  1.0000 0.0059908517
C   C45       1.0  0.14430  0.37130  0.42980  1.0000 0.0623756193
C   C46       1.0  0.62870  0.85570  0.92980  1.0000 0.0623756193
C   C47       1.0  0.85570  0.62870  0.57020  1.0000 0.0623756193
C   C48       1.0  0.37130  0.14430  0.07020  1.0000 0.0623756193
C   C49       1.0  0.23680  0.36880  0.38420  1.0000 -0.0740614298
C   C50       1.0  0.63120  0.76320  0.88420  1.0000 -0.0740614298
C   C51       1.0  0.76320  0.63120  0.61580  1.0000 -0.0740614298
C   C52       1.0  0.36880  0.23680  0.11580  1.0000 -0.0740614298
C   C53       1.0  0.17740  0.34540  0.51290  1.0000 -0.0946920205
C   C54       1.0  0.65460  0.82260  0.01290  1.0000 -0.0946920205
C   C55       1.0  0.82260  0.65460  0.48710  1.0000 -0.0946920205
C   C56       1.0  0.34540  0.17740  0.98710  1.0000 -0.0946920205
C   C57       1.0  0.05560  0.43080  0.27860  1.0000 0.0815160957
C   C58       1.0  0.56920  0.94440  0.77860  1.0000 0.0815160957
C   C59       1.0  0.94440  0.56920  0.72140  1.0000 0.0815160957
C   C60       1.0  0.43080  0.05560  0.22140  1.0000 0.0815160957
C   C61       1.0  0.18860  0.39860  0.30800  1.0000 -0.136160421
C   C62       1.0  0.60140  0.81140  0.80800  1.0000 -0.136160421
C   C63       1.0  0.81140  0.60140  0.69200  1.0000 -0.136160421
C   C64       1.0  0.39860  0.18860  0.19200  1.0000 -0.136160421
N   N1        1.0  0.74810  0.31590  0.23620  1.0000 -0.244874845
N   N2        1.0  0.68410  0.25190  0.73620  1.0000 -0.244874845
N   N3        1.0  0.25190  0.68410  0.76380  1.0000 -0.244874845
N   N4        1.0  0.31590  0.74810  0.26380  1.0000 -0.244874845
N   N5        1.0  0.96780  0.43700  0.32180  1.0000 -0.2333386492
N   N6        1.0  0.56300  0.03220  0.82180  1.0000 -0.2333386492
N   N7        1.0  0.03220  0.56300  0.67820  1.0000 -0.2333386492
N   N8        1.0  0.43700  0.96780  0.17820  1.0000 -0.2333386492
O   O1        1.0  0.44700  0.44700  0.75000  1.0000 -0.7944949369
O   O2        1.0  0.55300  0.55300  0.25000  1.0000 -0.7944949369
O   O3        1.0  0.41090  0.21330  0.68050  1.0000 -0.5593016844
O   O4        1.0  0.78670  0.58910  0.18050  1.0000 -0.5593016844
O   O5        1.0  0.58910  0.78670  0.31950  1.0000 -0.5593016844
O   O6        1.0  0.21330  0.41090  0.81950  1.0000 -0.5593016844
O   O7        1.0  0.61450  0.26810  0.88450  1.0000 -0.5593016844
O   O8        1.0  0.73190  0.38550  0.38450  1.0000 -0.5593016844
O   O9        1.0  0.38550  0.73190  0.11550  1.0000 -0.5593016844
O   O10       1.0  0.26810  0.61450  0.61550  1.0000 -0.5593016844
O   O11       1.0  0.55070  0.47870  0.88110  1.0000 -0.5365393858
O   O12       1.0  0.52130  0.44930  0.38110  1.0000 -0.5365393858
O   O13       1.0  0.44930  0.52130  0.11890  1.0000 -0.5365393858
O   O14       1.0  0.47870  0.55070  0.61890  1.0000 -0.5365393858
O   O15       1.0  0.22200  0.34700  0.66440  1.0000 -0.5479410391
O   O16       1.0  0.65300  0.77800  0.16440  1.0000 -0.5479410391
O   O17       1.0  0.77800  0.65300  0.33560  1.0000 -0.5479410391
O   O18       1.0  0.34700  0.22200  0.83560  1.0000 -0.5479410391
