# DDEC6 charges by PACMAN v1.1 (https://github.com/mtap-research/PACMAN-charge/)
data_2001[Cu][cds]3[FSR]1
_chemical_formula_sum              "Cu4 H168 C128 N16 O4"
_cell_length_a       10.439
_cell_length_b       14.44
_cell_length_c       28.9345
_cell_angle_alpha    90
_cell_angle_beta     103.28
_cell_angle_gamma    90

_symmetry_space_group_name_H-M    "P 1"
_symmetry_Int_Tables_number       1

loop_
  _symmetry_equiv_pos_as_xyz
  'x, y, z'

loop_
  _atom_site_type_symbol
  _atom_site_label
  _atom_site_symmetry_multiplicity
  _atom_site_fract_x
  _atom_site_fract_y
  _atom_site_fract_z
  _atom_site_occupancy
  _atom_site_charge
Cu  Cu1       1.0  0.85667  0.70672  0.17843  1.0000 0.4297676974
Cu  Cu2       1.0  0.85667  0.79328  0.67843  1.0000 0.4297676974
Cu  Cu3       1.0  0.14333  0.29328  0.82157  1.0000 0.4297676974
Cu  Cu4       1.0  0.14333  0.20672  0.32157  1.0000 0.4297676974
H   H1        1.0  0.60020  0.79450  0.17330  1.0000 0.0914531756
H   H2        1.0  0.60020  0.70550  0.67330  1.0000 0.0914531756
H   H3        1.0  0.50250  0.92620  0.19510  1.0000 0.1306084834
H   H4        1.0  0.50250  0.57380  0.69510  1.0000 0.1306084834
H   H5        1.0  0.87250  0.02820  0.24700  1.0000 0.1156546895
H   H6        1.0  0.87250  0.47180  0.74700  1.0000 0.1156546895
H   H7        1.0  0.95340  0.89540  0.22230  1.0000 0.0914531756
H   H8        1.0  0.95340  0.60460  0.72230  1.0000 0.0914531756
H   H9        1.0  0.57500  0.05700  0.26900  1.0000 0.0974555232
H   H10       1.0  0.57500  0.44300  0.76900  1.0000 0.0974555232
H   H11       1.0  0.67300  0.13400  0.25500  1.0000 0.0914531756
H   H12       1.0  0.67300  0.36600  0.75500  1.0000 0.0914531756
H   H13       1.0  0.57120  0.14270  0.17460  1.0000 0.0914531756
H   H14       1.0  0.57120  0.35730  0.67460  1.0000 0.0914531756
H   H15       1.0  0.45110  0.08100  0.18260  1.0000 0.0914531756
H   H16       1.0  0.45110  0.41900  0.68260  1.0000 0.0914531756
H   H17       1.0  0.52010  0.25780  0.22510  1.0000 0.0914531756
H   H18       1.0  0.52010  0.24220  0.72510  1.0000 0.0914531756
H   H19       1.0  0.40140  0.19550  0.23450  1.0000 0.0914531756
H   H20       1.0  0.40140  0.30450  0.73450  1.0000 0.0914531756
H   H21       1.0  0.41530  0.26890  0.14350  1.0000 0.0914531756
H   H22       1.0  0.41530  0.23110  0.64350  1.0000 0.0914531756
H   H23       1.0  0.29940  0.20280  0.15120  1.0000 0.082236699
H   H24       1.0  0.29940  0.29720  0.65120  1.0000 0.082236699
H   H25       1.0  0.22620  0.31900  0.19660  1.0000 0.0914531756
H   H26       1.0  0.22620  0.18100  0.69660  1.0000 0.0914531756
H   H27       1.0  0.34370  0.38520  0.19000  1.0000 0.0914531756
H   H28       1.0  0.34370  0.11480  0.69000  1.0000 0.0914531756
H   H29       1.0  0.13890  0.32280  0.11250  1.0000 0.1100297358
H   H30       1.0  0.13890  0.17720  0.61250  1.0000 0.1100297358
H   H31       1.0  0.25320  0.39360  0.10760  1.0000 0.1100297358
H   H32       1.0  0.25320  0.10640  0.60760  1.0000 0.1100297358
H   H33       1.0  0.24080  0.55710  0.13510  1.0000 0.1306084834
H   H34       1.0  0.24080  0.94290  0.63510  1.0000 0.1306084834
H   H35       1.0  0.11030  0.67570  0.15250  1.0000 0.0974555232
H   H36       1.0  0.11030  0.82430  0.65250  1.0000 0.0974555232
H   H37       1.0  0.83520  0.49910  0.16580  1.0000 0.082236699
H   H38       1.0  0.83520  0.00090  0.66580  1.0000 0.082236699
H   H39       1.0  0.95350  0.37680  0.14510  1.0000 0.1306084834
H   H40       1.0  0.95350  0.12320  0.64510  1.0000 0.1306084834
H   H41       1.0  0.86950  0.85920  0.11010  1.0000 0.0974555232
H   H42       1.0  0.86950  0.64080  0.61010  1.0000 0.0974555232
H   H43       1.0  0.80080  0.89150  0.02980  1.0000 0.1306084834
H   H44       1.0  0.80080  0.60850  0.52980  1.0000 0.1306084834
H   H45       1.0  0.63290  0.63490  0.01240  1.0000 0.1306084834
H   H46       1.0  0.63290  0.86510  0.51240  1.0000 0.1306084834
H   H47       1.0  0.71210  0.61310  0.09170  1.0000 0.0914531756
H   H48       1.0  0.71210  0.88690  0.59170  1.0000 0.0914531756
H   H49       1.0  0.73440  0.80410  0.94520  1.0000 0.1100297358
H   H50       1.0  0.73440  0.69590  0.44520  1.0000 0.1100297358
H   H51       1.0  0.61680  0.73200  0.94280  1.0000 0.1100297358
H   H52       1.0  0.61680  0.76800  0.44280  1.0000 0.1100297358
H   H53       1.0  0.60420  0.92450  0.96220  1.0000 0.0914531756
H   H54       1.0  0.60420  0.57550  0.46220  1.0000 0.0914531756
H   H55       1.0  0.53270  0.87540  0.91360  1.0000 0.0914531756
H   H56       1.0  0.53270  0.62460  0.41360  1.0000 0.0914531756
H   H57       1.0  0.40280  0.79040  0.95680  1.0000 0.0914531756
H   H58       1.0  0.40280  0.70960  0.45680  1.0000 0.0914531756
H   H59       1.0  0.46740  0.85010  0.00270  1.0000 0.0914531756
H   H60       1.0  0.46740  0.64990  0.50270  1.0000 0.0914531756
H   H61       1.0  0.27300  0.91640  0.97390  1.0000 0.0914531756
H   H62       1.0  0.27300  0.58360  0.47390  1.0000 0.0914531756
H   H63       1.0  0.37750  0.98480  0.95970  1.0000 0.0914531756
H   H64       1.0  0.37750  0.51520  0.45970  1.0000 0.0914531756
H   H65       1.0  0.31890  0.91280  0.88030  1.0000 0.0914531756
H   H66       1.0  0.31890  0.58720  0.38030  1.0000 0.0914531756
H   H67       1.0  0.21240  0.98170  0.89350  1.0000 0.082236699
H   H68       1.0  0.21240  0.51830  0.39350  1.0000 0.082236699
H   H69       1.0  0.20200  0.78480  0.90370  1.0000 0.1100297358
H   H70       1.0  0.20200  0.71520  0.40370  1.0000 0.1100297358
H   H71       1.0  0.09280  0.85550  0.91320  1.0000 0.1100297358
H   H72       1.0  0.09280  0.64450  0.41320  1.0000 0.1100297358
H   H73       1.0  0.92720  0.91620  0.84420  1.0000 0.1306084834
H   H74       1.0  0.92720  0.58380  0.34420  1.0000 0.1306084834
H   H75       1.0  0.81770  0.89550  0.76640  1.0000 0.0974555232
H   H76       1.0  0.81770  0.60450  0.26640  1.0000 0.0974555232
H   H77       1.0  0.10450  0.74250  0.74220  1.0000 0.0914531756
H   H78       1.0  0.10450  0.75750  0.24220  1.0000 0.0914531756
H   H79       1.0  0.21800  0.75410  0.82020  1.0000 0.1306084834
H   H80       1.0  0.21800  0.74590  0.32020  1.0000 0.1306084834
H   H81       1.0  0.60600  0.63270  0.15720  1.0000 0.2572893866
H   H82       1.0  0.60600  0.86730  0.65720  1.0000 0.2572893866
H   H83       1.0  0.67640  0.57320  0.18980  1.0000 0.2543445297
H   H84       1.0  0.67640  0.92680  0.68980  1.0000 0.2572893866
H   H85       1.0  0.39980  0.20550  0.82670  1.0000 0.0914531756
H   H86       1.0  0.39980  0.29450  0.32670  1.0000 0.0914531756
H   H87       1.0  0.49750  0.07380  0.80490  1.0000 0.1306084834
H   H88       1.0  0.49750  0.42620  0.30490  1.0000 0.1306084834
H   H89       1.0  0.12750  0.97180  0.75300  1.0000 0.1156546895
H   H90       1.0  0.12750  0.52820  0.25300  1.0000 0.1156546895
H   H91       1.0  0.04660  0.10460  0.77770  1.0000 0.0914531756
H   H92       1.0  0.04660  0.39540  0.27770  1.0000 0.0914531756
H   H93       1.0  0.42500  0.94300  0.73100  1.0000 0.0974555232
H   H94       1.0  0.42500  0.55700  0.23100  1.0000 0.0974555232
H   H95       1.0  0.32700  0.86600  0.74500  1.0000 0.0914531756
H   H96       1.0  0.32700  0.63400  0.24500  1.0000 0.0914531756
H   H97       1.0  0.42880  0.85730  0.82540  1.0000 0.0914531756
H   H98       1.0  0.42880  0.64270  0.32540  1.0000 0.0914531756
H   H99       1.0  0.54890  0.91900  0.81740  1.0000 0.0914531756
H   H100      1.0  0.54890  0.58100  0.31740  1.0000 0.0914531756
H   H101      1.0  0.47990  0.74220  0.77490  1.0000 0.0914531756
H   H102      1.0  0.47990  0.75780  0.27490  1.0000 0.0914531756
H   H103      1.0  0.59860  0.80450  0.76550  1.0000 0.0914531756
H   H104      1.0  0.59860  0.69550  0.26550  1.0000 0.0914531756
H   H105      1.0  0.58470  0.73110  0.85650  1.0000 0.0914531756
H   H106      1.0  0.58470  0.76890  0.35650  1.0000 0.0914531756
H   H107      1.0  0.70060  0.79720  0.84880  1.0000 0.082236699
H   H108      1.0  0.70060  0.70280  0.34880  1.0000 0.082236699
H   H109      1.0  0.77380  0.68100  0.80340  1.0000 0.0914531756
H   H110      1.0  0.77380  0.81900  0.30340  1.0000 0.0914531756
H   H111      1.0  0.65630  0.61480  0.81000  1.0000 0.0914531756
H   H112      1.0  0.65630  0.88520  0.31000  1.0000 0.0914531756
H   H113      1.0  0.86110  0.67720  0.88750  1.0000 0.1100297358
H   H114      1.0  0.86110  0.82280  0.38750  1.0000 0.1100297358
H   H115      1.0  0.74680  0.60640  0.89240  1.0000 0.1100297358
H   H116      1.0  0.74680  0.89360  0.39240  1.0000 0.1100297358
H   H117      1.0  0.75920  0.44290  0.86490  1.0000 0.1306084834
H   H118      1.0  0.75920  0.05710  0.36490  1.0000 0.1306084834
H   H119      1.0  0.88970  0.32430  0.84750  1.0000 0.0974555232
H   H120      1.0  0.88970  0.17570  0.34750  1.0000 0.0974555232
H   H121      1.0  0.16480  0.50090  0.83420  1.0000 0.082236699
H   H122      1.0  0.16480  0.99910  0.33420  1.0000 0.082236699
H   H123      1.0  0.04650  0.62320  0.85490  1.0000 0.1306084834
H   H124      1.0  0.04650  0.87680  0.35490  1.0000 0.1306084834
H   H125      1.0  0.13050  0.14080  0.88990  1.0000 0.0974555232
H   H126      1.0  0.13050  0.35920  0.38990  1.0000 0.0974555232
H   H127      1.0  0.19920  0.10850  0.97020  1.0000 0.1306084834
H   H128      1.0  0.19920  0.39150  0.47020  1.0000 0.1306084834
H   H129      1.0  0.36710  0.36510  0.98760  1.0000 0.1306084834
H   H130      1.0  0.36710  0.13490  0.48760  1.0000 0.1306084834
H   H131      1.0  0.28790  0.38690  0.90830  1.0000 0.0914531756
H   H132      1.0  0.28790  0.11310  0.40830  1.0000 0.0914531756
H   H133      1.0  0.26560  0.19590  0.05480  1.0000 0.1100297358
H   H134      1.0  0.26560  0.30410  0.55480  1.0000 0.1100297358
H   H135      1.0  0.38320  0.26800  0.05720  1.0000 0.1100297358
H   H136      1.0  0.38320  0.23200  0.55720  1.0000 0.1100297358
H   H137      1.0  0.39580  0.07550  0.03780  1.0000 0.0914531756
H   H138      1.0  0.39580  0.42450  0.53780  1.0000 0.0914531756
H   H139      1.0  0.46730  0.12460  0.08640  1.0000 0.0974555232
H   H140      1.0  0.46730  0.37540  0.58640  1.0000 0.0974555232
H   H141      1.0  0.59720  0.20960  0.04320  1.0000 0.0914531756
H   H142      1.0  0.59720  0.29040  0.54320  1.0000 0.0914531756
H   H143      1.0  0.53260  0.14990  0.99730  1.0000 0.0914531756
H   H144      1.0  0.53260  0.35010  0.49730  1.0000 0.0914531756
H   H145      1.0  0.72700  0.08360  0.02610  1.0000 0.0914531756
H   H146      1.0  0.72700  0.41640  0.52610  1.0000 0.0914531756
H   H147      1.0  0.62250  0.01520  0.04030  1.0000 0.0914531756
H   H148      1.0  0.62250  0.48480  0.54030  1.0000 0.0914531756
H   H149      1.0  0.68110  0.08720  0.11970  1.0000 0.0914531756
H   H150      1.0  0.68110  0.41280  0.61970  1.0000 0.0914531756
H   H151      1.0  0.78760  0.01830  0.10650  1.0000 0.082236699
H   H152      1.0  0.78760  0.48170  0.60650  1.0000 0.082236699
H   H153      1.0  0.79800  0.21520  0.09630  1.0000 0.1100297358
H   H154      1.0  0.79800  0.28480  0.59630  1.0000 0.1100297358
H   H155      1.0  0.90720  0.14450  0.08680  1.0000 0.1100297358
H   H156      1.0  0.90720  0.35550  0.58680  1.0000 0.1100297358
H   H157      1.0  0.07280  0.08380  0.15580  1.0000 0.1306084834
H   H158      1.0  0.07280  0.41620  0.65580  1.0000 0.1306084834
H   H159      1.0  0.18230  0.10450  0.23360  1.0000 0.0974555232
H   H160      1.0  0.18230  0.39550  0.73360  1.0000 0.0974555232
H   H161      1.0  0.89550  0.25750  0.25780  1.0000 0.0914531756
H   H162      1.0  0.89550  0.24250  0.75780  1.0000 0.0914531756
H   H163      1.0  0.78200  0.24590  0.17980  1.0000 0.1306084834
H   H164      1.0  0.78200  0.25410  0.67980  1.0000 0.1306084834
H   H165      1.0  0.39400  0.36730  0.84280  1.0000 0.2572893866
H   H166      1.0  0.39400  0.13270  0.34280  1.0000 0.2572893866
H   H167      1.0  0.32360  0.42680  0.81020  1.0000 0.2543445297
H   H168      1.0  0.32360  0.07320  0.31020  1.0000 0.2543445297
C   C1        1.0  0.65580  0.84280  0.18860  1.0000 0.0655864656
C   C2        1.0  0.65580  0.65720  0.68860  1.0000 0.0655864656
C   C3        1.0  0.59570  0.92150  0.20170  1.0000 -0.2100270163
C   C4        1.0  0.59570  0.57850  0.70170  1.0000 -0.2100270163
C   C5        1.0  0.67420  0.99300  0.22460  1.0000 0.1540984467
C   C6        1.0  0.67420  0.50700  0.72460  1.0000 0.1540984467
C   C7        1.0  0.81380  0.98120  0.23200  1.0000 -0.2100270163
C   C8        1.0  0.81380  0.51880  0.73200  1.0000 -0.2100270163
C   C9        1.0  0.86060  0.90160  0.21730  1.0000 0.019778822
C   C10       1.0  0.86060  0.59840  0.71730  1.0000 0.019778822
C   C11       1.0  0.61020  0.07820  0.23960  1.0000 -0.2585686428
C   C12       1.0  0.61020  0.42180  0.73960  1.0000 -0.2585686428
C   C13       1.0  0.51970  0.12560  0.19810  1.0000 -0.1905432773
C   C14       1.0  0.51970  0.37440  0.69810  1.0000 -0.1905432773
C   C15       1.0  0.45300  0.21120  0.21080  1.0000 -0.1905432773
C   C16       1.0  0.45300  0.28880  0.71080  1.0000 -0.1905432773
C   C17       1.0  0.36160  0.25170  0.16630  1.0000 -0.2001917816
C   C18       1.0  0.36160  0.24830  0.66630  1.0000 -0.2001917816
C   C19       1.0  0.28260  0.33600  0.17470  1.0000 -0.1791101683
C   C20       1.0  0.28260  0.16400  0.67470  1.0000 -0.1791101683
C   C21       1.0  0.19660  0.37300  0.12880  1.0000 -0.2585686428
C   C22       1.0  0.19660  0.12700  0.62880  1.0000 -0.2585686428
C   C23       1.0  0.11160  0.45450  0.13830  1.0000 0.1679342233
C   C24       1.0  0.11160  0.04550  0.63830  1.0000 0.1679342233
C   C25       1.0  0.15670  0.54360  0.14080  1.0000 -0.2100270163
C   C26       1.0  0.15670  0.95640  0.64080  1.0000 -0.2100270163
C   C27       1.0  0.07880  0.61390  0.15180  1.0000 0.0379833926
C   C28       1.0  0.07880  0.88610  0.65180  1.0000 0.0379833926
C   C29       1.0  0.91840  0.51120  0.15900  1.0000 0.019778822
C   C30       1.0  0.91840  0.98880  0.65900  1.0000 0.019778822
C   C31       1.0  0.98860  0.43780  0.14720  1.0000 -0.2100270163
C   C32       1.0  0.98860  0.06220  0.64720  1.0000 -0.2100270163
C   C33       1.0  0.82020  0.81360  0.08990  1.0000 0.0481800877
C   C34       1.0  0.82020  0.68640  0.58990  1.0000 0.0481800877
C   C35       1.0  0.77890  0.83370  0.04160  1.0000 -0.2185292735
C   C36       1.0  0.77890  0.66630  0.54160  1.0000 -0.2185292735
C   C37       1.0  0.70620  0.76950  0.01110  1.0000 0.1679342233
C   C38       1.0  0.70620  0.73050  0.51110  1.0000 0.1679342233
C   C39       1.0  0.68080  0.68270  0.03140  1.0000 -0.2100270163
C   C40       1.0  0.68080  0.81730  0.53140  1.0000 -0.2100270163
C   C41       1.0  0.72800  0.67130  0.07880  1.0000 0.0379833926
C   C42       1.0  0.72800  0.82870  0.57880  1.0000 0.0379833926
C   C43       1.0  0.65800  0.78870  0.95870  1.0000 -0.2656038634
C   C44       1.0  0.65800  0.71130  0.45870  1.0000 -0.2656038634
C   C45       1.0  0.56040  0.86670  0.94850  1.0000 -0.1731321632
C   C46       1.0  0.56040  0.63330  0.44850  1.0000 -0.1731321632
C   C47       1.0  0.44050  0.85170  0.96760  1.0000 -0.1905432773
C   C48       1.0  0.44050  0.64830  0.46760  1.0000 -0.1905432773
C   C49       1.0  0.33610  0.92310  0.95330  1.0000 -0.2100270163
C   C50       1.0  0.33610  0.57690  0.45330  1.0000 -0.2100270163
C   C51       1.0  0.25780  0.92150  0.90150  1.0000 -0.1791101683
C   C52       1.0  0.25780  0.57850  0.40150  1.0000 -0.1791101683
C   C53       1.0  0.15700  0.84420  0.89340  1.0000 -0.2585686428
C   C54       1.0  0.15700  0.65580  0.39340  1.0000 -0.2585686428
C   C55       1.0  0.08320  0.83590  0.84150  1.0000 0.1582761027
C   C56       1.0  0.08320  0.66410  0.34150  1.0000 0.1582761027
C   C57       1.0  0.96490  0.87810  0.82410  1.0000 -0.2100270163
C   C58       1.0  0.96490  0.62190  0.32410  1.0000 -0.2100270163
C   C59       1.0  0.90000  0.86560  0.77740  1.0000 0.0300045072
C   C60       1.0  0.90000  0.63440  0.27740  1.0000 0.0300045072
C   C61       1.0  0.06560  0.77640  0.76360  1.0000 0.019778822
C   C62       1.0  0.06560  0.72360  0.26360  1.0000 0.019778822
C   C63       1.0  0.13540  0.78400  0.81000  1.0000 -0.2185292735
C   C64       1.0  0.13540  0.71600  0.31000  1.0000 -0.2185292735
C   C65       1.0  0.34420  0.15720  0.81140  1.0000 0.0655864656
C   C66       1.0  0.34420  0.34280  0.31140  1.0000 0.0655864656
C   C67       1.0  0.40430  0.07850  0.79830  1.0000 -0.2100270163
C   C68       1.0  0.40430  0.42150  0.29830  1.0000 -0.2100270163
C   C69       1.0  0.32580  0.00700  0.77540  1.0000 0.1540984467
C   C70       1.0  0.32580  0.49300  0.27540  1.0000 0.1540984467
C   C71       1.0  0.18620  0.01880  0.76800  1.0000 -0.2100270163
C   C72       1.0  0.18620  0.48120  0.26800  1.0000 -0.2100270163
C   C73       1.0  0.13940  0.09840  0.78270  1.0000 0.019778822
C   C74       1.0  0.13940  0.40160  0.28270  1.0000 0.019778822
C   C75       1.0  0.38980  0.92180  0.76040  1.0000 -0.2585686428
C   C76       1.0  0.38980  0.57820  0.26040  1.0000 -0.2585686428
C   C77       1.0  0.48030  0.87440  0.80190  1.0000 -0.1905432773
C   C78       1.0  0.48030  0.62560  0.30190  1.0000 -0.1905432773
C   C79       1.0  0.54700  0.78880  0.78920  1.0000 -0.1905432773
C   C80       1.0  0.54700  0.71120  0.28920  1.0000 -0.1905432773
C   C81       1.0  0.63840  0.74830  0.83370  1.0000 -0.2001917816
C   C82       1.0  0.63840  0.75170  0.33370  1.0000 -0.2001917816
C   C83       1.0  0.71740  0.66400  0.82530  1.0000 -0.1791101683
C   C84       1.0  0.71740  0.83600  0.32530  1.0000 -0.1791101683
C   C85       1.0  0.80340  0.62700  0.87120  1.0000 -0.2585686428
C   C86       1.0  0.80340  0.87300  0.37120  1.0000 -0.2585686428
C   C87       1.0  0.88840  0.54550  0.86170  1.0000 0.1679342233
C   C88       1.0  0.88840  0.95450  0.36170  1.0000 0.1679342233
C   C89       1.0  0.84330  0.45640  0.85920  1.0000 -0.2100270163
C   C90       1.0  0.84330  0.04360  0.35920  1.0000 -0.2100270163
C   C91       1.0  0.92120  0.38610  0.84820  1.0000 0.0379833926
C   C92       1.0  0.92120  0.11390  0.34820  1.0000 0.0379833926
C   C93       1.0  0.08160  0.48880  0.84100  1.0000 0.019778822
C   C94       1.0  0.08160  0.01120  0.34100  1.0000 0.019778822
C   C95       1.0  0.01140  0.56220  0.85280  1.0000 -0.2100270163
C   C96       1.0  0.01140  0.93780  0.35280  1.0000 -0.2100270163
C   C97       1.0  0.17980  0.18640  0.91010  1.0000 0.0481800877
C   C98       1.0  0.17980  0.31360  0.41010  1.0000 0.0481800877
C   C99       1.0  0.22110  0.16630  0.95840  1.0000 -0.2185292735
C   C100      1.0  0.22110  0.33370  0.45840  1.0000 -0.2185292735
C   C101      1.0  0.29380  0.23050  0.98890  1.0000 0.1679342233
C   C102      1.0  0.29380  0.26950  0.48890  1.0000 0.1679342233
C   C103      1.0  0.31920  0.31730  0.96860  1.0000 -0.2100270163
C   C104      1.0  0.31920  0.18270  0.46860  1.0000 -0.2100270163
C   C105      1.0  0.27200  0.32870  0.92120  1.0000 0.0379833926
C   C106      1.0  0.27200  0.17130  0.42120  1.0000 0.0379833926
C   C107      1.0  0.34200  0.21130  0.04130  1.0000 -0.2656038634
C   C108      1.0  0.34200  0.28870  0.54130  1.0000 -0.2656038634
C   C109      1.0  0.43960  0.13330  0.05150  1.0000 -0.1731321632
C   C110      1.0  0.43960  0.36670  0.55150  1.0000 -0.1731321632
C   C111      1.0  0.55950  0.14830  0.03240  1.0000 -0.1905432773
C   C112      1.0  0.55950  0.35170  0.53240  1.0000 -0.1905432773
C   C113      1.0  0.66390  0.07690  0.04670  1.0000 -0.2100270163
C   C114      1.0  0.66390  0.42310  0.54670  1.0000 -0.2100270163
C   C115      1.0  0.74220  0.07850  0.09850  1.0000 -0.1791101683
C   C116      1.0  0.74220  0.42150  0.59850  1.0000 -0.1791101683
C   C117      1.0  0.84300  0.15580  0.10660  1.0000 -0.2585686428
C   C118      1.0  0.84300  0.34420  0.60660  1.0000 -0.2585686428
C   C119      1.0  0.91680  0.16410  0.15850  1.0000 0.1582761027
C   C120      1.0  0.91680  0.33590  0.65850  1.0000 0.1582761027
C   C121      1.0  0.03510  0.12190  0.17590  1.0000 -0.2100270163
C   C122      1.0  0.03510  0.37810  0.67590  1.0000 -0.2100270163
C   C123      1.0  0.10000  0.13440  0.22260  1.0000 0.0300045072
C   C124      1.0  0.10000  0.36560  0.72260  1.0000 0.0300045072
C   C125      1.0  0.93440  0.22360  0.23640  1.0000 0.019778822
C   C126      1.0  0.93440  0.27640  0.73640  1.0000 0.019778822
C   C127      1.0  0.86460  0.21600  0.19000  1.0000 -0.2185292735
C   C128      1.0  0.86460  0.28400  0.69000  1.0000 -0.2185292735
N   N1        1.0  0.78534  0.83000  0.19594  1.0000 -0.2656038634
N   N2        1.0  0.78534  0.67000  0.69594  1.0000 -0.2656038634
N   N3        1.0  0.96143  0.59920  0.16143  1.0000 -0.2373703073
N   N4        1.0  0.96143  0.90080  0.66143  1.0000 -0.2373703073
N   N5        1.0  0.79450  0.73380  0.10930  1.0000 -0.2460411906
N   N6        1.0  0.79450  0.76620  0.60930  1.0000 -0.2460411906
N   N7        1.0  0.94689  0.81350  0.74669  1.0000 -0.2373703073
N   N8        1.0  0.94689  0.68650  0.24669  1.0000 -0.2373703073
N   N9        1.0  0.21466  0.17000  0.80406  1.0000 -0.2656038634
N   N10       1.0  0.21466  0.33000  0.30406  1.0000 -0.2656038634
N   N11       1.0  0.03857  0.40080  0.83857  1.0000 -0.2373703073
N   N12       1.0  0.03857  0.09920  0.33857  1.0000 -0.2373703073
N   N13       1.0  0.20550  0.26620  0.89070  1.0000 -0.2460411906
N   N14       1.0  0.20550  0.23380  0.39070  1.0000 -0.2460411906
N   N15       1.0  0.05311  0.18650  0.25331  1.0000 -0.2373703073
N   N16       1.0  0.05311  0.31350  0.75331  1.0000 -0.2373703073
O   O1        1.0  0.67263  0.62860  0.18093  1.0000 -0.6985740892
O   O2        1.0  0.67263  0.87140  0.68093  1.0000 -0.6985740892
O   O3        1.0  0.32737  0.37140  0.81907  1.0000 -0.6985740892
O   O4        1.0  0.32737  0.12860  0.31907  1.0000 -0.6985740892
