# DDEC6 charges by PACMAN v1.1 (https://github.com/mtap-research/PACMAN-charge/)
data_2001[Co][dia]3[FSR]4
_chemical_formula_sum              "Co4 H36 C48 N8 O18"
_cell_length_a       10.5344
_cell_length_b       11.9073
_cell_length_c       14.09
_cell_angle_alpha    106.172
_cell_angle_beta     102.893
_cell_angle_gamma    112.078

_symmetry_space_group_name_H-M    "P 1"
_symmetry_Int_Tables_number       1

loop_
  _symmetry_equiv_pos_as_xyz
  'x, y, z'

loop_
  _atom_site_type_symbol
  _atom_site_label
  _atom_site_symmetry_multiplicity
  _atom_site_fract_x
  _atom_site_fract_y
  _atom_site_fract_z
  _atom_site_occupancy
  _atom_site_charge
Co  Co1       1.0  0.02131  0.22144  0.21280  1.0000 0.8875467225
Co  Co2       1.0  0.97869  0.77856  0.78720  1.0000 0.8875467225
Co  Co3       1.0  0.76034  0.04083  0.31163  1.0000 0.8875467225
Co  Co4       1.0  0.23966  0.95917  0.68837  1.0000 0.8875467225
H   H1        1.0  0.77400  0.18500  0.21000  1.0000 0.3220157146
H   H2        1.0  0.22600  0.81500  0.79000  1.0000 0.3220157146
H   H3        1.0  0.83500  0.26600  0.31100  1.0000 0.3220157146
H   H4        1.0  0.16500  0.73400  0.68900  1.0000 0.3220157146
H   H5        1.0  0.37590  0.38070  0.53010  1.0000 0.1293414026
H   H6        1.0  0.62410  0.61930  0.46990  1.0000 0.1293414026
H   H7        1.0  0.54610  0.40800  0.68490  1.0000 0.1195360839
H   H8        1.0  0.45390  0.59200  0.31510  1.0000 0.1195360839
H   H9        1.0  0.49130  0.24240  0.74640  1.0000 0.1015995264
H   H10       1.0  0.50870  0.75760  0.25360  1.0000 0.1015995264
H   H11       1.0  0.11780  0.01590  0.50360  1.0000 0.1195360839
H   H12       1.0  0.88220  0.98410  0.49640  1.0000 0.1195360839
H   H13       1.0  0.22300  0.79160  0.36120  1.0000 0.1195360839
H   H14       1.0  0.77700  0.20840  0.63880  1.0000 0.1195360839
H   H15       1.0  0.19460  0.66990  0.18830  1.0000 0.1293414026
H   H16       1.0  0.80540  0.33010  0.81170  1.0000 0.1293414026
H   H17       1.0  0.11590  0.44570  0.13320  1.0000 0.10956902
H   H18       1.0  0.88410  0.55430  0.86680  1.0000 0.10956902
H   H19       1.0  0.10880  0.45870  0.41440  1.0000 0.1195360839
H   H20       1.0  0.89120  0.54130  0.58560  1.0000 0.1195360839
H   H21       1.0  0.52150  0.78050  0.96110  1.0000 0.1293414026
H   H22       1.0  0.47850  0.21950  0.03890  1.0000 0.1293414026
H   H23       1.0  0.45290  0.67020  0.77610  1.0000 0.137843345
H   H24       1.0  0.54710  0.32980  0.22390  1.0000 0.137843345
H   H25       1.0  0.63070  0.66370  0.70750  1.0000 0.1015995264
H   H26       1.0  0.36930  0.33630  0.29250  1.0000 0.1015995264
H   H27       1.0  0.94250  0.88260  0.98980  1.0000 0.10956902
H   H28       1.0  0.05750  0.11740  0.01020  1.0000 0.10956902
H   H29       1.0  0.86830  0.08780  0.86160  1.0000 0.1293414026
H   H30       1.0  0.13170  0.91220  0.13840  1.0000 0.1293414026
H   H31       1.0  0.73620  0.98420  0.67680  1.0000 0.1293414026
H   H32       1.0  0.26380  0.01580  0.32320  1.0000 0.1293414026
H   H33       1.0  0.49280  0.93610  0.61070  1.0000 0.1015995264
H   H34       1.0  0.50720  0.06390  0.38930  1.0000 0.1015995264
H   H35       1.0  0.49250  0.06540  0.89960  1.0000 0.10956902
H   H36       1.0  0.50750  0.93460  0.10040  1.0000 0.10956902
C   C1        1.0  0.10650  0.17280  0.40610  1.0000 0.5840353712
C   C2        1.0  0.89350  0.82720  0.59390  1.0000 0.5840353712
C   C3        1.0  0.22610  0.19430  0.50190  1.0000 -0.0605697877
C   C4        1.0  0.77390  0.80570  0.49810  1.0000 -0.0605697877
C   C5        1.0  0.35600  0.31240  0.55560  1.0000 -0.0605697877
C   C6        1.0  0.64400  0.68760  0.44440  1.0000 -0.0605697877
C   C7        1.0  0.45570  0.32840  0.64680  1.0000 -0.1517204996
C   C8        1.0  0.54430  0.67160  0.35320  1.0000 -0.1517204996
C   C9        1.0  0.42310  0.22840  0.68200  1.0000 0.0840629532
C   C10       1.0  0.57690  0.77160  0.31800  1.0000 0.0840629532
C   C11       1.0  0.20540  0.09800  0.54160  1.0000 0.0525981381
C   C12       1.0  0.79460  0.90200  0.45840  1.0000 0.0525981381
C   C13       1.0  0.18560  0.70930  0.51870  1.0000 0.5631820902
C   C14       1.0  0.81440  0.29070  0.48130  1.0000 0.5631820902
C   C15       1.0  0.16900  0.63610  0.40610  1.0000 -0.0605697877
C   C16       1.0  0.83100  0.36390  0.59390  1.0000 -0.0605697877
C   C17       1.0  0.19390  0.69970  0.33780  1.0000 -0.0605697877
C   C18       1.0  0.80610  0.30030  0.66220  1.0000 -0.0605697877
C   C19       1.0  0.17580  0.62800  0.23560  1.0000 -0.1517204996
C   C20       1.0  0.82420  0.37200  0.76440  1.0000 -0.1517204996
C   C21       1.0  0.13000  0.49500  0.20400  1.0000 0.0683132827
C   C22       1.0  0.87000  0.50500  0.79600  1.0000 0.0683132827
C   C23       1.0  0.12510  0.50240  0.36790  1.0000 0.0683132827
C   C24       1.0  0.87490  0.49760  0.63210  1.0000 0.0683132827
C   C25       1.0  0.80260  0.92880  0.11180  1.0000 0.5874150738
C   C26       1.0  0.19740  0.07120  0.88820  1.0000 0.5874150738
C   C27       1.0  0.74180  0.84470  0.99440  1.0000 -0.0678879798
C   C28       1.0  0.25820  0.15530  0.00560  1.0000 -0.0678879798
C   C29       1.0  0.59360  0.77980  0.93110  1.0000 -0.0403615267
C   C30       1.0  0.40640  0.22020  0.06890  1.0000 -0.0403615267
C   C31       1.0  0.55330  0.71330  0.82210  1.0000 -0.1416045979
C   C32       1.0  0.44670  0.28670  0.17790  1.0000 -0.1416045979
C   C33       1.0  0.66000  0.71060  0.78180  1.0000 0.0603785429
C   C34       1.0  0.34000  0.28940  0.21820  1.0000 0.0603785429
C   C35       1.0  0.84090  0.83740  0.94630  1.0000 0.0603785429
C   C36       1.0  0.15910  0.16260  0.05370  1.0000 0.0603785429
C   C37       1.0  0.76270  0.15030  0.01960  1.0000 0.5631820902
C   C38       1.0  0.23730  0.84970  0.98040  1.0000 0.5631820902
C   C39       1.0  0.69230  0.08910  0.89990  1.0000 -0.0678879798
C   C40       1.0  0.30770  0.91090  0.10010  1.0000 -0.0678879798
C   C41       1.0  0.76680  0.06430  0.83330  1.0000 -0.0546097264
C   C42       1.0  0.23320  0.93570  0.16670  1.0000 -0.0546097264
C   C43       1.0  0.68890  0.00440  0.72430  1.0000 -0.1517204996
C   C44       1.0  0.31110  0.99560  0.27570  1.0000 -0.1517204996
C   C45       1.0  0.54350  0.97460  0.68550  1.0000 0.0683132827
C   C46       1.0  0.45650  0.02540  0.31450  1.0000 0.0683132827
C   C47       1.0  0.54430  0.05180  0.85400  1.0000 0.0603785429
C   C48       1.0  0.45570  0.94820  0.14600  1.0000 0.0603785429
N   N1        1.0  0.30170  0.11330  0.63100  1.0000 -0.2254553393
N   N2        1.0  0.69830  0.88670  0.36900  1.0000 -0.2254553393
N   N3        1.0  0.10390  0.43030  0.26790  1.0000 -0.2577590227
N   N4        1.0  0.89610  0.56970  0.73210  1.0000 -0.2577590227
N   N5        1.0  0.80240  0.77050  0.84190  1.0000 -0.245881866
N   N6        1.0  0.19760  0.22950  0.15810  1.0000 -0.2447700009
N   N7        1.0  0.46980  0.99730  0.74840  1.0000 -0.2577590227
N   N8        1.0  0.53020  0.00270  0.25160  1.0000 -0.2577590227
O   O1        1.0  0.98060  0.08130  0.38180  1.0000 -0.5418002263
O   O2        1.0  0.01940  0.91870  0.61820  1.0000 -0.5418002263
O   O3        1.0  0.14500  0.24900  0.36020  1.0000 -0.5546057478
O   O4        1.0  0.85500  0.75100  0.63980  1.0000 -0.5546057478
O   O5        1.0  0.17360  0.64680  0.57630  1.0000 -0.523950334
O   O6        1.0  0.82640  0.35320  0.42370  1.0000 -0.523950334
O   O7        1.0  0.21000  0.82780  0.54350  1.0000 -0.5695606128
O   O8        1.0  0.79000  0.17220  0.45650  1.0000 -0.5695606128
O   O9        1.0  0.93490  0.01500  0.15080  1.0000 -0.559504594
O   O10       1.0  0.06510  0.98500  0.84920  1.0000 -0.559504594
O   O11       1.0  0.71570  0.90820  0.16230  1.0000 -0.559504594
O   O12       1.0  0.28430  0.09180  0.83770  1.0000 -0.559504594
O   O13       1.0  0.89880  0.19340  0.05980  1.0000 -0.5695606128
O   O14       1.0  0.10120  0.80660  0.94020  1.0000 -0.5695606128
O   O15       1.0  0.67740  0.14970  0.06920  1.0000 -0.5300039009
O   O16       1.0  0.32260  0.85030  0.93080  1.0000 -0.5300039009
O   O17       1.0  0.83320  0.19820  0.25840  1.0000 -0.6712939993
O   O18       1.0  0.16680  0.80180  0.74160  1.0000 -0.6712939993
