# DDEC6 charges by PACMAN v1.1 (https://github.com/mtap-research/PACMAN-charge/)
data_2001[Co][lvt]3[FSR]1
_chemical_formula_sum              "Co4 H152 C136 N32 O16"
_cell_length_a       18.9667
_cell_length_b       18.9667
_cell_length_c       18.9667
_cell_angle_alpha    107.922
_cell_angle_beta     107.922
_cell_angle_gamma    112.615

_symmetry_space_group_name_H-M    "P 1"
_symmetry_Int_Tables_number       1

loop_
  _symmetry_equiv_pos_as_xyz
  'x, y, z'

loop_
  _atom_site_type_symbol
  _atom_site_label
  _atom_site_symmetry_multiplicity
  _atom_site_fract_x
  _atom_site_fract_y
  _atom_site_fract_z
  _atom_site_occupancy
  _atom_site_charge
Co  Co1       1.0  0.62500  0.37500  0.75000  1.0000 0.761715006
Co  Co2       1.0  0.12500  0.37500  0.75000  1.0000 0.761715006
Co  Co3       1.0  0.62500  0.37500  0.25000  1.0000 0.761715006
Co  Co4       1.0  0.62500  0.87500  0.25000  1.0000 0.761715006
H   H1        1.0  0.74790  0.55210  0.77340  1.0000 0.2695167474
H   H2        1.0  0.22450  0.49790  0.69580  1.0000 0.2695167474
H   H3        1.0  0.80210  0.52870  0.30420  1.0000 0.2695167474
H   H4        1.0  0.47130  0.77550  0.27340  1.0000 0.2695167474
H   H5        1.0  0.44790  0.22130  0.19580  1.0000 0.2695167474
H   H6        1.0  0.50210  0.19790  0.72660  1.0000 0.2695167474
H   H7        1.0  0.02550  0.25210  0.80420  1.0000 0.2695167474
H   H8        1.0  0.77870  0.97450  0.22660  1.0000 0.2695167474
H   H9        1.0  0.59650  0.19440  0.66930  1.0000 0.2587728015
H   H10       1.0  0.17720  0.34650  0.90210  1.0000 0.2587728015
H   H11       1.0  0.44440  0.27510  0.09790  1.0000 0.2587728015
H   H12       1.0  0.72490  0.82280  0.16930  1.0000 0.2587728015
H   H13       1.0  0.80560  0.47490  0.40210  1.0000 0.2587728015
H   H14       1.0  0.65350  0.55560  0.83070  1.0000 0.2587728015
H   H15       1.0  0.07280  0.40350  0.59790  1.0000 0.2587728015
H   H16       1.0  0.52510  0.92720  0.33070  1.0000 0.2587728015
H   H17       1.0  0.82620  0.67880  0.75280  1.0000 0.1397693039
H   H18       1.0  0.32340  0.57620  0.64740  1.0000 0.1397693039
H   H19       1.0  0.92880  0.67600  0.35260  1.0000 0.1397693039
H   H20       1.0  0.32400  0.67660  0.25280  1.0000 0.1397693039
H   H21       1.0  0.32120  0.07400  0.14740  1.0000 0.1397693039
H   H22       1.0  0.42380  0.07120  0.74720  1.0000 0.1397693039
H   H23       1.0  0.92660  0.17380  0.85260  1.0000 0.1397693039
H   H24       1.0  0.92600  0.07340  0.24720  1.0000 0.1397693039
H   H25       1.0  0.78050  0.65310  0.65700  1.0000 0.1501310458
H   H26       1.0  0.37350  0.53050  0.62740  1.0000 0.1501310458
H   H27       1.0  0.90310  0.74610  0.37260  1.0000 0.1501310458
H   H28       1.0  0.25390  0.62650  0.15700  1.0000 0.1501310458
H   H29       1.0  0.34690  0.00390  0.12740  1.0000 0.1501310458
H   H30       1.0  0.46950  0.09690  0.84300  1.0000 0.1501310458
H   H31       1.0  0.87650  0.21950  0.87260  1.0000 0.1501310458
H   H32       1.0  0.99610  0.12350  0.34300  1.0000 0.1501310458
H   H33       1.0  0.86900  0.65800  0.69700  1.0000 0.1300718591
H   H34       1.0  0.42200  0.61900  0.71100  1.0000 0.1300718591
H   H35       1.0  0.90800  0.71100  0.28900  1.0000 0.1300718591
H   H36       1.0  0.28900  0.57800  0.19700  1.0000 0.1300718591
H   H37       1.0  0.34200  0.03900  0.21100  1.0000 0.1300718591
H   H38       1.0  0.38100  0.09200  0.80300  1.0000 0.1300718591
H   H39       1.0  0.82800  0.13100  0.78900  1.0000 0.1300718591
H   H40       1.0  0.96100  0.17200  0.30300  1.0000 0.1300718591
H   H41       1.0  0.62620  0.27620  0.58100  1.0000 0.1397693039
H   H42       1.0  0.29520  0.37620  0.85000  1.0000 0.1397693039
H   H43       1.0  0.52620  0.44520  0.15000  1.0000 0.1397693039
H   H44       1.0  0.55480  0.70480  0.08100  1.0000 0.1397693039
H   H45       1.0  0.72380  0.30480  0.35000  1.0000 0.1397693039
H   H46       1.0  0.62380  0.47380  0.91900  1.0000 0.1397693039
H   H47       1.0  0.95480  0.37380  0.65000  1.0000 0.1397693039
H   H48       1.0  0.69520  0.04520  0.41900  1.0000 0.1397693039
H   H49       1.0  0.69610  0.30130  0.55100  1.0000 0.1501310458
H   H50       1.0  0.39510  0.44610  0.89480  1.0000 0.1501310458
H   H51       1.0  0.55130  0.50030  0.10520  1.0000 0.1501310458
H   H52       1.0  0.49970  0.60490  0.05100  1.0000 0.1501310458
H   H53       1.0  0.69870  0.24970  0.39480  1.0000 0.1501310458
H   H54       1.0  0.55390  0.44870  0.94900  1.0000 0.1501310458
H   H55       1.0  0.85490  0.30390  0.60520  1.0000 0.1501310458
H   H56       1.0  0.75030  0.14510  0.44900  1.0000 0.1501310458
H   H57       1.0  0.60740  0.29340  0.50360  1.0000 0.1397693039
H   H58       1.0  0.35380  0.35740  0.81400  1.0000 0.1397693039
H   H59       1.0  0.54340  0.53980  0.18600  1.0000 0.1397693039
H   H60       1.0  0.46020  0.64620  0.00360  1.0000 0.1397693039
H   H61       1.0  0.70660  0.21020  0.31400  1.0000 0.1397693039
H   H62       1.0  0.64260  0.45660  0.99640  1.0000 0.1397693039
H   H63       1.0  0.89620  0.39260  0.68600  1.0000 0.1397693039
H   H64       1.0  0.78980  0.10380  0.49640  1.0000 0.1397693039
H   H65       1.0  0.82520  0.45770  0.84130  1.0000 0.1397693039
H   H66       1.0  0.23390  0.57520  0.86750  1.0000 0.1397693039
H   H67       1.0  0.70770  0.36640  0.13250  1.0000 0.1397693039
H   H68       1.0  0.63360  0.76610  0.34130  1.0000 0.1397693039
H   H69       1.0  0.54230  0.38360  0.36750  1.0000 0.1397693039
H   H70       1.0  0.42480  0.29230  0.65870  1.0000 0.1397693039
H   H71       1.0  0.01610  0.17480  0.63250  1.0000 0.1397693039
H   H72       1.0  0.61640  0.98390  0.15870  1.0000 0.1397693039
H   H73       1.0  0.88870  0.42740  0.87390  1.0000 0.1501310458
H   H74       1.0  0.26480  0.63870  0.96130  1.0000 0.1501310458
H   H75       1.0  0.67740  0.30350  0.03870  1.0000 0.1501310458
H   H76       1.0  0.69650  0.73520  0.37390  1.0000 0.1501310458
H   H77       1.0  0.57260  0.44650  0.46130  1.0000 0.1501310458
H   H78       1.0  0.36130  0.32260  0.62610  1.0000 0.1501310458
H   H79       1.0  0.98520  0.11130  0.53870  1.0000 0.1501310458
H   H80       1.0  0.55350  0.01480  0.12610  1.0000 0.1501310458
H   H81       1.0  0.87970  0.44440  0.79670  1.0000 0.1397693039
H   H82       1.0  0.33300  0.62970  0.93530  1.0000 0.1397693039
H   H83       1.0  0.69440  0.39770  0.06470  1.0000 0.1397693039
H   H84       1.0  0.60230  0.66700  0.29670  1.0000 0.1397693039
H   H85       1.0  0.55560  0.35230  0.43530  1.0000 0.1397693039
H   H86       1.0  0.37030  0.30560  0.70330  1.0000 0.1397693039
H   H87       1.0  0.91700  0.12030  0.56470  1.0000 0.1397693039
H   H88       1.0  0.64770  0.08300  0.20330  1.0000 0.1397693039
H   H89       1.0  0.60280  0.06180  0.59460  1.0000 0.156508278
H   H90       1.0  0.25820  0.35280  0.04100  1.0000 0.156508278
H   H91       1.0  0.31180  0.21720  0.95900  1.0000 0.156508278
H   H92       1.0  0.78280  0.74180  0.09460  1.0000 0.156508278
H   H93       1.0  0.93820  0.53280  0.54100  1.0000 0.156508278
H   H94       1.0  0.64720  0.68820  0.90540  1.0000 0.156508278
H   H95       1.0  0.99180  0.39720  0.45900  1.0000 0.156508278
H   H96       1.0  0.46720  0.00820  0.40540  1.0000 0.156508278
H   H97       1.0  0.68240  0.08950  0.57750  1.0000 0.1501310458
H   H98       1.0  0.35490  0.43240  0.09290  1.0000 0.1501310458
H   H99       1.0  0.33950  0.26200  0.90710  1.0000 0.1501310458
H   H100      1.0  0.73800  0.64510  0.07750  1.0000 0.1501310458
H   H101      1.0  0.91050  0.48800  0.59290  1.0000 0.1501310458
H   H102      1.0  0.56760  0.66050  0.92250  1.0000 0.1501310458
H   H103      1.0  0.89510  0.31760  0.40710  1.0000 0.1501310458
H   H104      1.0  0.51200  0.10490  0.42250  1.0000 0.1501310458
H   H105      1.0  0.68880  0.07220  0.65420  1.0000 0.1397693039
H   H106      1.0  0.28460  0.43880  0.11660  1.0000 0.1397693039
H   H107      1.0  0.32220  0.16800  0.88340  1.0000 0.1397693039
H   H108      1.0  0.83200  0.71540  0.15420  1.0000 0.1397693039
H   H109      1.0  0.92780  0.58200  0.61660  1.0000 0.1397693039
H   H110      1.0  0.56120  0.67780  0.84580  1.0000 0.1397693039
H   H111      1.0  0.96540  0.31120  0.38340  1.0000 0.1397693039
H   H112      1.0  0.41800  0.03460  0.34580  1.0000 0.1397693039
H   H113      1.0  0.79290  0.46840  0.00690  1.0000 0.1300718591
H   H114      1.0  0.03600  0.54290  0.82450  1.0000 0.1300718591
H   H115      1.0  0.71840  0.21150  0.17550  1.0000 0.1300718591
H   H116      1.0  0.78850  0.96400  0.50690  1.0000 0.1300718591
H   H117      1.0  0.53160  0.53850  0.32450  1.0000 0.1300718591
H   H118      1.0  0.45710  0.28160  0.49310  1.0000 0.1300718591
H   H119      1.0  0.21400  0.20710  0.67550  1.0000 0.1300718591
H   H120      1.0  0.46150  0.78600  0.99310  1.0000 0.1300718591
H   H121      1.0  0.88840  0.52390  0.14930  1.0000 0.1300718591
H   H122      1.0  0.98910  0.63840  0.86450  1.0000 0.1300718591
H   H123      1.0  0.77390  0.12460  0.13550  1.0000 0.1300718591
H   H124      1.0  0.87540  0.01090  0.64930  1.0000 0.1300718591
H   H125      1.0  0.47610  0.62540  0.36450  1.0000 0.1300718591
H   H126      1.0  0.36160  0.22610  0.35070  1.0000 0.1300718591
H   H127      1.0  0.26090  0.11160  0.63550  1.0000 0.1300718591
H   H128      1.0  0.37460  0.73910  0.85070  1.0000 0.1300718591
H   H129      1.0  0.00340  0.66360  0.22940  1.0000 0.1177015018
H   H130      1.0  0.02400  0.75340  0.83980  1.0000 0.1177015018
H   H131      1.0  0.91360  0.18420  0.16020  1.0000 0.1177015018
H   H132      1.0  0.81580  0.97600  0.72940  1.0000 0.1177015018
H   H133      1.0  0.33640  0.56580  0.33980  1.0000 0.1177015018
H   H134      1.0  0.24660  0.08640  0.27060  1.0000 0.1177015018
H   H135      1.0  0.22600  0.99660  0.66020  1.0000 0.1177015018
H   H136      1.0  0.43420  0.77400  0.77060  1.0000 0.1177015018
H   H137      1.0  0.02470  0.75740  0.17490  1.0000 0.1177015018
H   H138      1.0  0.09980  0.77470  0.76730  1.0000 0.1177015018
H   H139      1.0  0.00740  0.33250  0.23270  1.0000 0.1177015018
H   H140      1.0  0.66750  0.90020  0.67490  1.0000 0.1177015018
H   H141      1.0  0.24260  0.41750  0.26730  1.0000 0.1177015018
H   H142      1.0  0.22530  0.99260  0.32510  1.0000 0.1177015018
H   H143      1.0  0.15020  0.97530  0.73270  1.0000 0.1177015018
H   H144      1.0  0.58250  0.84980  0.82510  1.0000 0.1177015018
H   H145      1.0  0.92600  0.70990  0.03250  1.0000 0.1177015018
H   H146      1.0  0.14350  0.67600  0.71610  1.0000 0.1177015018
H   H147      1.0  0.95990  0.42740  0.28390  1.0000 0.1177015018
H   H148      1.0  0.57260  0.85650  0.53250  1.0000 0.1177015018
H   H149      1.0  0.29010  0.32260  0.21610  1.0000 0.1177015018
H   H150      1.0  0.32400  0.04010  0.46750  1.0000 0.1177015018
H   H151      1.0  0.10650  0.07400  0.78390  1.0000 0.1177015018
H   H152      1.0  0.67740  0.89350  0.96750  1.0000 0.1177015018
C   C1        1.0  0.69100  0.40480  0.61500  1.0000 0.2131651602
C   C2        1.0  0.32600  0.44100  0.78620  1.0000 0.2131651602
C   C3        1.0  0.65480  0.53980  0.21380  1.0000 0.2131651602
C   C4        1.0  0.46020  0.67400  0.11500  1.0000 0.2131651602
C   C5        1.0  0.59520  0.21020  0.28620  1.0000 0.2131651602
C   C6        1.0  0.55900  0.34520  0.88500  1.0000 0.2131651602
C   C7        1.0  0.92400  0.30900  0.71380  1.0000 0.2131651602
C   C8        1.0  0.78980  0.07600  0.38500  1.0000 0.2131651602
C   C9        1.0  0.73460  0.47410  0.60190  1.0000 -0.1318314784
C   C10       1.0  0.38270  0.48460  0.76050  1.0000 -0.1318314784
C   C11       1.0  0.72410  0.62220  0.23950  1.0000 -0.1318314784
C   C12       1.0  0.37780  0.61730  0.10190  1.0000 -0.1318314784
C   C13       1.0  0.52590  0.12780  0.26050  1.0000 -0.1318314784
C   C14       1.0  0.51540  0.27590  0.89810  1.0000 -0.1318314784
C   C15       1.0  0.86730  0.26540  0.73950  1.0000 -0.1318314784
C   C16       1.0  0.87220  0.13270  0.39810  1.0000 -0.1318314784
C   C17       1.0  0.76470  0.54970  0.67400  1.0000 0.1928801368
C   C18       1.0  0.34070  0.51470  0.71500  1.0000 0.1928801368
C   C19       1.0  0.79970  0.62570  0.28500  1.0000 0.1928801368
C   C20       1.0  0.37430  0.65930  0.17400  1.0000 0.1928801368
C   C21       1.0  0.45030  0.12430  0.21500  1.0000 0.1928801368
C   C22       1.0  0.48530  0.20030  0.82600  1.0000 0.1928801368
C   C23       1.0  0.90930  0.23530  0.78500  1.0000 0.1928801368
C   C24       1.0  0.87570  0.09070  0.32600  1.0000 0.1928801368
C   C25       1.0  0.81480  0.64320  0.69740  1.0000 -0.4594166764
C   C26       1.0  0.36740  0.56480  0.67160  1.0000 -0.4594166764
C   C27       1.0  0.89320  0.69580  0.32840  1.0000 -0.4594166764
C   C28       1.0  0.30420  0.63260  0.19740  1.0000 -0.4594166764
C   C29       1.0  0.35680  0.05420  0.17160  1.0000 -0.4594166764
C   C30       1.0  0.43520  0.10680  0.80260  1.0000 -0.4594166764
C   C31       1.0  0.88260  0.18520  0.82840  1.0000 -0.4594166764
C   C32       1.0  0.94580  0.11740  0.30260  1.0000 -0.4594166764
C   C33       1.0  0.65180  0.31050  0.55770  1.0000 -0.4794089236
C   C34       1.0  0.34410  0.40180  0.84130  1.0000 -0.4794089236
C   C35       1.0  0.56050  0.50280  0.15870  1.0000 -0.4794089236
C   C36       1.0  0.49720  0.65590  0.05770  1.0000 -0.4794089236
C   C37       1.0  0.68950  0.24720  0.34130  1.0000 -0.4794089236
C   C38       1.0  0.59820  0.43950  0.94230  1.0000 -0.4794089236
C   C39       1.0  0.90590  0.34820  0.65870  1.0000 -0.4794089236
C   C40       1.0  0.75280  0.09410  0.44230  1.0000 -0.4794089236
C   C41       1.0  0.81190  0.48980  0.51250  1.0000 0.1821399144
C   C42       1.0  0.54940  0.56190  0.82210  1.0000 0.1821399144
C   C43       1.0  0.73980  0.72730  0.17790  1.0000 0.1821399144
C   C44       1.0  0.27270  0.45060  0.01250  1.0000 0.1821399144
C   C45       1.0  0.51020  0.02270  0.32210  1.0000 0.1821399144
C   C46       1.0  0.43810  0.26020  0.98750  1.0000 0.1821399144
C   C47       1.0  0.70060  0.18810  0.67790  1.0000 0.1821399144
C   C48       1.0  0.97730  0.29940  0.48750  1.0000 0.1821399144
C   C49       1.0  0.74050  0.46760  0.52430  1.0000 -0.1318314784
C   C50       1.0  0.46620  0.49050  0.77290  1.0000 -0.1318314784
C   C51       1.0  0.71760  0.69330  0.22710  1.0000 -0.1318314784
C   C52       1.0  0.30670  0.53380  0.02430  1.0000 -0.1318314784
C   C53       1.0  0.53240  0.05670  0.27290  1.0000 -0.1318314784
C   C54       1.0  0.50950  0.28240  0.97570  1.0000 -0.1318314784
C   C55       1.0  0.78380  0.25950  0.72710  1.0000 -0.1318314784
C   C56       1.0  0.94330  0.21620  0.47570  1.0000 -0.1318314784
C   C57       1.0  0.77640  0.33110  0.76510  1.0000 0.2227555028
C   C58       1.0  0.26130  0.52640  0.94530  1.0000 0.2227555028
C   C59       1.0  0.58110  0.31600  0.05470  1.0000 0.2227555028
C   C60       1.0  0.68400  0.73870  0.26510  1.0000 0.2227555028
C   C61       1.0  0.66890  0.43400  0.44530  1.0000 0.2227555028
C   C62       1.0  0.47360  0.41890  0.73490  1.0000 0.2227555028
C   C63       1.0  0.98870  0.22360  0.55470  1.0000 0.2227555028
C   C64       1.0  0.56600  0.01130  0.23490  1.0000 0.2227555028
C   C65       1.0  0.84910  0.42330  0.82460  1.0000 -0.4871668518
C   C66       1.0  0.27450  0.59910  0.92580  1.0000 -0.4871668518
C   C67       1.0  0.67330  0.34870  0.07420  1.0000 -0.4871668518
C   C68       1.0  0.65130  0.72550  0.32460  1.0000 -0.4871668518
C   C69       1.0  0.57670  0.40130  0.42580  1.0000 -0.4871668518
C   C70       1.0  0.40090  0.32670  0.67540  1.0000 -0.4871668518
C   C71       1.0  0.97550  0.15090  0.57420  1.0000 -0.4871668518
C   C72       1.0  0.59870  0.02450  0.17540  1.0000 -0.4871668518
C   C73       1.0  0.66540  0.09460  0.62060  1.0000 -0.4794089236
C   C74       1.0  0.29480  0.41540  0.07080  1.0000 -0.4794089236
C   C75       1.0  0.34460  0.22400  0.92920  1.0000 -0.4794089236
C   C76       1.0  0.77600  0.70520  0.12060  1.0000 -0.4794089236
C   C77       1.0  0.90540  0.52600  0.57080  1.0000 -0.4794089236
C   C78       1.0  0.58460  0.65540  0.87940  1.0000 -0.4794089236
C   C79       1.0  0.95520  0.33460  0.42920  1.0000 -0.4794089236
C   C80       1.0  0.47400  0.04480  0.37940  1.0000 -0.4794089236
C   C81       1.0  0.78340  0.55300  0.91740  1.0000 0.5536877028
C   C82       1.0  0.11600  0.53340  0.73040  1.0000 0.5536877028
C   C83       1.0  0.80300  0.38560  0.26960  1.0000 0.5536877028
C   C84       1.0  0.61440  0.88400  0.41740  1.0000 0.5536877028
C   C85       1.0  0.44700  0.36440  0.23040  1.0000 0.5536877028
C   C86       1.0  0.46660  0.19700  0.58260  1.0000 0.5536877028
C   C87       1.0  0.13400  0.21660  0.76960  1.0000 0.5536877028
C   C88       1.0  0.63560  0.86600  0.08260  1.0000 0.5536877028
C   C89       1.0  0.84830  0.58390  0.00640  1.0000 -0.0288481127
C   C90       1.0  0.09190  0.59830  0.76440  1.0000 -0.0288481127
C   C91       1.0  0.83390  0.32750  0.23560  1.0000 -0.0288481127
C   C92       1.0  0.67250  0.90810  0.50640  1.0000 -0.0288481127
C   C93       1.0  0.41610  0.42250  0.26440  1.0000 -0.0288481127
C   C94       1.0  0.40170  0.16610  0.49360  1.0000 -0.0288481127
C   C95       1.0  0.15810  0.15170  0.73560  1.0000 -0.0288481127
C   C96       1.0  0.57750  0.84190  0.99360  1.0000 -0.0288481127
C   C97       1.0  0.83900  0.52880  0.04060  1.0000 -0.0935336464
C   C98       1.0  0.04840  0.58900  0.81020  1.0000 -0.0935336464
C   C99       1.0  0.77880  0.23820  0.18980  1.0000 -0.0935336464
C   C100      1.0  0.76180  0.95160  0.54060  1.0000 -0.0935336464
C   C101      1.0  0.47120  0.51180  0.31020  1.0000 -0.0935336464
C   C102      1.0  0.41100  0.22120  0.45940  1.0000 -0.0935336464
C   C103      1.0  0.20160  0.16100  0.68980  1.0000 -0.0935336464
C   C104      1.0  0.48820  0.79840  0.95940  1.0000 -0.0935336464
C   C105      1.0  0.89610  0.56120  0.12410  1.0000 -0.1029588103
C   C106      1.0  0.02200  0.64610  0.83490  1.0000 -0.1029588103
C   C107      1.0  0.81120  0.18710  0.16510  1.0000 -0.1029588103
C   C108      1.0  0.81290  0.97800  0.62410  1.0000 -0.1029588103
C   C109      1.0  0.43880  0.56290  0.33490  1.0000 -0.1029588103
C   C110      1.0  0.35390  0.18880  0.37590  1.0000 -0.1029588103
C   C111      1.0  0.22800  0.10390  0.66510  1.0000 -0.1029588103
C   C112      1.0  0.43710  0.77200  0.87590  1.0000 -0.1029588103
C   C113      1.0  0.96350  0.64450  0.17220  1.0000 -0.0935336464
C   C114      1.0  0.04130  0.71350  0.81900  1.0000 -0.0935336464
C   C115      1.0  0.89450  0.22230  0.18100  1.0000 -0.0935336464
C   C116      1.0  0.77770  0.95870  0.67220  1.0000 -0.0935336464
C   C117      1.0  0.35550  0.52770  0.31900  1.0000 -0.0935336464
C   C118      1.0  0.28650  0.10550  0.32780  1.0000 -0.0935336464
C   C119      1.0  0.20870  0.03650  0.68100  1.0000 -0.0935336464
C   C120      1.0  0.47230  0.79130  0.82780  1.0000 -0.0935336464
C   C121      1.0  0.97610  0.69830  0.13920  1.0000 -0.1029588103
C   C122      1.0  0.08690  0.72610  0.77780  1.0000 -0.1029588103
C   C123      1.0  0.94830  0.30910  0.22220  1.0000 -0.1029588103
C   C124      1.0  0.69090  0.91310  0.63920  1.0000 -0.1029588103
C   C125      1.0  0.30170  0.44090  0.27780  1.0000 -0.1029588103
C   C126      1.0  0.27390  0.05170  0.36080  1.0000 -0.1029588103
C   C127      1.0  0.16310  0.02390  0.72220  1.0000 -0.1029588103
C   C128      1.0  0.55910  0.83690  0.86080  1.0000 -0.1029588103
C   C129      1.0  0.91850  0.67110  0.05600  1.0000 -0.1029588103
C   C130      1.0  0.11250  0.66850  0.74740  1.0000 -0.1029588103
C   C131      1.0  0.92110  0.36510  0.25260  1.0000 -0.1029588103
C   C132      1.0  0.63490  0.88750  0.55600  1.0000 -0.1029588103
C   C133      1.0  0.32890  0.38490  0.24740  1.0000 -0.1029588103
C   C134      1.0  0.33150  0.07890  0.44400  1.0000 -0.1029588103
C   C135      1.0  0.13750  0.08150  0.75260  1.0000 -0.1029588103
C   C136      1.0  0.61510  0.86250  0.94400  1.0000 -0.1029588103
N   N1        1.0  0.69193  0.43472  0.68965  1.0000 -0.2589815539
N   N2        1.0  0.25228  0.44193  0.75721  1.0000 -0.2589815539
N   N3        1.0  0.68472  0.49507  0.24279  1.0000 -0.2589815539
N   N4        1.0  0.50493  0.74772  0.18965  1.0000 -0.2589815539
N   N5        1.0  0.56528  0.25493  0.25721  1.0000 -0.2589815539
N   N6        1.0  0.55807  0.31528  0.81035  1.0000 -0.2589815539
N   N7        1.0  0.99772  0.30807  0.74279  1.0000 -0.2589815539
N   N8        1.0  0.74507  0.00228  0.31035  1.0000 -0.2589815539
N   N9        1.0  0.73770  0.52310  0.72400  1.0000 -0.1486739815
N   N10       1.0  0.26370  0.48770  0.71460  1.0000 -0.1486739815
N   N11       1.0  0.77310  0.54910  0.28540  1.0000 -0.1486739815
N   N12       1.0  0.45090  0.73630  0.22400  1.0000 -0.1486739815
N   N13       1.0  0.47690  0.20090  0.21460  1.0000 -0.1486739815
N   N14       1.0  0.51230  0.22690  0.77600  1.0000 -0.1486739815
N   N15       1.0  0.98630  0.26230  0.78540  1.0000 -0.1486739815
N   N16       1.0  0.79910  0.01370  0.27600  1.0000 -0.1486739815
N   N17       1.0  0.69622  0.43761  0.38823  1.0000 -0.2589815539
N   N18       1.0  0.55799  0.44622  0.75861  1.0000 -0.2589815539
N   N19       1.0  0.68761  0.79938  0.24139  1.0000 -0.2589815539
N   N20       1.0  0.20062  0.44201  0.88823  1.0000 -0.2589815539
N   N21       1.0  0.56239  0.95062  0.25861  1.0000 -0.2589815539
N   N22       1.0  0.55378  0.31239  0.11177  1.0000 -0.2589815539
N   N23       1.0  0.69201  0.30378  0.74139  1.0000 -0.2589815539
N   N24       1.0  0.04938  0.30799  0.61177  1.0000 -0.2589815539
N   N25       1.0  0.78350  0.47190  0.43100  1.0000 -0.1371799447
N   N26       1.0  0.60250  0.53350  0.81160  1.0000 -0.1371799447
N   N27       1.0  0.72190  0.79090  0.18840  1.0000 -0.1371799447
N   N28       1.0  0.20910  0.39750  0.93100  1.0000 -0.1371799447
N   N29       1.0  0.52810  0.95910  0.31160  1.0000 -0.1371799447
N   N30       1.0  0.46650  0.27810  0.06900  1.0000 -0.1371799447
N   N31       1.0  0.64750  0.21650  0.68840  1.0000 -0.1371799447
N   N32       1.0  0.04090  0.35250  0.56900  1.0000 -0.1371799447
O   O1        1.0  0.72913  0.47272  0.87201  1.0000 -0.5377457776
O   O2        1.0  0.10712  0.47913  0.75641  1.0000 -0.5377457776
O   O3        1.0  0.72272  0.35071  0.24359  1.0000 -0.5377457776
O   O4        1.0  0.64929  0.89288  0.37201  1.0000 -0.5377457776
O   O5        1.0  0.52728  0.39929  0.25641  1.0000 -0.5377457776
O   O6        1.0  0.52087  0.27728  0.62799  1.0000 -0.5377457776
O   O7        1.0  0.14288  0.27087  0.74359  1.0000 -0.5377457776
O   O8        1.0  0.60071  0.85712  0.12799  1.0000 -0.5377457776
O   O9        1.0  0.78550  0.60906  0.89436  1.0000 -0.5773248561
O   O10       1.0  0.14114  0.53550  0.67644  1.0000 -0.5773248561
O   O11       1.0  0.85906  0.46470  0.32356  1.0000 -0.5773248561
O   O12       1.0  0.53530  0.85886  0.39436  1.0000 -0.5773248561
O   O13       1.0  0.39094  0.28530  0.17644  1.0000 -0.5773248561
O   O14       1.0  0.46450  0.14094  0.60564  1.0000 -0.5773248561
O   O15       1.0  0.10886  0.21450  0.82356  1.0000 -0.5773248561
O   O16       1.0  0.71470  0.89114  0.10564  1.0000 -0.5773248561
