# DDEC6 charges by PACMAN v1.1 (https://github.com/mtap-research/PACMAN-charge/)
data_2001[Tm][scu]3[FSR]1
_chemical_formula_sum              "Tm16 H64 C96 O128"
_cell_length_a       18.443
_cell_length_b       18.443
_cell_length_c       10.374
_cell_angle_alpha    90
_cell_angle_beta     90
_cell_angle_gamma    90

_symmetry_space_group_name_H-M    "P 1"
_symmetry_Int_Tables_number       1

loop_
  _symmetry_equiv_pos_as_xyz
  'x, y, z'

loop_
  _atom_site_type_symbol
  _atom_site_label
  _atom_site_symmetry_multiplicity
  _atom_site_fract_x
  _atom_site_fract_y
  _atom_site_fract_z
  _atom_site_occupancy
  _atom_site_charge
Tm  Tm1       1.0  0.49543  0.27632  0.34775  1.0000 2.1048519318
Tm  Tm2       1.0  0.77632  0.00457  0.34775  1.0000 2.1053170314
Tm  Tm3       1.0  0.22368  0.99543  0.34775  1.0000 2.1053170314
Tm  Tm4       1.0  0.27632  0.49543  0.15225  1.0000 2.1048519318
Tm  Tm5       1.0  0.50457  0.72368  0.34775  1.0000 2.1053170314
Tm  Tm6       1.0  0.99543  0.22368  0.15225  1.0000 2.1053170314
Tm  Tm7       1.0  0.00457  0.77632  0.15225  1.0000 2.1053170314
Tm  Tm8       1.0  0.72368  0.50457  0.15225  1.0000 2.1053170314
Tm  Tm9       1.0  0.00457  0.22368  0.65225  1.0000 2.1053170314
Tm  Tm10      1.0  0.72368  0.49543  0.65225  1.0000 2.1053170314
Tm  Tm11      1.0  0.27632  0.50457  0.65225  1.0000 2.1048519318
Tm  Tm12      1.0  0.22368  0.00457  0.84775  1.0000 2.1053170314
Tm  Tm13      1.0  0.99543  0.77632  0.65225  1.0000 2.1053170314
Tm  Tm14      1.0  0.50457  0.27632  0.84775  1.0000 2.1053170314
Tm  Tm15      1.0  0.49543  0.72368  0.84775  1.0000 2.1053170314
Tm  Tm16      1.0  0.77632  0.99543  0.84775  1.0000 2.1053170314
H   H1        1.0  0.48710  0.42490  0.26180  1.0000 0.3351502423
H   H2        1.0  0.92490  0.01290  0.26180  1.0000 0.3347754185
H   H3        1.0  0.07510  0.98710  0.26180  1.0000 0.3351502423
H   H4        1.0  0.42490  0.48710  0.23820  1.0000 0.3351502423
H   H5        1.0  0.51290  0.57510  0.26180  1.0000 0.3351502423
H   H6        1.0  0.98710  0.07510  0.23820  1.0000 0.3347754185
H   H7        1.0  0.01290  0.92490  0.23820  1.0000 0.3351502423
H   H8        1.0  0.57510  0.51290  0.23820  1.0000 0.3351502423
H   H9        1.0  0.01290  0.07510  0.73820  1.0000 0.3351502423
H   H10       1.0  0.57510  0.48710  0.73820  1.0000 0.3347754185
H   H11       1.0  0.42490  0.51290  0.73820  1.0000 0.3347754185
H   H12       1.0  0.07510  0.01290  0.76180  1.0000 0.3351502423
H   H13       1.0  0.98710  0.92490  0.73820  1.0000 0.3351502423
H   H14       1.0  0.51290  0.42490  0.76180  1.0000 0.3347754185
H   H15       1.0  0.48710  0.57510  0.76180  1.0000 0.3347754185
H   H16       1.0  0.92490  0.98710  0.76180  1.0000 0.3347754185
H   H17       1.0  0.54490  0.39640  0.19240  1.0000 0.3459113693
H   H18       1.0  0.89640  0.95510  0.19240  1.0000 0.3459113693
H   H19       1.0  0.10360  0.04490  0.19240  1.0000 0.3459113693
H   H20       1.0  0.39640  0.54490  0.30760  1.0000 0.3459113693
H   H21       1.0  0.45510  0.60360  0.19240  1.0000 0.3459113693
H   H22       1.0  0.04490  0.10360  0.30760  1.0000 0.3459113693
H   H23       1.0  0.95510  0.89640  0.30760  1.0000 0.3459113693
H   H24       1.0  0.60360  0.45510  0.30760  1.0000 0.3459113693
H   H25       1.0  0.95510  0.10360  0.80760  1.0000 0.3459113693
H   H26       1.0  0.60360  0.54490  0.80760  1.0000 0.3459113693
H   H27       1.0  0.39640  0.45510  0.80760  1.0000 0.3459113693
H   H28       1.0  0.10360  0.95510  0.69240  1.0000 0.3459113693
H   H29       1.0  0.04490  0.89640  0.80760  1.0000 0.3459113693
H   H30       1.0  0.45510  0.39640  0.69240  1.0000 0.3459113693
H   H31       1.0  0.54490  0.60360  0.69240  1.0000 0.3459113693
H   H32       1.0  0.89640  0.04490  0.69240  1.0000 0.3459113693
H   H33       1.0  0.57890  0.15500  0.32080  1.0000 0.3954091375
H   H34       1.0  0.65500  0.92110  0.32080  1.0000 0.3954091375
H   H35       1.0  0.34500  0.07890  0.32080  1.0000 0.3954091375
H   H36       1.0  0.15500  0.57890  0.17920  1.0000 0.3954091375
H   H37       1.0  0.42110  0.84500  0.32080  1.0000 0.3954091375
H   H38       1.0  0.07890  0.34500  0.17920  1.0000 0.3954091375
H   H39       1.0  0.92110  0.65500  0.17920  1.0000 0.3954091375
H   H40       1.0  0.84500  0.42110  0.17920  1.0000 0.3954091375
H   H41       1.0  0.92110  0.34500  0.67920  1.0000 0.3954091375
H   H42       1.0  0.84500  0.57890  0.67920  1.0000 0.3954091375
H   H43       1.0  0.15500  0.42110  0.67920  1.0000 0.3954091375
H   H44       1.0  0.34500  0.92110  0.82080  1.0000 0.3954091375
H   H45       1.0  0.07890  0.65500  0.67920  1.0000 0.3954091375
H   H46       1.0  0.42110  0.15500  0.82080  1.0000 0.3954091375
H   H47       1.0  0.57890  0.84500  0.82080  1.0000 0.3954091375
H   H48       1.0  0.65500  0.07890  0.82080  1.0000 0.3954091375
H   H49       1.0  0.54200  0.14510  0.43710  1.0000 0.3932858114
H   H50       1.0  0.64510  0.95800  0.43710  1.0000 0.3932858114
H   H51       1.0  0.35490  0.04200  0.43710  1.0000 0.3932858114
H   H52       1.0  0.14510  0.54200  0.06290  1.0000 0.3932858114
H   H53       1.0  0.45800  0.85490  0.43710  1.0000 0.3932858114
H   H54       1.0  0.04200  0.35490  0.06290  1.0000 0.3932858114
H   H55       1.0  0.95800  0.64510  0.06290  1.0000 0.3932858114
H   H56       1.0  0.85490  0.45800  0.06290  1.0000 0.3932858114
H   H57       1.0  0.95800  0.35490  0.56290  1.0000 0.3932858114
H   H58       1.0  0.85490  0.54200  0.56290  1.0000 0.3932858114
H   H59       1.0  0.14510  0.45800  0.56290  1.0000 0.3932858114
H   H60       1.0  0.35490  0.95800  0.93710  1.0000 0.3932858114
H   H61       1.0  0.04200  0.64510  0.56290  1.0000 0.3932858114
H   H62       1.0  0.45800  0.14510  0.93710  1.0000 0.3932858114
H   H63       1.0  0.54200  0.85490  0.93710  1.0000 0.3932858114
H   H64       1.0  0.64510  0.04200  0.93710  1.0000 0.3932858114
C   C1        1.0  0.31090  0.22860  0.07180  1.0000 -0.0626883129
C   C2        1.0  0.72860  0.18910  0.07180  1.0000 -0.0626883129
C   C3        1.0  0.27140  0.81090  0.07180  1.0000 -0.0626883129
C   C4        1.0  0.22860  0.31090  0.42820  1.0000 -0.0626883129
C   C5        1.0  0.68910  0.77140  0.07180  1.0000 -0.0626883129
C   C6        1.0  0.81090  0.27140  0.42820  1.0000 -0.0626883129
C   C7        1.0  0.18910  0.72860  0.42820  1.0000 -0.0626883129
C   C8        1.0  0.77140  0.68910  0.42820  1.0000 -0.0626883129
C   C9        1.0  0.18910  0.27140  0.92820  1.0000 -0.0626883129
C   C10       1.0  0.77140  0.31090  0.92820  1.0000 -0.0626883129
C   C11       1.0  0.22860  0.68910  0.92820  1.0000 -0.0626883129
C   C12       1.0  0.27140  0.18910  0.57180  1.0000 -0.0626883129
C   C13       1.0  0.81090  0.72860  0.92820  1.0000 -0.0626883129
C   C14       1.0  0.68910  0.22860  0.57180  1.0000 -0.0626883129
C   C15       1.0  0.31090  0.77140  0.57180  1.0000 -0.0626883129
C   C16       1.0  0.72860  0.81090  0.57180  1.0000 -0.0626883129
C   C17       1.0  0.30750  0.29840  0.02030  1.0000 -0.0626883129
C   C18       1.0  0.79840  0.19250  0.02030  1.0000 -0.0626883129
C   C19       1.0  0.20160  0.80750  0.02030  1.0000 -0.0626883129
C   C20       1.0  0.29840  0.30750  0.47970  1.0000 -0.0626883129
C   C21       1.0  0.69250  0.70160  0.02030  1.0000 -0.0626883129
C   C22       1.0  0.80750  0.20160  0.47970  1.0000 -0.0626883129
C   C23       1.0  0.19250  0.79840  0.47970  1.0000 -0.0626883129
C   C24       1.0  0.70160  0.69250  0.47970  1.0000 -0.0626883129
C   C25       1.0  0.19250  0.20160  0.97970  1.0000 -0.0626883129
C   C26       1.0  0.70160  0.30750  0.97970  1.0000 -0.0626883129
C   C27       1.0  0.29840  0.69250  0.97970  1.0000 -0.0626883129
C   C28       1.0  0.20160  0.19250  0.52030  1.0000 -0.0626883129
C   C29       1.0  0.80750  0.79840  0.97970  1.0000 -0.0626883129
C   C30       1.0  0.69250  0.29840  0.52030  1.0000 -0.0626883129
C   C31       1.0  0.30750  0.70160  0.52030  1.0000 -0.0626883129
C   C32       1.0  0.79840  0.80750  0.52030  1.0000 -0.0626883129
C   C33       1.0  0.25410  0.17990  0.04930  1.0000 -0.049788713
C   C34       1.0  0.67990  0.24590  0.04930  1.0000 -0.049788713
C   C35       1.0  0.32010  0.75410  0.04930  1.0000 -0.049788713
C   C36       1.0  0.17990  0.25410  0.45070  1.0000 -0.049788713
C   C37       1.0  0.74590  0.82010  0.04930  1.0000 -0.049788713
C   C38       1.0  0.75410  0.32010  0.45070  1.0000 -0.049788713
C   C39       1.0  0.24590  0.67990  0.45070  1.0000 -0.049788713
C   C40       1.0  0.82010  0.74590  0.45070  1.0000 -0.049788713
C   C41       1.0  0.24590  0.32010  0.95070  1.0000 -0.049788713
C   C42       1.0  0.82010  0.25410  0.95070  1.0000 -0.049788713
C   C43       1.0  0.17990  0.74590  0.95070  1.0000 -0.049788713
C   C44       1.0  0.32010  0.24590  0.54930  1.0000 -0.049788713
C   C45       1.0  0.75410  0.67990  0.95070  1.0000 -0.049788713
C   C46       1.0  0.74590  0.17990  0.54930  1.0000 -0.049788713
C   C47       1.0  0.25410  0.82010  0.54930  1.0000 -0.049788713
C   C48       1.0  0.67990  0.75410  0.54930  1.0000 -0.049788713
C   C49       1.0  0.37160  0.20500  0.15990  1.0000 0.6229369645
C   C50       1.0  0.70500  0.12840  0.15990  1.0000 0.6229369645
C   C51       1.0  0.29500  0.87160  0.15990  1.0000 0.6229369645
C   C52       1.0  0.20500  0.37160  0.34010  1.0000 0.6229369645
C   C53       1.0  0.62840  0.79500  0.15990  1.0000 0.6229369645
C   C54       1.0  0.87160  0.29500  0.34010  1.0000 0.6229369645
C   C55       1.0  0.12840  0.70500  0.34010  1.0000 0.6229369645
C   C56       1.0  0.79500  0.62840  0.34010  1.0000 0.6229369645
C   C57       1.0  0.12840  0.29500  0.84010  1.0000 0.6229369645
C   C58       1.0  0.79500  0.37160  0.84010  1.0000 0.6229369645
C   C59       1.0  0.20500  0.62840  0.84010  1.0000 0.6229369645
C   C60       1.0  0.29500  0.12840  0.65990  1.0000 0.6229369645
C   C61       1.0  0.87160  0.70500  0.84010  1.0000 0.6229369645
C   C62       1.0  0.62840  0.20500  0.65990  1.0000 0.6229369645
C   C63       1.0  0.37160  0.79500  0.65990  1.0000 0.6229369645
C   C64       1.0  0.70500  0.87160  0.65990  1.0000 0.6229369645
C   C65       1.0  0.37030  0.35150  0.02780  1.0000 0.6865436701
C   C66       1.0  0.85150  0.12970  0.02780  1.0000 0.6865436701
C   C67       1.0  0.14850  0.87030  0.02780  1.0000 0.6865436701
C   C68       1.0  0.35150  0.37030  0.47220  1.0000 0.6865436701
C   C69       1.0  0.62970  0.64850  0.02780  1.0000 0.6865436701
C   C70       1.0  0.87030  0.14850  0.47220  1.0000 0.6865436701
C   C71       1.0  0.12970  0.85150  0.47220  1.0000 0.6865436701
C   C72       1.0  0.64850  0.62970  0.47220  1.0000 0.6865436701
C   C73       1.0  0.12970  0.14850  0.97220  1.0000 0.6865436701
C   C74       1.0  0.64850  0.37030  0.97220  1.0000 0.6865436701
C   C75       1.0  0.35150  0.62970  0.97220  1.0000 0.6865436701
C   C76       1.0  0.14850  0.12970  0.52780  1.0000 0.6865436701
C   C77       1.0  0.87030  0.85150  0.97220  1.0000 0.6865436701
C   C78       1.0  0.62970  0.35150  0.52780  1.0000 0.6865436701
C   C79       1.0  0.37030  0.64850  0.52780  1.0000 0.6865436701
C   C80       1.0  0.85150  0.87030  0.52780  1.0000 0.6865436701
C   C81       1.0  0.25460  0.10300  0.10130  1.0000 0.6630683249
C   C82       1.0  0.60300  0.24540  0.10130  1.0000 0.6630683249
C   C83       1.0  0.39700  0.75460  0.10130  1.0000 0.6630683249
C   C84       1.0  0.10300  0.25460  0.39870  1.0000 0.6630683249
C   C85       1.0  0.74540  0.89700  0.10130  1.0000 0.6630683249
C   C86       1.0  0.75460  0.39700  0.39870  1.0000 0.6630683249
C   C87       1.0  0.24540  0.60300  0.39870  1.0000 0.6630683249
C   C88       1.0  0.89700  0.74540  0.39870  1.0000 0.6630683249
C   C89       1.0  0.24540  0.39700  0.89870  1.0000 0.6630683249
C   C90       1.0  0.89700  0.25460  0.89870  1.0000 0.6630683249
C   C91       1.0  0.10300  0.74540  0.89870  1.0000 0.6630683249
C   C92       1.0  0.39700  0.24540  0.60130  1.0000 0.6630683249
C   C93       1.0  0.75460  0.60300  0.89870  1.0000 0.6630683249
C   C94       1.0  0.74540  0.10300  0.60130  1.0000 0.6630683249
C   C95       1.0  0.25460  0.89700  0.60130  1.0000 0.6630683249
C   C96       1.0  0.60300  0.75460  0.60130  1.0000 0.6630683249
O   O1        1.0  0.50215  0.38840  0.21970  1.0000 -0.743528455
O   O2        1.0  0.88840  0.99785  0.21970  1.0000 -0.743528455
O   O3        1.0  0.11160  0.00215  0.21970  1.0000 -0.743528455
O   O4        1.0  0.38840  0.50215  0.28030  1.0000 -0.743528455
O   O5        1.0  0.49785  0.61160  0.21970  1.0000 -0.743528455
O   O6        1.0  0.00215  0.11160  0.28030  1.0000 -0.743528455
O   O7        1.0  0.99785  0.88840  0.28030  1.0000 -0.743528455
O   O8        1.0  0.61160  0.49785  0.28030  1.0000 -0.743528455
O   O9        1.0  0.99785  0.11160  0.78030  1.0000 -0.743528455
O   O10       1.0  0.61160  0.50215  0.78030  1.0000 -0.743528455
O   O11       1.0  0.38840  0.49785  0.78030  1.0000 -0.743528455
O   O12       1.0  0.11160  0.99785  0.71970  1.0000 -0.743528455
O   O13       1.0  0.00215  0.88840  0.78030  1.0000 -0.743528455
O   O14       1.0  0.49785  0.38840  0.71970  1.0000 -0.743528455
O   O15       1.0  0.50215  0.61160  0.71970  1.0000 -0.743528455
O   O16       1.0  0.88840  0.00215  0.71970  1.0000 -0.743528455
O   O17       1.0  0.53880  0.16050  0.36000  1.0000 -0.7718537147
O   O18       1.0  0.66050  0.96120  0.36000  1.0000 -0.7718537147
O   O19       1.0  0.33950  0.03880  0.36000  1.0000 -0.7718537147
O   O20       1.0  0.16050  0.53880  0.14000  1.0000 -0.7718537147
O   O21       1.0  0.46120  0.83950  0.36000  1.0000 -0.7718537147
O   O22       1.0  0.03880  0.33950  0.14000  1.0000 -0.7718537147
O   O23       1.0  0.96120  0.66050  0.14000  1.0000 -0.7718537147
O   O24       1.0  0.83950  0.46120  0.14000  1.0000 -0.7718537147
O   O25       1.0  0.96120  0.33950  0.64000  1.0000 -0.7718537147
O   O26       1.0  0.83950  0.53880  0.64000  1.0000 -0.7718537147
O   O27       1.0  0.16050  0.46120  0.64000  1.0000 -0.7718537147
O   O28       1.0  0.33950  0.96120  0.86000  1.0000 -0.7718537147
O   O29       1.0  0.03880  0.66050  0.64000  1.0000 -0.7718537147
O   O30       1.0  0.46120  0.16050  0.86000  1.0000 -0.7718537147
O   O31       1.0  0.53880  0.83950  0.86000  1.0000 -0.7718537147
O   O32       1.0  0.66050  0.03880  0.86000  1.0000 -0.7718537147
O   O33       1.0  0.38350  0.13900  0.17640  1.0000 -0.5149758155
O   O34       1.0  0.63900  0.11650  0.17640  1.0000 -0.5158412005
O   O35       1.0  0.36100  0.88350  0.17640  1.0000 -0.5149758155
O   O36       1.0  0.13900  0.38350  0.32360  1.0000 -0.5149758155
O   O37       1.0  0.61650  0.86100  0.17640  1.0000 -0.5149758155
O   O38       1.0  0.88350  0.36100  0.32360  1.0000 -0.5158412005
O   O39       1.0  0.11650  0.63900  0.32360  1.0000 -0.5158412005
O   O40       1.0  0.86100  0.61650  0.32360  1.0000 -0.5158412005
O   O41       1.0  0.11650  0.36100  0.82360  1.0000 -0.5158412005
O   O42       1.0  0.86100  0.38350  0.82360  1.0000 -0.5158412005
O   O43       1.0  0.13900  0.61650  0.82360  1.0000 -0.5158412005
O   O44       1.0  0.36100  0.11650  0.67640  1.0000 -0.5158412005
O   O45       1.0  0.88350  0.63900  0.82360  1.0000 -0.5158412005
O   O46       1.0  0.61650  0.13900  0.67640  1.0000 -0.5158412005
O   O47       1.0  0.38350  0.86100  0.67640  1.0000 -0.5158412005
O   O48       1.0  0.63900  0.88350  0.67640  1.0000 -0.5158412005
O   O49       1.0  0.40600  0.25560  0.21550  1.0000 -0.6884251027
O   O50       1.0  0.75560  0.09400  0.21550  1.0000 -0.6884251027
O   O51       1.0  0.24440  0.90600  0.21550  1.0000 -0.6884251027
O   O52       1.0  0.25560  0.40600  0.28450  1.0000 -0.6884251027
O   O53       1.0  0.59400  0.74440  0.21550  1.0000 -0.6884251027
O   O54       1.0  0.90600  0.24440  0.28450  1.0000 -0.6884251027
O   O55       1.0  0.09400  0.75560  0.28450  1.0000 -0.6884251027
O   O56       1.0  0.74440  0.59400  0.28450  1.0000 -0.6884251027
O   O57       1.0  0.09400  0.24440  0.78450  1.0000 -0.6884251027
O   O58       1.0  0.74440  0.40600  0.78450  1.0000 -0.6884251027
O   O59       1.0  0.25560  0.59400  0.78450  1.0000 -0.6884251027
O   O60       1.0  0.24440  0.09400  0.71550  1.0000 -0.6884251027
O   O61       1.0  0.90600  0.75560  0.78450  1.0000 -0.6884251027
O   O62       1.0  0.59400  0.25560  0.71550  1.0000 -0.6884251027
O   O63       1.0  0.40600  0.74440  0.71550  1.0000 -0.6884251027
O   O64       1.0  0.75560  0.90600  0.71550  1.0000 -0.6884251027
O   O65       1.0  0.36005  0.41299  0.07320  1.0000 -0.6266421373
O   O66       1.0  0.91299  0.13995  0.07320  1.0000 -0.6266421373
O   O67       1.0  0.08701  0.86005  0.07320  1.0000 -0.6266421373
O   O68       1.0  0.41299  0.36005  0.42680  1.0000 -0.6266421373
O   O69       1.0  0.63995  0.58701  0.07320  1.0000 -0.6266421373
O   O70       1.0  0.86005  0.08701  0.42680  1.0000 -0.6266421373
O   O71       1.0  0.13995  0.91299  0.42680  1.0000 -0.6266421373
O   O72       1.0  0.58701  0.63995  0.42680  1.0000 -0.6266421373
O   O73       1.0  0.13995  0.08701  0.92680  1.0000 -0.6266421373
O   O74       1.0  0.58701  0.36005  0.92680  1.0000 -0.6266421373
O   O75       1.0  0.41299  0.63995  0.92680  1.0000 -0.6266421373
O   O76       1.0  0.08701  0.13995  0.57320  1.0000 -0.6266421373
O   O77       1.0  0.86005  0.91299  0.92680  1.0000 -0.6266421373
O   O78       1.0  0.63995  0.41299  0.57320  1.0000 -0.6266421373
O   O79       1.0  0.36005  0.58701  0.57320  1.0000 -0.6266421373
O   O80       1.0  0.91299  0.86005  0.57320  1.0000 -0.6266421373
O   O81       1.0  0.42961  0.33280  0.98020  1.0000 -0.6741732354
O   O82       1.0  0.83280  0.07039  0.98020  1.0000 -0.6741732354
O   O83       1.0  0.16720  0.92961  0.98020  1.0000 -0.6741732354
O   O84       1.0  0.33280  0.42961  0.51980  1.0000 -0.6741732354
O   O85       1.0  0.57039  0.66720  0.98020  1.0000 -0.6741732354
O   O86       1.0  0.92961  0.16720  0.51980  1.0000 -0.6741732354
O   O87       1.0  0.07039  0.83280  0.51980  1.0000 -0.6741732354
O   O88       1.0  0.66720  0.57039  0.51980  1.0000 -0.6741732354
O   O89       1.0  0.07039  0.16720  0.01980  1.0000 -0.6741732354
O   O90       1.0  0.66720  0.42961  0.01980  1.0000 -0.6741732354
O   O91       1.0  0.33280  0.57039  0.01980  1.0000 -0.6741732354
O   O92       1.0  0.16720  0.07039  0.48020  1.0000 -0.6741732354
O   O93       1.0  0.92961  0.83280  0.01980  1.0000 -0.6741732354
O   O94       1.0  0.57039  0.33280  0.48020  1.0000 -0.6741732354
O   O95       1.0  0.42961  0.66720  0.48020  1.0000 -0.6741732354
O   O96       1.0  0.83280  0.92961  0.48020  1.0000 -0.6741732354
O   O97       1.0  0.27440  0.05341  0.02580  1.0000 -0.6884251027
O   O98       1.0  0.55341  0.22560  0.02580  1.0000 -0.6884251027
O   O99       1.0  0.44659  0.77440  0.02580  1.0000 -0.6884251027
O   O100      1.0  0.05341  0.27440  0.47420  1.0000 -0.6884251027
O   O101      1.0  0.72560  0.94659  0.02580  1.0000 -0.6884251027
O   O102      1.0  0.77440  0.44659  0.47420  1.0000 -0.6884251027
O   O103      1.0  0.22560  0.55341  0.47420  1.0000 -0.6884251027
O   O104      1.0  0.94659  0.72560  0.47420  1.0000 -0.6884251027
O   O105      1.0  0.22560  0.44659  0.97420  1.0000 -0.6884251027
O   O106      1.0  0.94659  0.27440  0.97420  1.0000 -0.6884251027
O   O107      1.0  0.05341  0.72560  0.97420  1.0000 -0.6884251027
O   O108      1.0  0.44659  0.22560  0.52580  1.0000 -0.6884251027
O   O109      1.0  0.77440  0.55341  0.97420  1.0000 -0.6884251027
O   O110      1.0  0.72560  0.05341  0.52580  1.0000 -0.6884251027
O   O111      1.0  0.27440  0.94659  0.52580  1.0000 -0.6884251027
O   O112      1.0  0.55341  0.77440  0.52580  1.0000 -0.6884251027
O   O113      1.0  0.23250  0.09300  0.21380  1.0000 -0.6635334189
O   O114      1.0  0.59300  0.26750  0.21380  1.0000 -0.6635334189
O   O115      1.0  0.40700  0.73250  0.21380  1.0000 -0.6635334189
O   O116      1.0  0.09300  0.23250  0.28620  1.0000 -0.6635334189
O   O117      1.0  0.76750  0.90700  0.21380  1.0000 -0.6635334189
O   O118      1.0  0.73250  0.40700  0.28620  1.0000 -0.6635334189
O   O119      1.0  0.26750  0.59300  0.28620  1.0000 -0.6635334189
O   O120      1.0  0.90700  0.76750  0.28620  1.0000 -0.6635334189
O   O121      1.0  0.26750  0.40700  0.78620  1.0000 -0.6635334189
O   O122      1.0  0.90700  0.23250  0.78620  1.0000 -0.6635334189
O   O123      1.0  0.09300  0.76750  0.78620  1.0000 -0.6635334189
O   O124      1.0  0.40700  0.26750  0.71380  1.0000 -0.6635334189
O   O125      1.0  0.73250  0.59300  0.78620  1.0000 -0.6635334189
O   O126      1.0  0.76750  0.09300  0.71380  1.0000 -0.6635334189
O   O127      1.0  0.23250  0.90700  0.71380  1.0000 -0.6635334189
O   O128      1.0  0.59300  0.73250  0.71380  1.0000 -0.6635334189
