# DDEC6 charges by PACMAN v1.1 (https://github.com/mtap-research/PACMAN-charge/)
data_2001[Ni][dia]3[FSR]1
_chemical_formula_sum              "Ni4 H50 C64 N8 O18"
_cell_length_a       10.3786
_cell_length_b       10.3786
_cell_length_c       18.6058
_cell_angle_alpha    78.727
_cell_angle_beta     101.273
_cell_angle_gamma    85.4405

_symmetry_space_group_name_H-M    "P 1"
_symmetry_Int_Tables_number       1

loop_
  _symmetry_equiv_pos_as_xyz
  'x, y, z'

loop_
  _atom_site_type_symbol
  _atom_site_label
  _atom_site_symmetry_multiplicity
  _atom_site_fract_x
  _atom_site_fract_y
  _atom_site_fract_z
  _atom_site_occupancy
  _atom_site_charge
Ni  Ni1       1.0  0.01343  0.74673  0.78341  1.0000 0.8535319756
Ni  Ni2       1.0  0.74673  0.01343  0.71659  1.0000 0.8535319756
Ni  Ni3       1.0  0.98657  0.25327  0.21659  1.0000 0.8535319756
Ni  Ni4       1.0  0.25327  0.98657  0.28341  1.0000 0.8535319756
H   H1        1.0  0.01370  0.01370  0.75000  1.0000 0.390576918
H   H2        1.0  0.98630  0.98630  0.25000  1.0000 0.390576918
H   H3        1.0  0.23290  0.51450  0.15420  1.0000 0.1324141941
H   H4        1.0  0.51450  0.23290  0.34580  1.0000 0.1324141941
H   H5        1.0  0.76710  0.48550  0.84580  1.0000 0.1324141941
H   H6        1.0  0.48550  0.76710  0.65420  1.0000 0.1324141941
H   H7        1.0  0.19270  0.66330  0.02520  1.0000 0.1186789054
H   H8        1.0  0.66330  0.19270  0.47480  1.0000 0.1186789054
H   H9        1.0  0.80730  0.33670  0.97480  1.0000 0.1186789054
H   H10       1.0  0.33670  0.80730  0.52520  1.0000 0.1186789054
H   H11       1.0  0.19850  0.91090  0.13210  1.0000 0.1110339074
H   H12       1.0  0.91090  0.19850  0.36790  1.0000 0.1110339074
H   H13       1.0  0.80150  0.08910  0.86790  1.0000 0.1110339074
H   H14       1.0  0.08910  0.80150  0.63210  1.0000 0.1110339074
H   H15       1.0  0.13270  0.92890  0.01890  1.0000 0.1324141941
H   H16       1.0  0.92890  0.13270  0.48110  1.0000 0.1324141941
H   H17       1.0  0.86730  0.07110  0.98110  1.0000 0.1324141941
H   H18       1.0  0.07110  0.86730  0.51890  1.0000 0.1324141941
H   H19       1.0  0.27350  0.49410  0.28460  1.0000 0.1378761347
H   H20       1.0  0.49410  0.27350  0.21540  1.0000 0.1378761347
H   H21       1.0  0.72650  0.50590  0.71540  1.0000 0.1378761347
H   H22       1.0  0.50590  0.72650  0.78460  1.0000 0.1378761347
H   H23       1.0  0.27980  0.68180  0.33390  1.0000 0.1110339074
H   H24       1.0  0.68180  0.27980  0.16610  1.0000 0.1110339074
H   H25       1.0  0.72020  0.31820  0.66610  1.0000 0.1110339074
H   H26       1.0  0.31820  0.72020  0.83390  1.0000 0.1110339074
H   H27       1.0  0.91200  0.44420  0.07160  1.0000 0.1110339074
H   H28       1.0  0.44420  0.91200  0.42840  1.0000 0.1110339074
H   H29       1.0  0.08800  0.55580  0.92840  1.0000 0.1110339074
H   H30       1.0  0.55580  0.08800  0.57160  1.0000 0.1110339074
H   H31       1.0  0.88240  0.60820  0.96350  1.0000 0.1186789054
H   H32       1.0  0.60820  0.88240  0.53650  1.0000 0.1186789054
H   H33       1.0  0.11760  0.39180  0.03650  1.0000 0.1186789054
H   H34       1.0  0.39180  0.11760  0.46350  1.0000 0.1186789054
H   H35       1.0  0.74150  0.84950  0.95860  1.0000 0.1324141941
H   H36       1.0  0.84950  0.74150  0.54140  1.0000 0.1324141941
H   H37       1.0  0.25850  0.15050  0.04140  1.0000 0.1324141941
H   H38       1.0  0.15050  0.25850  0.45860  1.0000 0.1324141941
H   H39       1.0  0.93980  0.51060  0.27380  1.0000 0.1110339074
H   H40       1.0  0.51060  0.93980  0.22620  1.0000 0.1110339074
H   H41       1.0  0.06020  0.48940  0.72620  1.0000 0.1110339074
H   H42       1.0  0.48940  0.06020  0.77380  1.0000 0.1110339074
H   H43       1.0  0.88670  0.73770  0.22490  1.0000 0.1378761347
H   H44       1.0  0.73770  0.88670  0.27510  1.0000 0.1378761347
H   H45       1.0  0.11330  0.26230  0.77510  1.0000 0.1378761347
H   H46       1.0  0.26230  0.11330  0.72490  1.0000 0.1378761347
H   H47       1.0  0.84020  0.81880  0.09450  1.0000 0.1324141941
H   H48       1.0  0.81880  0.84020  0.40550  1.0000 0.1324141941
H   H49       1.0  0.15980  0.18120  0.90550  1.0000 0.1324141941
H   H50       1.0  0.18120  0.15980  0.59450  1.0000 0.1324141941
C   C1        1.0  0.10450  0.87090  0.91510  1.0000 0.6186084936
C   C2        1.0  0.87090  0.10450  0.58490  1.0000 0.6186084936
C   C3        1.0  0.89550  0.12910  0.08490  1.0000 0.6186084936
C   C4        1.0  0.12910  0.89550  0.41510  1.0000 0.6186084936
C   C5        1.0  0.78620  0.80760  0.85730  1.0000 0.627188463
C   C6        1.0  0.80760  0.78620  0.64270  1.0000 0.627188463
C   C7        1.0  0.21380  0.19240  0.14270  1.0000 0.627188463
C   C8        1.0  0.19240  0.21380  0.35730  1.0000 0.627188463
C   C9        1.0  0.23410  0.59110  0.17510  1.0000 -0.0987042968
C   C10       1.0  0.59110  0.23410  0.32490  1.0000 -0.0987042968
C   C11       1.0  0.76590  0.40890  0.82490  1.0000 -0.0987042968
C   C12       1.0  0.40890  0.76590  0.67510  1.0000 -0.0987042968
C   C13       1.0  0.21130  0.71670  0.12880  1.0000 0.0765915963
C   C14       1.0  0.71670  0.21130  0.37120  1.0000 0.0765915963
C   C15       1.0  0.78870  0.28330  0.87120  1.0000 0.0765915963
C   C16       1.0  0.28330  0.78870  0.62880  1.0000 0.0765915963
C   C17       1.0  0.18120  0.73900  0.04600  1.0000 -0.1091237139
C   C18       1.0  0.73900  0.18120  0.45400  1.0000 -0.1091237139
C   C19       1.0  0.81880  0.26100  0.95400  1.0000 -0.1091237139
C   C20       1.0  0.26100  0.81880  0.54600  1.0000 -0.1091237139
C   C21       1.0  0.21430  0.82470  0.16330  1.0000 0.0505897694
C   C22       1.0  0.82470  0.21430  0.33670  1.0000 0.0505897694
C   C23       1.0  0.78570  0.17530  0.83670  1.0000 0.0505897694
C   C24       1.0  0.17530  0.78570  0.66330  1.0000 0.0505897694
C   C25       1.0  0.14030  0.85210  0.99860  1.0000 -0.2109964152
C   C26       1.0  0.85210  0.14030  0.50140  1.0000 -0.2109964152
C   C27       1.0  0.85970  0.14790  0.00140  1.0000 -0.2109964152
C   C28       1.0  0.14790  0.85970  0.49860  1.0000 -0.2109964152
C   C29       1.0  0.25850  0.57910  0.25200  1.0000 -0.1314097751
C   C30       1.0  0.57910  0.25850  0.24800  1.0000 -0.1314097751
C   C31       1.0  0.74150  0.42090  0.74800  1.0000 -0.1314097751
C   C32       1.0  0.42090  0.74150  0.75200  1.0000 -0.1314097751
C   C33       1.0  0.26100  0.69160  0.28100  1.0000 0.0636420216
C   C34       1.0  0.69160  0.26100  0.21900  1.0000 0.0636420216
C   C35       1.0  0.73900  0.30840  0.71900  1.0000 0.0636420216
C   C36       1.0  0.30840  0.73900  0.78100  1.0000 0.0636420216
C   C37       1.0  0.86860  0.63660  0.06880  1.0000 0.0636420216
C   C38       1.0  0.63660  0.86860  0.43120  1.0000 0.0636420216
C   C39       1.0  0.13140  0.36340  0.93120  1.0000 0.0636420216
C   C40       1.0  0.36340  0.13140  0.56880  1.0000 0.0636420216
C   C41       1.0  0.90460  0.50520  0.10310  1.0000 0.0141595977
C   C42       1.0  0.50520  0.90460  0.39690  1.0000 0.0141595977
C   C43       1.0  0.09540  0.49480  0.89690  1.0000 0.0141595977
C   C44       1.0  0.49480  0.09540  0.60310  1.0000 0.0141595977
C   C45       1.0  0.84740  0.67300  0.98650  1.0000 -0.0987042968
C   C46       1.0  0.67300  0.84740  0.51350  1.0000 -0.0987042968
C   C47       1.0  0.15260  0.32700  0.01350  1.0000 -0.0987042968
C   C48       1.0  0.32700  0.15260  0.48650  1.0000 -0.0987042968
C   C49       1.0  0.78600  0.78420  0.93980  1.0000 -0.2270764146
C   C50       1.0  0.78420  0.78600  0.56020  1.0000 -0.2270764146
C   C51       1.0  0.21400  0.21580  0.06020  1.0000 -0.2270764146
C   C52       1.0  0.21580  0.21400  0.43980  1.0000 -0.2270764146
C   C53       1.0  0.92260  0.54260  0.22090  1.0000 0.0765915963
C   C54       1.0  0.54260  0.92260  0.27910  1.0000 0.0765915963
C   C55       1.0  0.07740  0.45740  0.77910  1.0000 0.0765915963
C   C56       1.0  0.45740  0.07740  0.72090  1.0000 0.0765915963
C   C57       1.0  0.89000  0.67860  0.19200  1.0000 -0.1314097751
C   C58       1.0  0.67860  0.89000  0.30800  1.0000 -0.1314097751
C   C59       1.0  0.11000  0.32140  0.80800  1.0000 -0.1314097751
C   C60       1.0  0.32140  0.11000  0.69200  1.0000 -0.1314097751
C   C61       1.0  0.86260  0.72660  0.11520  1.0000 -0.0732200311
C   C62       1.0  0.72660  0.86260  0.38480  1.0000 -0.0732200311
C   C63       1.0  0.13740  0.27340  0.88480  1.0000 -0.0732200311
C   C64       1.0  0.27340  0.13740  0.61520  1.0000 -0.0732200311
N   N1        1.0  0.23810  0.81410  0.23760  1.0000 -0.2189376761
N   N2        1.0  0.81410  0.23810  0.26240  1.0000 -0.2189376761
N   N3        1.0  0.76190  0.18590  0.76240  1.0000 -0.2189376761
N   N4        1.0  0.18590  0.76190  0.73760  1.0000 -0.2189376761
N   N5        1.0  0.93020  0.45640  0.17740  1.0000 -0.2109964152
N   N6        1.0  0.45640  0.93020  0.32260  1.0000 -0.2109964152
N   N7        1.0  0.06980  0.54360  0.82260  1.0000 -0.2109964152
N   N8        1.0  0.54360  0.06980  0.67740  1.0000 -0.2109964152
O   O1        1.0  0.95140  0.95140  0.75000  1.0000 -0.7945465256
O   O2        1.0  0.04860  0.04860  0.25000  1.0000 -0.7945465256
O   O3        1.0  0.11960  0.77240  0.88644  1.0000 -0.558265831
O   O4        1.0  0.77240  0.11960  0.61356  1.0000 -0.558265831
O   O5        1.0  0.88040  0.22760  0.11356  1.0000 -0.558265831
O   O6        1.0  0.22760  0.88040  0.38644  1.0000 -0.558265831
O   O7        1.0  0.85380  0.72400  0.83534  1.0000 -0.5440869142
O   O8        1.0  0.72400  0.85380  0.66466  1.0000 -0.5440869142
O   O9        1.0  0.14620  0.27600  0.16466  1.0000 -0.5440869142
O   O10       1.0  0.27600  0.14620  0.33534  1.0000 -0.5440869142
O   O11       1.0  0.05810  0.98650  0.87920  1.0000 -0.558265831
O   O12       1.0  0.98650  0.05810  0.62080  1.0000 -0.558265831
O   O13       1.0  0.94190  0.01350  0.12080  1.0000 -0.558265831
O   O14       1.0  0.01350  0.94190  0.37920  1.0000 -0.558265831
O   O15       1.0  0.72030  0.91490  0.81779  1.0000 -0.558265831
O   O16       1.0  0.91490  0.72030  0.68221  1.0000 -0.558265831
O   O17       1.0  0.27970  0.08510  0.18221  1.0000 -0.558265831
O   O18       1.0  0.08510  0.27970  0.31779  1.0000 -0.558265831
