# DDEC6 charges by PACMAN v1.1 (https://github.com/mtap-research/PACMAN-charge/)
data_2001[Cd][nan]3[FSR]1
_chemical_formula_sum              "Cd2 H16 C24 N4 O12"
_cell_length_a       10.1569
_cell_length_b       10.1569
_cell_length_c       6.721
_cell_angle_alpha    86.9288
_cell_angle_beta     93.0712
_cell_angle_gamma    90.4069

_symmetry_space_group_name_H-M    "P 1"
_symmetry_Int_Tables_number       1

loop_
  _symmetry_equiv_pos_as_xyz
  'x, y, z'

loop_
  _atom_site_type_symbol
  _atom_site_label
  _atom_site_symmetry_multiplicity
  _atom_site_fract_x
  _atom_site_fract_y
  _atom_site_fract_z
  _atom_site_occupancy
  _atom_site_charge
Cd  Cd1       1.0  0.42825  0.42825  0.75000  1.0000 1.0279111934
Cd  Cd2       1.0  0.57175  0.57175  0.25000  1.0000 1.0279111934
H   H1        1.0  0.64290  0.79330  0.87460  1.0000 0.1483731155
H   H2        1.0  0.20670  0.35710  0.37460  1.0000 0.1483731155
H   H3        1.0  0.35710  0.20670  0.12540  1.0000 0.1483731155
H   H4        1.0  0.79330  0.64290  0.62540  1.0000 0.1483731155
H   H5        1.0  0.26190  0.71590  0.78670  1.0000 0.1407031041
H   H6        1.0  0.28410  0.73810  0.28670  1.0000 0.1407031041
H   H7        1.0  0.73810  0.28410  0.21330  1.0000 0.1407031041
H   H8        1.0  0.71590  0.26190  0.71330  1.0000 0.1407031041
H   H9        1.0  0.60370  0.01110  0.77980  1.0000 0.1407031041
H   H10       1.0  0.98890  0.39630  0.27980  1.0000 0.1407031041
H   H11       1.0  0.39630  0.98890  0.22020  1.0000 0.1407031041
H   H12       1.0  0.01110  0.60370  0.72020  1.0000 0.1407031041
H   H13       1.0  0.22030  0.93130  0.66667  1.0000 0.1483731155
H   H14       1.0  0.06870  0.77970  0.16667  1.0000 0.1483731155
H   H15       1.0  0.77970  0.06870  0.33333  1.0000 0.1483731155
H   H16       1.0  0.93130  0.22030  0.83333  1.0000 0.1483731155
C   C1        1.0  0.40900  0.99780  0.71300  1.0000 0.0035380938
C   C2        1.0  0.00220  0.59100  0.21300  1.0000 0.0035380938
C   C3        1.0  0.59100  0.00220  0.28700  1.0000 0.0035380938
C   C4        1.0  0.99780  0.40900  0.78700  1.0000 0.0035380938
C   C5        1.0  0.55770  0.82250  0.83940  1.0000 -0.0086183027
C   C6        1.0  0.17750  0.44230  0.33940  1.0000 -0.0086183027
C   C7        1.0  0.44230  0.17750  0.16060  1.0000 -0.0086183027
C   C8        1.0  0.82250  0.55770  0.66060  1.0000 -0.0086183027
C   C9        1.0  0.33030  0.77710  0.78330  1.0000 -0.0464825027
C   C10       1.0  0.22290  0.66970  0.28330  1.0000 -0.0464825027
C   C11       1.0  0.66970  0.22290  0.21670  1.0000 -0.0464825027
C   C12       1.0  0.77710  0.33030  0.71670  1.0000 -0.0464825027
C   C13       1.0  0.38050  0.14030  0.65370  1.0000 0.5542286706
C   C14       1.0  0.85970  0.61950  0.15370  1.0000 0.5542286706
C   C15       1.0  0.61950  0.85970  0.34630  1.0000 0.5542286706
C   C16       1.0  0.14030  0.38050  0.84630  1.0000 0.5542286706
C   C17       1.0  0.53360  0.95180  0.77790  1.0000 -0.1463935453
C   C18       1.0  0.04820  0.46640  0.27790  1.0000 -0.1463935453
C   C19       1.0  0.46640  0.04820  0.22210  1.0000 -0.1463935453
C   C20       1.0  0.95180  0.53360  0.72210  1.0000 -0.1463935453
C   C21       1.0  0.30490  0.90610  0.71300  1.0000 -0.1463935453
C   C22       1.0  0.09390  0.69510  0.21300  1.0000 -0.1463935453
C   C23       1.0  0.69510  0.09390  0.28700  1.0000 -0.1463935453
C   C24       1.0  0.90610  0.30490  0.78700  1.0000 -0.1463935453
N   N1        1.0  0.45430  0.73970  0.84700  1.0000 0.3167962801
N   N2        1.0  0.26030  0.54570  0.34700  1.0000 0.3167962801
N   N3        1.0  0.54570  0.26030  0.15300  1.0000 0.3167962801
N   N4        1.0  0.73970  0.45430  0.65300  1.0000 0.3167962801
O   O1        1.0  0.27900  0.17320  0.55900  1.0000 -0.5135380256
O   O2        1.0  0.82680  0.72100  0.05900  1.0000 -0.5135380256
O   O3        1.0  0.72100  0.82680  0.44100  1.0000 -0.5135380256
O   O4        1.0  0.17320  0.27900  0.94100  1.0000 -0.5135380256
O   O5        1.0  0.47620  0.61540  0.92340  1.0000 -0.5210736918
O   O6        1.0  0.38460  0.52380  0.42340  1.0000 -0.5210736918
O   O7        1.0  0.52380  0.38460  0.07660  1.0000 -0.5210736918
O   O8        1.0  0.61540  0.47620  0.57660  1.0000 -0.5210736918
O   O9        1.0  0.47151  0.21883  0.71380  1.0000 -0.5841714668
O   O10       1.0  0.78117  0.52849  0.21380  1.0000 -0.5841714668
O   O11       1.0  0.52849  0.78117  0.28620  1.0000 -0.5841714668
O   O12       1.0  0.21883  0.47151  0.78620  1.0000 -0.5841714668
