# DDEC6 charges by PACMAN v1.1 (https://github.com/mtap-research/PACMAN-charge/)
data_2002[Cu][dia]3[FSR]1
_chemical_formula_sum              "Cu4 H64 C48 N32 O8"
_cell_length_a       9.032
_cell_length_b       9.032
_cell_length_c       31.322
_cell_angle_alpha    90
_cell_angle_beta     90
_cell_angle_gamma    90

_symmetry_space_group_name_H-M    "P 1"
_symmetry_Int_Tables_number       1

loop_
  _symmetry_equiv_pos_as_xyz
  'x, y, z'

loop_
  _atom_site_type_symbol
  _atom_site_label
  _atom_site_symmetry_multiplicity
  _atom_site_fract_x
  _atom_site_fract_y
  _atom_site_fract_z
  _atom_site_occupancy
  _atom_site_charge
Cu  Cu1       1.0  0.73262  0.73262  0.00000  1.0000 0.5616071215
Cu  Cu2       1.0  0.76738  0.23262  0.75000  1.0000 0.5616071215
Cu  Cu3       1.0  0.26738  0.26738  0.50000  1.0000 0.5616071215
Cu  Cu4       1.0  0.23262  0.76738  0.25000  1.0000 0.5616071215
H   H1        1.0  0.56000  0.77800  0.09030  1.0000 0.1013495347
H   H2        1.0  0.72200  0.06000  0.84030  1.0000 0.1013495347
H   H3        1.0  0.44000  0.22200  0.59030  1.0000 0.1013495347
H   H4        1.0  0.27800  0.94000  0.34030  1.0000 0.1013495347
H   H5        1.0  0.94000  0.27800  0.65970  1.0000 0.1013495347
H   H6        1.0  0.77800  0.56000  0.90970  1.0000 0.1013495347
H   H7        1.0  0.06000  0.72200  0.15970  1.0000 0.1013495347
H   H8        1.0  0.22200  0.44000  0.40970  1.0000 0.1013495347
H   H9        1.0  0.63400  0.42100  0.02340  1.0000 0.2416863413
H   H10       1.0  0.07900  0.13400  0.77340  1.0000 0.2416863413
H   H11       1.0  0.36600  0.57900  0.52340  1.0000 0.2416863413
H   H12       1.0  0.92100  0.86600  0.27340  1.0000 0.2416863413
H   H13       1.0  0.86600  0.92100  0.72660  1.0000 0.2416863413
H   H14       1.0  0.42100  0.63400  0.97660  1.0000 0.2416863413
H   H15       1.0  0.13400  0.07900  0.22660  1.0000 0.2416863413
H   H16       1.0  0.57900  0.36600  0.47660  1.0000 0.2416863413
H   H17       1.0  0.52300  0.33700  0.08290  1.0000 0.1013495347
H   H18       1.0  0.16300  0.02300  0.83290  1.0000 0.1013495347
H   H19       1.0  0.47700  0.66300  0.58290  1.0000 0.1013495347
H   H20       1.0  0.83700  0.97700  0.33290  1.0000 0.1013495347
H   H21       1.0  0.97700  0.83700  0.66710  1.0000 0.1013495347
H   H22       1.0  0.33700  0.52300  0.91710  1.0000 0.1013495347
H   H23       1.0  0.02300  0.16300  0.16710  1.0000 0.1013495347
H   H24       1.0  0.66300  0.47700  0.41710  1.0000 0.1013495347
H   H25       1.0  0.37200  0.34100  0.16350  1.0000 0.1013495347
H   H26       1.0  0.15900  0.87200  0.91350  1.0000 0.1013495347
H   H27       1.0  0.62800  0.65900  0.66350  1.0000 0.1013495347
H   H28       1.0  0.84100  0.12800  0.41350  1.0000 0.1013495347
H   H29       1.0  0.12800  0.84100  0.58650  1.0000 0.1013495347
H   H30       1.0  0.34100  0.37200  0.83650  1.0000 0.1013495347
H   H31       1.0  0.87200  0.15900  0.08650  1.0000 0.1013495347
H   H32       1.0  0.65900  0.62800  0.33650  1.0000 0.1013495347
H   H33       1.0  0.93200  0.51400  0.98300  1.0000 0.2702152384
H   H34       1.0  0.98600  0.43200  0.73300  1.0000 0.2702152384
H   H35       1.0  0.06800  0.48600  0.48300  1.0000 0.2702152384
H   H36       1.0  0.01400  0.56800  0.23300  1.0000 0.2702152384
H   H37       1.0  0.56800  0.01400  0.76700  1.0000 0.2702152384
H   H38       1.0  0.51400  0.93200  0.01700  1.0000 0.2702152384
H   H39       1.0  0.43200  0.98600  0.26700  1.0000 0.2702152384
H   H40       1.0  0.48600  0.06800  0.51700  1.0000 0.2702152384
H   H41       1.0  0.96400  0.49000  0.02500  1.0000 0.2976125245
H   H42       1.0  0.01000  0.46400  0.77500  1.0000 0.2976125245
H   H43       1.0  0.03600  0.51000  0.52500  1.0000 0.2976125245
H   H44       1.0  0.99000  0.53600  0.27500  1.0000 0.2976125245
H   H45       1.0  0.53600  0.99000  0.72500  1.0000 0.2976125245
H   H46       1.0  0.49000  0.96400  0.97500  1.0000 0.2976125245
H   H47       1.0  0.46400  0.01000  0.22500  1.0000 0.2976125245
H   H48       1.0  0.51000  0.03600  0.47500  1.0000 0.2976125245
H   H49       1.0  0.28900  0.44800  0.22560  1.0000 0.2416863413
H   H50       1.0  0.05200  0.78900  0.97560  1.0000 0.2416863413
H   H51       1.0  0.71100  0.55200  0.72560  1.0000 0.2416863413
H   H52       1.0  0.94800  0.21100  0.47560  1.0000 0.2416863413
H   H53       1.0  0.21100  0.94800  0.52440  1.0000 0.2416863413
H   H54       1.0  0.44800  0.28900  0.77440  1.0000 0.2416863413
H   H55       1.0  0.78900  0.05200  0.02440  1.0000 0.2416863413
H   H56       1.0  0.55200  0.71100  0.27440  1.0000 0.2416863413
H   H57       1.0  0.40700  0.78000  0.16190  1.0000 0.1013495347
H   H58       1.0  0.72000  0.90700  0.91190  1.0000 0.1013495347
H   H59       1.0  0.59300  0.22000  0.66190  1.0000 0.1013495347
H   H60       1.0  0.28000  0.09300  0.41190  1.0000 0.1013495347
H   H61       1.0  0.09300  0.28000  0.58810  1.0000 0.1013495347
H   H62       1.0  0.78000  0.40700  0.83810  1.0000 0.1013495347
H   H63       1.0  0.90700  0.72000  0.08810  1.0000 0.1013495347
H   H64       1.0  0.22000  0.59300  0.33810  1.0000 0.1013495347
C   C1        1.0  0.56230  0.66380  0.08129  1.0000 -0.0935947974
C   C2        1.0  0.83620  0.06230  0.83129  1.0000 -0.0935947974
C   C3        1.0  0.43770  0.33620  0.58129  1.0000 -0.0935947974
C   C4        1.0  0.16380  0.93770  0.33129  1.0000 -0.0935947974
C   C5        1.0  0.93770  0.16380  0.66871  1.0000 -0.0935947974
C   C6        1.0  0.66380  0.56230  0.91871  1.0000 -0.0935947974
C   C7        1.0  0.06230  0.83620  0.16871  1.0000 -0.0935947974
C   C8        1.0  0.33620  0.43770  0.41871  1.0000 -0.0935947974
C   C9        1.0  0.50120  0.54420  0.10354  1.0000 -0.0171962891
C   C10       1.0  0.95580  0.00120  0.85354  1.0000 -0.0171962891
C   C11       1.0  0.49880  0.45580  0.60354  1.0000 -0.0171962891
C   C12       1.0  0.04420  0.99880  0.35354  1.0000 -0.0171962891
C   C13       1.0  0.99880  0.04420  0.64646  1.0000 -0.0171962891
C   C14       1.0  0.54420  0.50120  0.89646  1.0000 -0.0171962891
C   C15       1.0  0.00120  0.95580  0.14646  1.0000 -0.0171962891
C   C16       1.0  0.45580  0.49880  0.39646  1.0000 -0.0171962891
C   C17       1.0  0.53320  0.42380  0.07870  1.0000 -0.1170174983
C   C18       1.0  0.07620  0.03320  0.82870  1.0000 -0.1146181534
C   C19       1.0  0.46680  0.57620  0.57870  1.0000 -0.1146181534
C   C20       1.0  0.92380  0.96680  0.32870  1.0000 -0.1146181534
C   C21       1.0  0.96680  0.92380  0.67130  1.0000 -0.1146181534
C   C22       1.0  0.42380  0.53320  0.92130  1.0000 -0.1146181534
C   C23       1.0  0.03320  0.07620  0.17130  1.0000 -0.1146181534
C   C24       1.0  0.57620  0.46680  0.42130  1.0000 -0.1146181534
C   C25       1.0  0.39490  0.67530  0.16866  1.0000 -0.1025791625
C   C26       1.0  0.82470  0.89490  0.91866  1.0000 -0.0935947974
C   C27       1.0  0.60510  0.32470  0.66866  1.0000 -0.0935947974
C   C28       1.0  0.17530  0.10510  0.41866  1.0000 -0.0935947974
C   C29       1.0  0.10510  0.17530  0.58134  1.0000 -0.0935947974
C   C30       1.0  0.67530  0.39490  0.83134  1.0000 -0.0935947974
C   C31       1.0  0.89490  0.82470  0.08134  1.0000 -0.0935947974
C   C32       1.0  0.32470  0.60510  0.33134  1.0000 -0.1025791625
C   C33       1.0  0.42580  0.54960  0.14464  1.0000 -0.0171962891
C   C34       1.0  0.95040  0.92580  0.89464  1.0000 -0.0171962891
C   C35       1.0  0.57420  0.45040  0.64464  1.0000 -0.0171962891
C   C36       1.0  0.04960  0.07420  0.39464  1.0000 -0.0171962891
C   C37       1.0  0.07420  0.04960  0.60536  1.0000 -0.0171962891
C   C38       1.0  0.54960  0.42580  0.85536  1.0000 -0.0171962891
C   C39       1.0  0.92580  0.95040  0.10536  1.0000 -0.0171962891
C   C40       1.0  0.45040  0.57420  0.35536  1.0000 -0.0171962891
C   C41       1.0  0.37230  0.43540  0.16901  1.0000 -0.1025791625
C   C42       1.0  0.06460  0.87230  0.91901  1.0000 -0.1025791625
C   C43       1.0  0.62770  0.56460  0.66901  1.0000 -0.1025791625
C   C44       1.0  0.93540  0.12770  0.41901  1.0000 -0.1025791625
C   C45       1.0  0.12770  0.93540  0.58099  1.0000 -0.1025791625
C   C46       1.0  0.43540  0.37230  0.83099  1.0000 -0.1025791625
C   C47       1.0  0.87230  0.06460  0.08099  1.0000 -0.1025791625
C   C48       1.0  0.56460  0.62770  0.33099  1.0000 -0.1025791625
N   N1        1.0  0.62650  0.61840  0.04515  1.0000 -0.2192527651
N   N2        1.0  0.88160  0.12650  0.79515  1.0000 -0.2192527651
N   N3        1.0  0.37350  0.38160  0.54515  1.0000 -0.2192527651
N   N4        1.0  0.11840  0.87350  0.29515  1.0000 -0.2192527651
N   N5        1.0  0.87350  0.11840  0.70485  1.0000 -0.2192527651
N   N6        1.0  0.61840  0.62650  0.95485  1.0000 -0.2192527651
N   N7        1.0  0.12650  0.88160  0.20485  1.0000 -0.2192527651
N   N8        1.0  0.38160  0.37350  0.45485  1.0000 -0.2192527651
N   N9        1.0  0.60700  0.47100  0.04427  1.0000 -0.1170174983
N   N10       1.0  0.02900  0.10700  0.79427  1.0000 -0.1170174983
N   N11       1.0  0.39300  0.52900  0.54427  1.0000 -0.1170174983
N   N12       1.0  0.97100  0.89300  0.29427  1.0000 -0.1170174983
N   N13       1.0  0.89300  0.97100  0.70573  1.0000 -0.1170174983
N   N14       1.0  0.47100  0.60700  0.95573  1.0000 -0.1170174983
N   N15       1.0  0.10700  0.02900  0.20573  1.0000 -0.1170174983
N   N16       1.0  0.52900  0.39300  0.45573  1.0000 -0.1170174983
N   N17       1.0  0.32650  0.64060  0.20510  1.0000 -0.2192527651
N   N18       1.0  0.85940  0.82650  0.95510  1.0000 -0.2192527651
N   N19       1.0  0.67350  0.35940  0.70510  1.0000 -0.2149604122
N   N20       1.0  0.14060  0.17350  0.45510  1.0000 -0.2192527651
N   N21       1.0  0.17350  0.14060  0.54490  1.0000 -0.2192527651
N   N22       1.0  0.64060  0.32650  0.79490  1.0000 -0.2149604122
N   N23       1.0  0.82650  0.85940  0.04490  1.0000 -0.2192527651
N   N24       1.0  0.35940  0.67350  0.29490  1.0000 -0.2192527651
N   N25       1.0  0.31460  0.49210  0.20437  1.0000 -0.1170174983
N   N26       1.0  0.00790  0.81460  0.95437  1.0000 -0.1146181534
N   N27       1.0  0.68540  0.50790  0.70437  1.0000 -0.1170174983
N   N28       1.0  0.99210  0.18540  0.45437  1.0000 -0.1170174983
N   N29       1.0  0.18540  0.99210  0.54563  1.0000 -0.1170174983
N   N30       1.0  0.49210  0.31460  0.79563  1.0000 -0.1170174983
N   N31       1.0  0.81460  0.00790  0.04563  1.0000 -0.1170174983
N   N32       1.0  0.50790  0.68540  0.29563  1.0000 -0.1170174983
O   O1        1.0  0.91590  0.53870  0.00304  1.0000 -0.6246064613
O   O2        1.0  0.96130  0.41590  0.75304  1.0000 -0.6246064613
O   O3        1.0  0.08410  0.46130  0.50304  1.0000 -0.6254135678
O   O4        1.0  0.03870  0.58410  0.25304  1.0000 -0.6254135678
O   O5        1.0  0.58410  0.03870  0.74696  1.0000 -0.6246064613
O   O6        1.0  0.53870  0.91590  0.99696  1.0000 -0.6254135678
O   O7        1.0  0.41590  0.96130  0.24696  1.0000 -0.6246064613
O   O8        1.0  0.46130  0.08410  0.49696  1.0000 -0.6246064613
