# DDEC6 charges by PACMAN v1.1 (https://github.com/mtap-research/PACMAN-charge/)
data_2002[Fe][dia]3[FSR]1
_chemical_formula_sum              "Fe4 C8 Cl4 O18"
_cell_length_a       14
_cell_length_b       12.6667
_cell_length_c       8.73428
_cell_angle_alpha    79.3917
_cell_angle_beta     62.786
_cell_angle_gamma    37.8223

_symmetry_space_group_name_H-M    "P 1"
_symmetry_Int_Tables_number       1

loop_
  _symmetry_equiv_pos_as_xyz
  'x, y, z'

loop_
  _atom_site_type_symbol
  _atom_site_label
  _atom_site_symmetry_multiplicity
  _atom_site_fract_x
  _atom_site_fract_y
  _atom_site_fract_z
  _atom_site_occupancy
  _atom_site_charge
Fe  Fe1       1.0  0.12767  0.98137  0.01863  1.0000 1.151957064
Fe  Fe2       1.0  0.87233  0.01863  0.98137  1.0000 1.151957064
Fe  Fe3       1.0  0.26863  0.12233  0.37767  1.0000 1.151957064
Fe  Fe4       1.0  0.23137  0.37767  0.12233  1.0000 1.151957064
C   C1        1.0  0.10330  0.12170  0.27390  1.0000 0.5123889885
C   C2        1.0  0.50110  0.27390  0.12170  1.0000 0.5123889885
C   C3        1.0  0.12830  0.14670  0.74890  1.0000 0.5123889885
C   C4        1.0  0.97610  0.74890  0.14670  1.0000 0.5123889885
C   C5        1.0  0.29880  0.98380  0.11300  1.0000 0.5027503959
C   C6        1.0  0.60440  0.11300  0.98380  1.0000 0.5027503959
C   C7        1.0  0.26620  0.95120  0.64560  1.0000 0.5027503959
C   C8        1.0  0.13700  0.64560  0.95120  1.0000 0.5027503959
Cl  Cl1       1.0  0.27623  0.71571  0.08749  1.0000 -0.2914213845
Cl  Cl2       1.0  0.92057  0.08749  0.71571  1.0000 -0.2914213845
Cl  Cl3       1.0  0.53429  0.97377  0.32943  1.0000 -0.2914213845
Cl  Cl4       1.0  0.16251  0.32943  0.97377  1.0000 -0.2914213845
O   O1        1.0  0.92410  0.07590  0.07590  1.0000 -0.5760347256
O   O2        1.0  0.17410  0.32590  0.32590  1.0000 -0.5760347256
O   O3        1.0  0.00546  0.14006  0.25854  1.0000 -0.379599058
O   O4        1.0  0.59594  0.25854  0.14006  1.0000 -0.379599058
O   O5        1.0  0.10994  0.24454  0.65406  1.0000 -0.379599058
O   O6        1.0  0.99146  0.65406  0.24454  1.0000 -0.379599058
O   O7        1.0  0.34558  0.90498  0.97622  1.0000 -0.4157658377
O   O8        1.0  0.77322  0.97622  0.90498  1.0000 -0.4143362948
O   O9        1.0  0.34502  0.90442  0.47678  1.0000 -0.4143362948
O   O10       1.0  0.27378  0.47678  0.90442  1.0000 -0.4157658377
O   O11       1.0  0.39611  0.96291  0.13389  1.0000 -0.3965037884
O   O12       1.0  0.50709  0.13389  0.96291  1.0000 -0.3965037884
O   O13       1.0  0.28709  0.85389  0.74291  1.0000 -0.3965037884
O   O14       1.0  0.11611  0.74291  0.85389  1.0000 -0.3965037884
O   O15       1.0  0.05625  0.20525  0.40695  1.0000 -0.3965037884
O   O16       1.0  0.33155  0.40695  0.20525  1.0000 -0.3965037884
O   O17       1.0  0.04475  0.19375  0.91845  1.0000 -0.3965037884
O   O18       1.0  0.84305  0.91845  0.19375  1.0000 -0.3965037884
