# DDEC6 charges by PACMAN v1.1 (https://github.com/mtap-research/PACMAN-charge/)
data_2002[Co][pcu]3[FSR]1
_chemical_formula_sum              "Co2 H84 C84 N24"
_cell_length_a       13.5576
_cell_length_b       13.5576
_cell_length_c       19.822
_cell_angle_alpha    86.6206
_cell_angle_beta     93.3794
_cell_angle_gamma    40.2702

_symmetry_space_group_name_H-M    "P 1"
_symmetry_Int_Tables_number       1

loop_
  _symmetry_equiv_pos_as_xyz
  'x, y, z'

loop_
  _atom_site_type_symbol
  _atom_site_label
  _atom_site_symmetry_multiplicity
  _atom_site_fract_x
  _atom_site_fract_y
  _atom_site_fract_z
  _atom_site_occupancy
  _atom_site_charge
Co  Co1       1.0  0.00000  0.00000  0.00000  1.0000 0.500669044
Co  Co2       1.0  0.00000  0.00000  0.50000  1.0000 0.500669044
H   H1        1.0  0.74300  0.04500  0.91640  1.0000 0.1004378819
H   H2        1.0  0.04500  0.74300  0.58360  1.0000 0.1004378819
H   H3        1.0  0.25700  0.95500  0.08360  1.0000 0.1004378819
H   H4        1.0  0.95500  0.25700  0.41640  1.0000 0.1004378819
H   H5        1.0  0.64030  0.32730  0.03390  1.0000 0.1088952258
H   H6        1.0  0.32730  0.64030  0.46610  1.0000 0.1088952258
H   H7        1.0  0.35970  0.67270  0.96610  1.0000 0.1088952258
H   H8        1.0  0.67270  0.35970  0.53390  1.0000 0.1088952258
H   H9        1.0  0.40190  0.42170  0.99370  1.0000 0.118024359
H   H10       1.0  0.42170  0.40190  0.50630  1.0000 0.118024359
H   H11       1.0  0.59810  0.57830  0.00630  1.0000 0.118024359
H   H12       1.0  0.57830  0.59810  0.49370  1.0000 0.118024359
H   H13       1.0  0.33120  0.33080  0.91430  1.0000 0.118024359
H   H14       1.0  0.33080  0.33120  0.58570  1.0000 0.118024359
H   H15       1.0  0.66880  0.66920  0.08570  1.0000 0.118024359
H   H16       1.0  0.66920  0.66880  0.41430  1.0000 0.118024359
H   H17       1.0  0.45440  0.20780  0.86950  1.0000 0.1088952258
H   H18       1.0  0.20780  0.45440  0.63050  1.0000 0.1088952258
H   H19       1.0  0.54560  0.79220  0.13050  1.0000 0.1088952258
H   H20       1.0  0.79220  0.54560  0.36950  1.0000 0.1088952258
H   H21       1.0  0.50180  0.14680  0.05160  1.0000 0.1088952258
H   H22       1.0  0.14680  0.50180  0.44840  1.0000 0.1088952258
H   H23       1.0  0.49820  0.85320  0.94840  1.0000 0.1088952258
H   H24       1.0  0.85320  0.49820  0.55160  1.0000 0.1088952258
H   H25       1.0  0.45090  0.03550  0.88190  1.0000 0.1088952258
H   H26       1.0  0.03550  0.45090  0.61810  1.0000 0.1088952258
H   H27       1.0  0.54910  0.96450  0.11810  1.0000 0.1088952258
H   H28       1.0  0.96450  0.54910  0.38190  1.0000 0.1088952258
H   H29       1.0  0.10210  0.93470  0.85120  1.0000 0.1004378819
H   H30       1.0  0.93470  0.10210  0.64880  1.0000 0.1004378819
H   H31       1.0  0.89790  0.06530  0.14880  1.0000 0.1004378819
H   H32       1.0  0.06530  0.89790  0.35120  1.0000 0.1004378819
H   H33       1.0  0.02770  0.74410  0.95150  1.0000 0.1088952258
H   H34       1.0  0.74410  0.02770  0.54850  1.0000 0.1088952258
H   H35       1.0  0.97230  0.25590  0.04850  1.0000 0.1088952258
H   H36       1.0  0.25590  0.97230  0.45150  1.0000 0.1088952258
H   H37       1.0  0.08640  0.65760  0.84120  1.0000 0.118024359
H   H38       1.0  0.65760  0.08640  0.65880  1.0000 0.118024359
H   H39       1.0  0.91360  0.34240  0.15880  1.0000 0.118024359
H   H40       1.0  0.34240  0.91360  0.34120  1.0000 0.118024359
H   H41       1.0  0.07840  0.79120  0.72160  1.0000 0.1088952258
H   H42       1.0  0.79120  0.07840  0.77840  1.0000 0.1088952258
H   H43       1.0  0.92160  0.20880  0.27840  1.0000 0.1088952258
H   H44       1.0  0.20880  0.92160  0.22160  1.0000 0.1088952258
H   H45       1.0  0.14450  0.84530  0.73890  1.0000 0.1088952258
H   H46       1.0  0.84530  0.14450  0.76110  1.0000 0.1088952258
H   H47       1.0  0.85550  0.15470  0.26110  1.0000 0.1088952258
H   H48       1.0  0.15470  0.85550  0.23890  1.0000 0.1088952258
H   H49       1.0  0.25910  0.50610  0.74920  1.0000 0.1088952258
H   H50       1.0  0.50610  0.25910  0.75080  1.0000 0.1088952258
H   H51       1.0  0.74090  0.49390  0.25080  1.0000 0.1088952258
H   H52       1.0  0.49390  0.74090  0.24920  1.0000 0.1088952258
H   H53       1.0  0.41800  0.66200  0.75300  1.0000 0.1088952258
H   H54       1.0  0.66200  0.41800  0.74700  1.0000 0.1088952258
H   H55       1.0  0.58200  0.33800  0.24700  1.0000 0.1088952258
H   H56       1.0  0.33800  0.58200  0.25300  1.0000 0.1088952258
H   H57       1.0  0.15260  0.08360  0.93280  1.0000 0.1004378819
H   H58       1.0  0.08360  0.15260  0.56720  1.0000 0.1004378819
H   H59       1.0  0.84740  0.91640  0.06720  1.0000 0.1004378819
H   H60       1.0  0.91640  0.84740  0.43280  1.0000 0.1004378819
H   H61       1.0  0.71610  0.34850  0.90470  1.0000 0.1088952258
H   H62       1.0  0.34850  0.71610  0.59530  1.0000 0.1088952258
H   H63       1.0  0.28390  0.65150  0.09530  1.0000 0.1088952258
H   H64       1.0  0.65150  0.28390  0.40470  1.0000 0.1088952258
H   H65       1.0  0.73240  0.50900  0.86430  1.0000 0.118024359
H   H66       1.0  0.50900  0.73240  0.63570  1.0000 0.118024359
H   H67       1.0  0.26760  0.49100  0.13570  1.0000 0.118024359
H   H68       1.0  0.49100  0.26760  0.36430  1.0000 0.118024359
H   H69       1.0  0.14050  0.27230  0.87830  1.0000 0.1088952258
H   H70       1.0  0.27230  0.14050  0.62170  1.0000 0.1088952258
H   H71       1.0  0.85950  0.72770  0.12170  1.0000 0.1088952258
H   H72       1.0  0.72770  0.85950  0.37830  1.0000 0.1088952258
H   H73       1.0  0.97740  0.43520  0.84150  1.0000 0.1088952258
H   H74       1.0  0.43520  0.97740  0.65850  1.0000 0.1088952258
H   H75       1.0  0.02260  0.56480  0.15850  1.0000 0.1088952258
H   H76       1.0  0.56480  0.02260  0.34150  1.0000 0.1088952258
H   H77       1.0  0.18020  0.23580  0.01140  1.0000 0.1004378819
H   H78       1.0  0.23580  0.18020  0.48860  1.0000 0.1004378819
H   H79       1.0  0.81980  0.76420  0.98860  1.0000 0.1004378819
H   H80       1.0  0.76420  0.81980  0.51140  1.0000 0.1004378819
H   H81       1.0  0.85050  0.65210  0.89500  1.0000 0.1088952258
H   H82       1.0  0.65210  0.85050  0.60500  1.0000 0.1088952258
H   H83       1.0  0.14950  0.34790  0.10500  1.0000 0.1088952258
H   H84       1.0  0.34790  0.14950  0.39500  1.0000 0.1088952258
C   C1        1.0  0.68883  0.12663  0.94082  1.0000 0.0599166744
C   C2        1.0  0.12663  0.68883  0.55918  1.0000 0.0599166744
C   C3        1.0  0.31117  0.87337  0.05918  1.0000 0.0599166744
C   C4        1.0  0.87337  0.31117  0.44082  1.0000 0.0599166744
C   C5        1.0  0.63203  0.28143  0.00518  1.0000 -0.0574457044
C   C6        1.0  0.28143  0.63203  0.49482  1.0000 -0.0574457044
C   C7        1.0  0.36797  0.71857  0.99482  1.0000 -0.0574457044
C   C8        1.0  0.71857  0.36797  0.50518  1.0000 -0.0574457044
C   C9        1.0  0.49930  0.33470  0.98302  1.0000 -0.1327822824
C   C10       1.0  0.33470  0.49930  0.51698  1.0000 -0.1327822824
C   C11       1.0  0.50070  0.66530  0.01698  1.0000 -0.1327822824
C   C12       1.0  0.66530  0.50070  0.48302  1.0000 -0.1327822824
C   C13       1.0  0.43876  0.23036  0.91587  1.0000 -0.1897881082
C   C14       1.0  0.23036  0.43876  0.58413  1.0000 -0.1897881082
C   C15       1.0  0.56124  0.76964  0.08413  1.0000 -0.1897881082
C   C16       1.0  0.76964  0.56124  0.41587  1.0000 -0.1897881082
C   C17       1.0  0.47329  0.10869  0.95987  1.0000 0.0805265359
C   C18       1.0  0.10869  0.47329  0.54013  1.0000 0.0805265359
C   C19       1.0  0.52671  0.89131  0.04013  1.0000 0.0805265359
C   C20       1.0  0.89131  0.52671  0.45987  1.0000 0.0805265359
C   C21       1.0  0.50140  0.08760  0.03059  1.0000 -0.1777147375
C   C22       1.0  0.08760  0.50140  0.46941  1.0000 -0.1777147375
C   C23       1.0  0.49860  0.91240  0.96941  1.0000 -0.1777147375
C   C24       1.0  0.91240  0.49860  0.53059  1.0000 -0.1777147375
C   C25       1.0  0.47100  0.02140  0.92941  1.0000 -0.1897881082
C   C26       1.0  0.02140  0.47100  0.57059  1.0000 -0.1897881082
C   C27       1.0  0.52900  0.97860  0.07059  1.0000 -0.1897881082
C   C28       1.0  0.97860  0.52900  0.42941  1.0000 -0.1897881082
C   C29       1.0  0.09056  0.87676  0.86289  1.0000 0.0599166744
C   C30       1.0  0.87676  0.09056  0.63711  1.0000 0.0599166744
C   C31       1.0  0.90944  0.12324  0.13711  1.0000 0.0599166744
C   C32       1.0  0.12324  0.90944  0.36289  1.0000 0.0599166744
C   C33       1.0  0.04961  0.77241  0.91730  1.0000 -0.0670221927
C   C34       1.0  0.77241  0.04961  0.58270  1.0000 -0.0670221927
C   C35       1.0  0.95039  0.22759  0.08270  1.0000 -0.0670221927
C   C36       1.0  0.22759  0.95039  0.41730  1.0000 -0.0670221927
C   C37       1.0  0.08279  0.72359  0.85670  1.0000 -0.1327822824
C   C38       1.0  0.72359  0.08279  0.64330  1.0000 -0.1327822824
C   C39       1.0  0.91721  0.27641  0.14330  1.0000 -0.1327822824
C   C40       1.0  0.27641  0.91721  0.35670  1.0000 -0.1327822824
C   C41       1.0  0.15160  0.77040  0.75346  1.0000 -0.1897881082
C   C42       1.0  0.77040  0.15160  0.74654  1.0000 -0.1897881082
C   C43       1.0  0.84840  0.22960  0.24654  1.0000 -0.1897881082
C   C44       1.0  0.22960  0.84840  0.25346  1.0000 -0.1897881082
C   C45       1.0  0.31389  0.60889  0.75154  1.0000 0.0920786844
C   C46       1.0  0.60889  0.31389  0.74846  1.0000 0.0920786844
C   C47       1.0  0.68611  0.39111  0.24846  1.0000 0.0920786844
C   C48       1.0  0.39111  0.68611  0.25154  1.0000 0.0920786844
C   C49       1.0  0.34084  0.48764  0.75010  1.0000 -0.1777147375
C   C50       1.0  0.48764  0.34084  0.74990  1.0000 -0.1777147375
C   C51       1.0  0.65916  0.51236  0.24990  1.0000 -0.1777147375
C   C52       1.0  0.51236  0.65916  0.25010  1.0000 -0.1777147375
C   C53       1.0  0.43539  0.58139  0.75130  1.0000 -0.1726532462
C   C54       1.0  0.58139  0.43539  0.74870  1.0000 -0.1726532462
C   C55       1.0  0.56461  0.41861  0.24870  1.0000 -0.1726532462
C   C56       1.0  0.41861  0.56461  0.25130  1.0000 -0.1726532462
C   C57       1.0  0.04568  0.16908  0.92093  1.0000 0.0599166744
C   C58       1.0  0.16908  0.04568  0.57907  1.0000 0.0599166744
C   C59       1.0  0.95432  0.83092  0.07907  1.0000 0.0599166744
C   C60       1.0  0.83092  0.95432  0.42093  1.0000 0.0599166744
C   C61       1.0  0.80701  0.31461  0.90552  1.0000 -0.0574457044
C   C62       1.0  0.31461  0.80701  0.59448  1.0000 -0.0574457044
C   C63       1.0  0.19299  0.68539  0.09448  1.0000 -0.0574457044
C   C64       1.0  0.68539  0.19299  0.40552  1.0000 -0.0574457044
C   C65       1.0  0.81472  0.40452  0.88279  1.0000 -0.1327822824
C   C66       1.0  0.40452  0.81472  0.61721  1.0000 -0.1327822824
C   C67       1.0  0.18528  0.59548  0.11721  1.0000 -0.1327822824
C   C68       1.0  0.59548  0.18528  0.38279  1.0000 -0.1327822824
C   C69       1.0  0.03246  0.36026  0.88308  1.0000 -0.1777147375
C   C70       1.0  0.36026  0.03246  0.61692  1.0000 -0.1777147375
C   C71       1.0  0.96754  0.63974  0.11692  1.0000 -0.1777147375
C   C72       1.0  0.63974  0.96754  0.38308  1.0000 -0.1777147375
C   C73       1.0  0.01759  0.43279  0.94414  1.0000 0.0805265359
C   C74       1.0  0.43279  0.01759  0.55586  1.0000 0.0805265359
C   C75       1.0  0.98241  0.56721  0.05586  1.0000 0.0805265359
C   C76       1.0  0.56721  0.98241  0.44414  1.0000 0.0805265359
C   C77       1.0  0.10728  0.34228  0.00655  1.0000 -0.1777147375
C   C78       1.0  0.34228  0.10728  0.49345  1.0000 -0.1777147375
C   C79       1.0  0.89272  0.65772  0.99345  1.0000 -0.1777147375
C   C80       1.0  0.65772  0.89272  0.50655  1.0000 -0.1777147375
C   C81       1.0  0.91077  0.59037  0.93729  1.0000 -0.1897881082
C   C82       1.0  0.59037  0.91077  0.56271  1.0000 -0.1897881082
C   C83       1.0  0.08923  0.40963  0.06271  1.0000 -0.1897881082
C   C84       1.0  0.40963  0.08923  0.43729  1.0000 -0.1897881082
N   N1        1.0  0.75283  0.14923  0.97876  1.0000 -0.2942200186
N   N2        1.0  0.14923  0.75283  0.52124  1.0000 -0.2942200186
N   N3        1.0  0.24717  0.85077  0.02124  1.0000 -0.2942200186
N   N4        1.0  0.85077  0.24717  0.47876  1.0000 -0.2942200186
N   N5        1.0  0.53652  0.23592  0.94208  1.0000 0.0314202016
N   N6        1.0  0.23592  0.53652  0.55792  1.0000 0.0314202016
N   N7        1.0  0.46348  0.76408  0.05792  1.0000 0.0314202016
N   N8        1.0  0.76408  0.46348  0.44208  1.0000 0.0314202016
N   N9        1.0  0.05287  0.87087  0.92119  1.0000 -0.2697814437
N   N10       1.0  0.87087  0.05287  0.57881  1.0000 -0.2697814437
N   N11       1.0  0.94713  0.12913  0.07881  1.0000 -0.2697814437
N   N12       1.0  0.12913  0.94713  0.42119  1.0000 -0.2697814437
N   N13       1.0  0.11034  0.78834  0.82220  1.0000 0.0314202016
N   N14       1.0  0.78834  0.11034  0.67780  1.0000 0.0314202016
N   N15       1.0  0.88966  0.21166  0.17780  1.0000 0.0314202016
N   N16       1.0  0.21166  0.88966  0.32220  1.0000 0.0314202016
N   N17       1.0  0.95233  0.16633  0.92991  1.0000 -0.2841527941
N   N18       1.0  0.16633  0.95233  0.57009  1.0000 -0.2841527941
N   N19       1.0  0.04767  0.83367  0.07009  1.0000 -0.2841527941
N   N20       1.0  0.83367  0.04767  0.42991  1.0000 -0.2841527941
N   N21       1.0  0.96860  0.30980  0.89260  1.0000 0.0355357309
N   N22       1.0  0.30980  0.96860  0.60740  1.0000 0.0355357309
N   N23       1.0  0.03140  0.69020  0.10740  1.0000 0.0355357309
N   N24       1.0  0.69020  0.03140  0.39260  1.0000 0.0355357309
