# DDEC6 charges by PACMAN v1.1 (https://github.com/mtap-research/PACMAN-charge/)
data_2002[Cu][kdd]3[FSR]1
_chemical_formula_sum              "Cu2 H16 C24 N4 O8"
_cell_length_a       12.7819
_cell_length_b       12.7819
_cell_length_c       10.9881
_cell_angle_alpha    88.4403
_cell_angle_beta     91.5597
_cell_angle_gamma    22.3658

_symmetry_space_group_name_H-M    "P 1"
_symmetry_Int_Tables_number       1

loop_
  _symmetry_equiv_pos_as_xyz
  'x, y, z'

loop_
  _atom_site_type_symbol
  _atom_site_label
  _atom_site_symmetry_multiplicity
  _atom_site_fract_x
  _atom_site_fract_y
  _atom_site_fract_z
  _atom_site_occupancy
  _atom_site_charge
Cu  Cu1       1.0  0.82994  0.94352  0.21627  1.0000 0.780942344
Cu  Cu2       1.0  0.05648  0.17006  0.71627  1.0000 0.780942344
H   H1        1.0  0.19840  0.13860  0.47930  1.0000 0.1108409845
H   H2        1.0  0.86140  0.80160  0.97930  1.0000 0.1108409845
H   H3        1.0  0.13320  0.35560  0.37150  1.0000 0.1339742474
H   H4        1.0  0.64440  0.86680  0.87150  1.0000 0.1339742474
H   H5        1.0  0.64140  0.90320  0.61630  1.0000 0.1375361242
H   H6        1.0  0.09680  0.35860  0.11630  1.0000 0.1375361242
H   H7        1.0  0.71750  0.67210  0.71750  1.0000 0.1108409845
H   H8        1.0  0.32790  0.28250  0.21750  1.0000 0.1108409845
H   H9        1.0  0.51530  0.68050  0.90740  1.0000 0.1216437825
H   H10       1.0  0.31950  0.48470  0.40740  1.0000 0.1216437825
H   H11       1.0  0.65270  0.41570  0.04210  1.0000 0.1375361242
H   H12       1.0  0.58430  0.34730  0.54210  1.0000 0.1375361242
H   H13       1.0  0.93190  0.93810  0.92190  1.0000 0.1339742474
H   H14       1.0  0.06190  0.06810  0.42190  1.0000 0.1339742474
H   H15       1.0  0.82520  0.17480  0.78390  1.0000 0.1108409845
H   H16       1.0  0.82520  0.17480  0.28390  1.0000 0.1108409845
C   C1        1.0  0.08504  0.29464  0.50710  1.0000 0.0755682819
C   C2        1.0  0.70536  0.91496  0.00710  1.0000 0.0755682819
C   C3        1.0  0.04719  0.42319  0.44210  1.0000 -0.1577329852
C   C4        1.0  0.57681  0.95281  0.94210  1.0000 -0.1577329852
C   C5        1.0  0.88004  0.65444  0.48220  1.0000 0.0455676996
C   C6        1.0  0.34556  0.11996  0.98220  1.0000 0.0455676996
C   C7        1.0  0.75593  0.74733  0.58690  1.0000 -0.1577329852
C   C8        1.0  0.25267  0.24407  0.08690  1.0000 -0.1577329852
C   C9        1.0  0.80301  0.60761  0.64720  1.0000 0.0874945604
C   C10       1.0  0.39239  0.19699  0.14720  1.0000 0.0874945604
C   C11       1.0  0.82525  0.80905  0.41210  1.0000 0.5345855885
C   C12       1.0  0.19095  0.17475  0.91210  1.0000 0.5345855885
C   C13       1.0  0.39761  0.73121  0.90980  1.0000 0.0984129243
C   C14       1.0  0.26879  0.60239  0.40980  1.0000 0.0984129243
C   C15       1.0  0.48043  0.57263  0.99150  1.0000 -0.1547083027
C   C16       1.0  0.42737  0.51957  0.49150  1.0000 -0.1547083027
C   C17       1.0  0.30653  0.64753  0.99810  1.0000 0.0269526558
C   C18       1.0  0.35247  0.69347  0.49810  1.0000 0.0269526558
C   C19       1.0  0.05608  0.87948  0.91960  1.0000 -0.1547083027
C   C20       1.0  0.12052  0.94392  0.41960  1.0000 -0.1547083027
C   C21       1.0  0.99180  0.02260  0.83850  1.0000 0.0755682819
C   C22       1.0  0.97740  0.00820  0.33850  1.0000 0.0755682819
C   C23       1.0  0.38611  0.48171  0.08440  1.0000 0.5603811078
C   C24       1.0  0.51829  0.61389  0.58440  1.0000 0.5603811078
N   N1        1.0  0.96751  0.38191  0.60850  1.0000 -0.2149483926
N   N2        1.0  0.61809  0.03249  0.10850  1.0000 -0.2161122329
N   N3        1.0  0.15675  0.95415  0.83390  1.0000 -0.2285536743
N   N4        1.0  0.04585  0.84325  0.33390  1.0000 -0.2285536743
O   O1        1.0  0.95728  0.70148  0.32150  1.0000 -0.531869895
O   O2        1.0  0.29852  0.04272  0.82150  1.0000 -0.531869895
O   O3        1.0  0.65300  0.02980  0.44490  1.0000 -0.5590609379
O   O4        1.0  0.97020  0.34700  0.94490  1.0000 -0.5590609379
O   O5        1.0  0.64551  0.23311  0.12156  1.0000 -0.5529833502
O   O6        1.0  0.76689  0.35449  0.62156  1.0000 -0.5529833502
O   O7        1.0  0.20247  0.59147  0.11228  1.0000 -0.5697801776
O   O8        1.0  0.40853  0.79753  0.61228  1.0000 -0.5697801776
