# DDEC6 charges by PACMAN v1.1 (https://github.com/mtap-research/PACMAN-charge/)
data_2002[Y][dia]3[FSR]1
_chemical_formula_sum              "Y2 C24 Cl8 O16"
_cell_length_a       15.1063
_cell_length_b       15.1063
_cell_length_c       15.1063
_cell_angle_alpha    134.934
_cell_angle_beta     134.934
_cell_angle_gamma    65.6331

_symmetry_space_group_name_H-M    "P 1"
_symmetry_Int_Tables_number       1

loop_
  _symmetry_equiv_pos_as_xyz
  'x, y, z'

loop_
  _atom_site_type_symbol
  _atom_site_label
  _atom_site_symmetry_multiplicity
  _atom_site_fract_x
  _atom_site_fract_y
  _atom_site_fract_z
  _atom_site_occupancy
  _atom_site_charge
Y   Y1        1.0  0.50000  0.50000  0.00000  1.0000 1.6696045895
Y   Y2        1.0  0.25000  0.75000  0.50000  1.0000 1.6696045895
C   C1        1.0  0.30000  0.09620  0.59820  1.0000 -0.1374414849
C   C2        1.0  0.84620  0.74800  0.29620  1.0000 -0.1374414849
C   C3        1.0  0.45180  0.55000  0.70380  1.0000 -0.1374414849
C   C4        1.0  0.25200  0.54820  0.09820  1.0000 -0.1374414849
C   C5        1.0  0.29820  0.70000  0.79620  1.0000 -0.1374414849
C   C6        1.0  0.45000  0.15380  0.90180  1.0000 -0.1374414849
C   C7        1.0  0.90380  0.50200  0.20380  1.0000 -0.1374414849
C   C8        1.0  0.49800  0.70180  0.40180  1.0000 -0.1374414849
C   C9        1.0  0.37370  0.21050  0.73720  1.0000 0.2440587759
C   C10       1.0  0.96050  0.72330  0.33680  1.0000 0.2440587759
C   C11       1.0  0.38650  0.62370  0.66320  1.0000 0.2440587759
C   C12       1.0  0.27670  0.61350  0.23720  1.0000 0.2440587759
C   C13       1.0  0.36350  0.62630  0.83680  1.0000 0.2440587759
C   C14       1.0  0.37630  0.03950  0.76280  1.0000 0.2440587759
C   C15       1.0  0.78950  0.52670  0.16320  1.0000 0.2440587759
C   C16       1.0  0.47330  0.63650  0.26280  1.0000 0.2440587759
C   C17       1.0  0.29470  0.00490  0.59680  1.0000 0.2864310716
C   C18       1.0  0.75490  0.65810  0.21020  1.0000 0.2864310716
C   C19       1.0  0.44790  0.54470  0.78980  1.0000 0.2864310716
C   C20       1.0  0.34190  0.55210  0.09680  1.0000 0.2864310716
C   C21       1.0  0.30210  0.70530  0.71020  1.0000 0.2864310716
C   C22       1.0  0.45530  0.24510  0.90320  1.0000 0.2864310716
C   C23       1.0  0.99510  0.59190  0.28980  1.0000 0.2864310716
C   C24       1.0  0.40810  0.69790  0.40320  1.0000 0.2864310716
Cl  Cl1       1.0  0.21056  0.05676  0.41240  1.0000 0.0710406064
Cl  Cl2       1.0  0.80676  0.89436  0.34620  1.0000 0.0710406064
Cl  Cl3       1.0  0.54816  0.46056  0.65380  1.0000 0.0710406064
Cl  Cl4       1.0  0.10564  0.45184  0.91240  1.0000 0.0710406064
Cl  Cl5       1.0  0.20184  0.78944  0.84620  1.0000 0.0710406064
Cl  Cl6       1.0  0.53944  0.19324  0.08760  1.0000 0.0710406064
Cl  Cl7       1.0  0.94324  0.35564  0.15380  1.0000 0.0710406064
Cl  Cl8       1.0  0.64436  0.79816  0.58760  1.0000 0.0710406064
O   O1        1.0  0.38800  0.29940  0.75220  1.0000 -0.4626913356
O   O2        1.0  0.04940  0.79720  0.41140  1.0000 -0.4626913356
O   O3        1.0  0.38580  0.63800  0.58860  1.0000 -0.4626913356
O   O4        1.0  0.20280  0.61420  0.25220  1.0000 -0.4626913356
O   O5        1.0  0.36420  0.61200  0.91140  1.0000 -0.4626913356
O   O6        1.0  0.36200  0.95060  0.74780  1.0000 -0.4626913356
O   O7        1.0  0.70060  0.45280  0.08860  1.0000 -0.4626913356
O   O8        1.0  0.54720  0.63580  0.24780  1.0000 -0.4626913356
O   O9        1.0  0.22620  0.89800  0.47240  1.0000 -0.4187987808
O   O10       1.0  0.64800  0.67560  0.17180  1.0000 -0.4187987808
O   O11       1.0  0.50380  0.47620  0.82820  1.0000 -0.4187987808
O   O12       1.0  0.32440  0.49620  0.97240  1.0000 -0.4187987808
O   O13       1.0  0.24620  0.77380  0.67180  1.0000 -0.4187987808
O   O14       1.0  0.52380  0.35200  0.02760  1.0000 -0.4187987808
O   O15       1.0  0.10200  0.57440  0.32820  1.0000 -0.4187987808
O   O16       1.0  0.42560  0.75380  0.52760  1.0000 -0.4187987808
