# DDEC6 charges by PACMAN v1.1 (https://github.com/mtap-research/PACMAN-charge/)
data_2002[Lu][ins]3[FSR]1
_chemical_formula_sum              "Lu4 H40 C24 O32"
_cell_length_a       5.224
_cell_length_b       26.055
_cell_length_c       8.8
_cell_angle_alpha    90
_cell_angle_beta     97.38
_cell_angle_gamma    90

_symmetry_space_group_name_H-M    "P 1"
_symmetry_Int_Tables_number       1

loop_
  _symmetry_equiv_pos_as_xyz
  'x, y, z'

loop_
  _atom_site_type_symbol
  _atom_site_label
  _atom_site_symmetry_multiplicity
  _atom_site_fract_x
  _atom_site_fract_y
  _atom_site_fract_z
  _atom_site_occupancy
  _atom_site_charge
Lu  Lu1       1.0  0.59652  0.65917  0.47856  1.0000 1.5569331731
Lu  Lu2       1.0  0.40348  0.15917  0.02144  1.0000 1.5569331731
Lu  Lu3       1.0  0.40348  0.34083  0.52144  1.0000 1.5569331731
Lu  Lu4       1.0  0.59652  0.84083  0.97856  1.0000 1.5569331731
H   H1        1.0  0.99500  0.64420  0.88000  1.0000 0.1391842115
H   H2        1.0  0.00500  0.14420  0.62000  1.0000 0.1391842115
H   H3        1.0  0.00500  0.35580  0.12000  1.0000 0.1391842115
H   H4        1.0  0.99500  0.85580  0.38000  1.0000 0.1391842115
H   H5        1.0  0.94400  0.70160  0.85100  1.0000 0.1391842115
H   H6        1.0  0.05600  0.20160  0.64900  1.0000 0.1391842115
H   H7        1.0  0.05600  0.29840  0.14900  1.0000 0.1391842115
H   H8        1.0  0.94400  0.79840  0.35100  1.0000 0.1391842115
H   H9        1.0  0.41400  0.66470  0.98700  1.0000 0.1327682316
H   H10       1.0  0.58600  0.16470  0.51300  1.0000 0.1327682316
H   H11       1.0  0.58600  0.33530  0.01300  1.0000 0.1327682316
H   H12       1.0  0.41400  0.83530  0.48700  1.0000 0.1327682316
H   H13       1.0  0.23100  0.69430  0.07900  1.0000 0.1327682316
H   H14       1.0  0.76900  0.19430  0.42100  1.0000 0.1327682316
H   H15       1.0  0.76900  0.30570  0.92100  1.0000 0.1327682316
H   H16       1.0  0.23100  0.80570  0.57900  1.0000 0.1327682316
H   H17       1.0  0.77620  0.48300  0.55000  1.0000 0.1391842115
H   H18       1.0  0.22380  0.98300  0.95000  1.0000 0.1391842115
H   H19       1.0  0.22380  0.51700  0.45000  1.0000 0.1391842115
H   H20       1.0  0.77620  0.01700  0.05000  1.0000 0.1391842115
H   H21       1.0  0.99950  0.51110  0.65260  1.0000 0.1391842115
H   H22       1.0  0.00050  0.01110  0.84740  1.0000 0.1391842115
H   H23       1.0  0.00050  0.48890  0.34740  1.0000 0.1391842115
H   H24       1.0  0.99950  0.98890  0.15260  1.0000 0.1391842115
H   H25       1.0  0.30400  0.59780  0.25300  1.0000 0.2965480323
H   H26       1.0  0.69600  0.09780  0.24700  1.0000 0.2965480323
H   H27       1.0  0.69600  0.40220  0.74700  1.0000 0.2965480323
H   H28       1.0  0.30400  0.90220  0.75300  1.0000 0.2965480323
H   H29       1.0  0.15500  0.61230  0.34000  1.0000 0.3117653365
H   H30       1.0  0.84500  0.11230  0.16000  1.0000 0.3117653365
H   H31       1.0  0.84500  0.38770  0.66000  1.0000 0.3117653365
H   H32       1.0  0.15500  0.88770  0.84000  1.0000 0.3117653365
H   H33       1.0  0.93500  0.70150  0.31000  1.0000 0.3117653365
H   H34       1.0  0.06500  0.20150  0.19000  1.0000 0.3117653365
H   H35       1.0  0.06500  0.29850  0.69000  1.0000 0.3117653365
H   H36       1.0  0.93500  0.79850  0.81000  1.0000 0.3117653365
H   H37       1.0  0.74500  0.71040  0.21300  1.0000 0.3117653365
H   H38       1.0  0.25500  0.21040  0.28700  1.0000 0.3117653365
H   H39       1.0  0.25500  0.28960  0.78700  1.0000 0.3117653365
H   H40       1.0  0.74500  0.78960  0.71300  1.0000 0.3117653365
C   C1        1.0  0.16500  0.66850  0.70460  1.0000 0.6622454311
C   C2        1.0  0.83500  0.16850  0.79540  1.0000 0.6622454311
C   C3        1.0  0.83500  0.33150  0.29540  1.0000 0.6622454311
C   C4        1.0  0.16500  0.83150  0.20460  1.0000 0.6622454311
C   C5        1.0  0.07640  0.67597  0.85830  1.0000 -0.2881173705
C   C6        1.0  0.92360  0.17597  0.64170  1.0000 -0.2881173705
C   C7        1.0  0.92360  0.32403  0.14170  1.0000 -0.2881173705
C   C8        1.0  0.07640  0.82403  0.35830  1.0000 -0.2881173705
C   C9        1.0  0.29000  0.68985  0.98410  1.0000 -0.3013135557
C   C10       1.0  0.71000  0.18985  0.51590  1.0000 -0.3013135557
C   C11       1.0  0.71000  0.31015  0.01590  1.0000 -0.3013135557
C   C12       1.0  0.29000  0.81015  0.48410  1.0000 -0.3013135557
C   C13       1.0  0.41320  0.74140  0.96700  1.0000 0.6110912647
C   C14       1.0  0.58680  0.24140  0.53300  1.0000 0.6110912647
C   C15       1.0  0.58680  0.25860  0.03300  1.0000 0.6110912647
C   C16       1.0  0.41320  0.75860  0.46700  1.0000 0.6110912647
C   C17       1.0  0.78030  0.55961  0.51050  1.0000 0.6110912647
C   C18       1.0  0.21970  0.05961  0.98950  1.0000 0.6110912647
C   C19       1.0  0.21970  0.44039  0.48950  1.0000 0.6110912647
C   C20       1.0  0.78030  0.94039  0.01050  1.0000 0.6110912647
C   C21       1.0  0.90970  0.50886  0.54920  1.0000 -0.277732714
C   C22       1.0  0.09030  0.00886  0.95080  1.0000 -0.277732714
C   C23       1.0  0.09030  0.49114  0.45080  1.0000 -0.277732714
C   C24       1.0  0.90970  0.99114  0.04920  1.0000 -0.277732714
O   O1        1.0  0.40000  0.66646  0.69240  1.0000 -0.556238762
O   O2        1.0  0.60000  0.16646  0.80760  1.0000 -0.556238762
O   O3        1.0  0.60000  0.33354  0.30760  1.0000 -0.556238762
O   O4        1.0  0.40000  0.83354  0.19240  1.0000 -0.556238762
O   O5        1.0  0.99590  0.66387  0.58970  1.0000 -0.6010751341
O   O6        1.0  0.00410  0.16387  0.91030  1.0000 -0.6010751341
O   O7        1.0  0.00410  0.33613  0.41030  1.0000 -0.6010751341
O   O8        1.0  0.99590  0.83613  0.08970  1.0000 -0.6010751341
O   O9        1.0  0.62690  0.75162  0.04610  1.0000 -0.551482967
O   O10       1.0  0.37310  0.25162  0.45390  1.0000 -0.551482967
O   O11       1.0  0.37310  0.24838  0.95390  1.0000 -0.551482967
O   O12       1.0  0.62690  0.74838  0.54610  1.0000 -0.551482967
O   O13       1.0  0.30230  0.77586  0.88020  1.0000 -0.556238762
O   O14       1.0  0.69770  0.27586  0.61980  1.0000 -0.556238762
O   O15       1.0  0.69770  0.22414  0.11980  1.0000 -0.556238762
O   O16       1.0  0.30230  0.72414  0.38020  1.0000 -0.556238762
O   O17       1.0  0.81130  0.58401  0.39010  1.0000 -0.5774066885
O   O18       1.0  0.18870  0.08401  0.10990  1.0000 -0.5774066885
O   O19       1.0  0.18870  0.41599  0.60990  1.0000 -0.5774066885
O   O20       1.0  0.81130  0.91599  0.89010  1.0000 -0.5774066885
O   O21       1.0  0.64220  0.57821  0.60370  1.0000 -0.5688485269
O   O22       1.0  0.35780  0.07821  0.89630  1.0000 -0.5688485269
O   O23       1.0  0.35780  0.42179  0.39630  1.0000 -0.5688485269
O   O24       1.0  0.64220  0.92179  0.10370  1.0000 -0.5688485269
O   O25       1.0  0.28660  0.61607  0.32060  1.0000 -0.5774066885
O   O26       1.0  0.71340  0.11607  0.17940  1.0000 -0.5774066885
O   O27       1.0  0.71340  0.38393  0.67940  1.0000 -0.5774066885
O   O28       1.0  0.28660  0.88393  0.82060  1.0000 -0.5774066885
O   O29       1.0  0.80130  0.69077  0.28270  1.0000 -0.6396173154
O   O30       1.0  0.19870  0.19077  0.21730  1.0000 -0.6396173154
O   O31       1.0  0.19870  0.30923  0.71730  1.0000 -0.6396173154
O   O32       1.0  0.80130  0.80923  0.78270  1.0000 -0.6396173154
