# DDEC6 charges by PACMAN v1.1 (https://github.com/mtap-research/PACMAN-charge/)
data_2002[Cd][dia]3[FSR]1
_chemical_formula_sum              "Cd8 H80 C96 N32 O32"
_cell_length_a       17.4682
_cell_length_b       17.4682
_cell_length_c       17.4682
_cell_angle_alpha    115.785
_cell_angle_beta     115.785
_cell_angle_gamma    97.4701

_symmetry_space_group_name_H-M    "P 1"
_symmetry_Int_Tables_number       1

loop_
  _symmetry_equiv_pos_as_xyz
  'x, y, z'

loop_
  _atom_site_type_symbol
  _atom_site_label
  _atom_site_symmetry_multiplicity
  _atom_site_fract_x
  _atom_site_fract_y
  _atom_site_fract_z
  _atom_site_occupancy
  _atom_site_charge
Cd  Cd1       1.0  0.16679  0.03082  0.70521  1.0000 0.8187428218
Cd  Cd2       1.0  0.42439  0.78842  0.20521  1.0000 0.8187428218
Cd  Cd3       1.0  0.53842  0.83321  0.86403  1.0000 0.8187428218
Cd  Cd4       1.0  0.78082  0.57561  0.36403  1.0000 0.8187428218
Cd  Cd5       1.0  0.96918  0.67439  0.13597  1.0000 0.8187428218
Cd  Cd6       1.0  0.21158  0.41679  0.63597  1.0000 0.8187428218
Cd  Cd7       1.0  0.58321  0.21918  0.79479  1.0000 0.8187428218
Cd  Cd8       1.0  0.32561  0.46158  0.29479  1.0000 0.8187428218
H   H1        1.0  0.19890  0.23990  0.89900  1.0000 0.1319191396
H   H2        1.0  0.40910  0.95010  0.39900  1.0000 0.1319191396
H   H3        1.0  0.26280  0.19320  0.70300  1.0000 0.1194540177
H   H4        1.0  0.25980  0.69020  0.20300  1.0000 0.1194540177
H   H5        1.0  0.26180  0.43280  0.00520  1.0000 0.1108865262
H   H6        1.0  0.32240  0.99340  0.50520  1.0000 0.1108865262
H   H7        1.0  0.35960  0.49850  0.94430  1.0000 0.1319191396
H   H8        1.0  0.19580  0.83470  0.44430  1.0000 0.1319191396
H   H9        1.0  0.18450  0.93490  0.84400  1.0000 0.1388347102
H   H10       1.0  0.65910  0.90950  0.34400  1.0000 0.1388347102
H   H11       1.0  0.38890  0.07910  0.86460  1.0000 0.1108865262
H   H12       1.0  0.53550  0.72570  0.36460  1.0000 0.1108865262
H   H13       1.0  0.27360  0.87120  0.95840  1.0000 0.1194540177
H   H14       1.0  0.83720  0.93480  0.45840  1.0000 0.1194540177
H   H15       1.0  0.46180  0.95240  0.06400  1.0000 0.1388347102
H   H16       1.0  0.86160  0.85220  0.56400  1.0000 0.1388347102
H   H17       1.0  0.31270  0.35620  0.81010  1.0000 0.3005983595
H   H18       1.0  0.20390  0.74740  0.31010  1.0000 0.3005983595
H   H19       1.0  0.44790  0.01810  0.96500  1.0000 0.3005983595
H   H20       1.0  0.69690  0.76710  0.46500  1.0000 0.3005983595
H   H21       1.0  0.70010  0.80110  0.04100  1.0000 0.1319191396
H   H22       1.0  0.98990  0.59090  0.54100  1.0000 0.1319191396
H   H23       1.0  0.44020  0.73720  0.93040  1.0000 0.1194540177
H   H24       1.0  0.94320  0.74020  0.43040  1.0000 0.1194540177
H   H25       1.0  0.74340  0.73820  0.17100  1.0000 0.1108865262
H   H26       1.0  0.18280  0.67760  0.67100  1.0000 0.1108865262
H   H27       1.0  0.58470  0.64040  0.13890  1.0000 0.1319191396
H   H28       1.0  0.24850  0.80420  0.63890  1.0000 0.1319191396
H   H29       1.0  0.65950  0.81550  0.75040  1.0000 0.1388347102
H   H30       1.0  0.68490  0.34090  0.25040  1.0000 0.1388347102
H   H31       1.0  0.47570  0.61110  0.69020  1.0000 0.1108865262
H   H32       1.0  0.82910  0.46450  0.19020  1.0000 0.1108865262
H   H33       1.0  0.68480  0.72640  0.59760  1.0000 0.1194540177
H   H34       1.0  0.62120  0.16280  0.09760  1.0000 0.1194540177
H   H35       1.0  0.60220  0.53820  0.49060  1.0000 0.1388347102
H   H36       1.0  0.70240  0.13840  0.99060  1.0000 0.1388347102
H   H37       1.0  0.49740  0.68730  0.04350  1.0000 0.3005983595
H   H38       1.0  0.10620  0.79610  0.54350  1.0000 0.3005983595
H   H39       1.0  0.51710  0.55210  0.57020  1.0000 0.3005983595
H   H40       1.0  0.76810  0.30310  0.07020  1.0000 0.3005983595
H   H41       1.0  0.76010  0.65910  0.95900  1.0000 0.1319191396
H   H42       1.0  0.04990  0.44890  0.45900  1.0000 0.1319191396
H   H43       1.0  0.80680  0.50980  0.06960  1.0000 0.1194540177
H   H44       1.0  0.30980  0.51280  0.56960  1.0000 0.1194540177
H   H45       1.0  0.56720  0.57240  0.82900  1.0000 0.1108865262
H   H46       1.0  0.00660  0.51180  0.32900  1.0000 0.1108865262
H   H47       1.0  0.50150  0.44580  0.86110  1.0000 0.1319191396
H   H48       1.0  0.16530  0.60960  0.36110  1.0000 0.1319191396
H   H49       1.0  0.06510  0.90910  0.24960  1.0000 0.1388347102
H   H50       1.0  0.09050  0.43450  0.74960  1.0000 0.1388347102
H   H51       1.0  0.92090  0.78550  0.30980  1.0000 0.1108865262
H   H52       1.0  0.27430  0.63890  0.80980  1.0000 0.1108865262
H   H53       1.0  0.12880  0.08720  0.40240  1.0000 0.1194540177
H   H54       1.0  0.06520  0.52360  0.90240  1.0000 0.1194540177
H   H55       1.0  0.04760  0.11160  0.50940  1.0000 0.1388347102
H   H56       1.0  0.14780  0.71180  0.00940  1.0000 0.1388347102
H   H57       1.0  0.64380  0.45390  0.95650  1.0000 0.3005983595
H   H58       1.0  0.25260  0.56270  0.45650  1.0000 0.3005983595
H   H59       1.0  0.98190  0.94690  0.42980  1.0000 0.3005983595
H   H60       1.0  0.23290  0.69790  0.92980  1.0000 0.3005983595
H   H61       1.0  0.55110  0.01010  0.60100  1.0000 0.1319191396
H   H62       1.0  0.34090  0.29990  0.10100  1.0000 0.1319191396
H   H63       1.0  0.48720  0.05680  0.79700  1.0000 0.1194540177
H   H64       1.0  0.49020  0.55980  0.29700  1.0000 0.1194540177
H   H65       1.0  0.48820  0.81720  0.49480  1.0000 0.1108865262
H   H66       1.0  0.42760  0.25660  0.99480  1.0000 0.1108865262
H   H67       1.0  0.39040  0.75150  0.55570  1.0000 0.1319191396
H   H68       1.0  0.55420  0.41530  0.05570  1.0000 0.1319191396
H   H69       1.0  0.56550  0.31510  0.65600  1.0000 0.1388347102
H   H70       1.0  0.09090  0.34050  0.15600  1.0000 0.1388347102
H   H71       1.0  0.36110  0.17090  0.63540  1.0000 0.1108865262
H   H72       1.0  0.21450  0.52430  0.13540  1.0000 0.1108865262
H   H73       1.0  0.47640  0.37880  0.54160  1.0000 0.1194540177
H   H74       1.0  0.91280  0.31520  0.04160  1.0000 0.1194540177
H   H75       1.0  0.28820  0.29760  0.43600  1.0000 0.1388347102
H   H76       1.0  0.88840  0.39780  0.93600  1.0000 0.1388347102
H   H77       1.0  0.43730  0.89380  0.68990  1.0000 0.3005983595
H   H78       1.0  0.54610  0.50260  0.18990  1.0000 0.3005983595
H   H79       1.0  0.30210  0.23190  0.53500  1.0000 0.3005983595
H   H80       1.0  0.05310  0.48290  0.03500  1.0000 0.3005983595
C   C1        1.0  0.26060  0.33300  0.88280  1.0000 0.1489987363
C   C2        1.0  0.29980  0.87220  0.38280  1.0000 0.1489987363
C   C3        1.0  0.22040  0.24980  0.86260  1.0000 -0.1034780351
C   C4        1.0  0.36280  0.89220  0.36260  1.0000 -0.1034780351
C   C5        1.0  0.25500  0.22350  0.75630  1.0000 0.1726776276
C   C6        1.0  0.28280  0.75130  0.25630  1.0000 0.1726776276
C   C7        1.0  0.28480  0.42720  0.96480  1.0000 -0.1159975204
C   C8        1.0  0.28760  0.93000  0.46480  1.0000 -0.1159975204
C   C9        1.0  0.33700  0.50390  0.98490  1.0000 -0.2612144399
C   C10       1.0  0.23100  0.89790  0.48490  1.0000 -0.2612144399
C   C11       1.0  0.36120  0.59690  0.06730  1.0000 0.5807588649
C   C12       1.0  0.22040  0.95610  0.56730  1.0000 0.5807588649
C   C13       1.0  0.31820  0.95600  0.92260  1.0000 0.1319191396
C   C14       1.0  0.71660  0.85440  0.42260  1.0000 0.1319191396
C   C15       1.0  0.24400  0.96260  0.86200  1.0000 -0.0927147988
C   C16       1.0  0.64940  0.86800  0.36200  1.0000 -0.0927147988
C   C17       1.0  0.35450  0.04160  0.87270  1.0000 0.1489987363
C   C18       1.0  0.58110  0.76820  0.37270  1.0000 0.1489987363
C   C19       1.0  0.32830  0.91040  0.97610  1.0000 -0.1159975204
C   C20       1.0  0.81570  0.89780  0.47610  1.0000 -0.1159975204
C   C21       1.0  0.40550  0.91710  0.04700  1.0000 -0.2299196861
C   C22       1.0  0.87990  0.89150  0.54700  1.0000 -0.2299196861
C   C23       1.0  0.40540  0.87020  0.10080  1.0000 0.5980724645
C   C24       1.0  0.98060  0.94540  0.60080  1.0000 0.5980724645
C   C25       1.0  0.62220  0.73940  0.07240  1.0000 0.1489987363
C   C26       1.0  0.08300  0.70020  0.57240  1.0000 0.1489987363
C   C27       1.0  0.64220  0.77960  0.02940  1.0000 -0.1034780351
C   C28       1.0  0.99980  0.63720  0.52940  1.0000 -0.1034780351
C   C29       1.0  0.50130  0.74500  0.96850  1.0000 0.1726776276
C   C30       1.0  0.97350  0.71720  0.46850  1.0000 0.1726776276
C   C31       1.0  0.68000  0.71520  0.14240  1.0000 -0.1159975204
C   C32       1.0  0.17720  0.71240  0.64240  1.0000 -0.1159975204
C   C33       1.0  0.64790  0.66300  0.16690  1.0000 -0.2612144399
C   C34       1.0  0.25390  0.76900  0.66690  1.0000 -0.2612144399
C   C35       1.0  0.70610  0.63880  0.23570  1.0000 0.5807588649
C   C36       1.0  0.34690  0.77960  0.73570  1.0000 0.5807588649
C   C37       1.0  0.60440  0.68180  0.63780  1.0000 0.1319191396
C   C38       1.0  0.70600  0.28340  0.13780  1.0000 0.1319191396
C   C39       1.0  0.61800  0.75600  0.71860  1.0000 -0.0927147988
C   C40       1.0  0.71260  0.35060  0.21860  1.0000 -0.0927147988
C   C41       1.0  0.51820  0.64550  0.68710  1.0000 0.1489987363
C   C42       1.0  0.79160  0.41890  0.18710  1.0000 0.1489987363
C   C43       1.0  0.64780  0.67170  0.58210  1.0000 -0.1159975204
C   C44       1.0  0.66040  0.18430  0.08210  1.0000 -0.1142876941
C   C45       1.0  0.64150  0.59450  0.51160  1.0000 -0.2299196861
C   C46       1.0  0.66710  0.12010  0.01160  1.0000 -0.2299196861
C   C47       1.0  0.69540  0.59460  0.46480  1.0000 0.5980724645
C   C48       1.0  0.62020  0.01940  0.96480  1.0000 0.5980724645
C   C49       1.0  0.66700  0.54980  0.92760  1.0000 0.1489987363
C   C50       1.0  0.12780  0.51060  0.42760  1.0000 0.1489987363
C   C51       1.0  0.75020  0.61280  0.97060  1.0000 -0.1034780351
C   C52       1.0  0.10780  0.47040  0.47060  1.0000 -0.1034780351
C   C53       1.0  0.77650  0.53280  0.03150  1.0000 0.1726776276
C   C54       1.0  0.24870  0.50500  0.53150  1.0000 0.1726776276
C   C55       1.0  0.57280  0.53760  0.85760  1.0000 -0.1159975204
C   C56       1.0  0.07000  0.53480  0.35760  1.0000 -0.1159975204
C   C57       1.0  0.49610  0.48100  0.83310  1.0000 -0.2612144399
C   C58       1.0  0.10210  0.58700  0.33310  1.0000 -0.2612144399
C   C59       1.0  0.40310  0.47040  0.76430  1.0000 0.5807588649
C   C60       1.0  0.04390  0.61120  0.26430  1.0000 0.5807588649
C   C61       1.0  0.04400  0.96660  0.36220  1.0000 0.1319191396
C   C62       1.0  0.14560  0.56820  0.86220  1.0000 0.1319191396
C   C63       1.0  0.03740  0.89940  0.28140  1.0000 -0.0927147988
C   C64       1.0  0.13200  0.49400  0.78140  1.0000 -0.0927147988
C   C65       1.0  0.95840  0.83110  0.31290  1.0000 0.1489987363
C   C66       1.0  0.23180  0.60450  0.81290  1.0000 0.1489987363
C   C67       1.0  0.08960  0.06570  0.41790  1.0000 -0.1159975204
C   C68       1.0  0.10220  0.57830  0.91790  1.0000 -0.1159975204
C   C69       1.0  0.08290  0.12990  0.48840  1.0000 -0.2299196861
C   C70       1.0  0.10850  0.65550  0.98840  1.0000 -0.2299196861
C   C71       1.0  0.12980  0.23060  0.53520  1.0000 0.5980724645
C   C72       1.0  0.05460  0.65540  0.03520  1.0000 0.5980724645
C   C73       1.0  0.48940  0.91700  0.61720  1.0000 0.1489987363
C   C74       1.0  0.45020  0.37780  0.11720  1.0000 0.1489987363
C   C75       1.0  0.52960  0.00020  0.63740  1.0000 -0.1034780351
C   C76       1.0  0.38720  0.35780  0.13740  1.0000 -0.1034780351
C   C77       1.0  0.49500  0.02650  0.74370  1.0000 0.1726776276
C   C78       1.0  0.46720  0.49870  0.24370  1.0000 0.1726776276
C   C79       1.0  0.46520  0.82280  0.53520  1.0000 -0.1159975204
C   C80       1.0  0.46240  0.32000  0.03520  1.0000 -0.1159975204
C   C81       1.0  0.41300  0.74610  0.51510  1.0000 -0.2612144399
C   C82       1.0  0.51900  0.35210  0.01510  1.0000 -0.2612144399
C   C83       1.0  0.38880  0.65310  0.43270  1.0000 0.5807588649
C   C84       1.0  0.52960  0.29390  0.93270  1.0000 0.5807588649
C   C85       1.0  0.43180  0.29400  0.57740  1.0000 0.1319191396
C   C86       1.0  0.03340  0.39560  0.07740  1.0000 0.1319191396
C   C87       1.0  0.50600  0.28740  0.63800  1.0000 -0.0927147988
C   C88       1.0  0.10060  0.38200  0.13800  1.0000 -0.0927147988
C   C89       1.0  0.39550  0.20840  0.62730  1.0000 0.1489987363
C   C90       1.0  0.16890  0.48180  0.12730  1.0000 0.1489987363
C   C91       1.0  0.42170  0.33960  0.52390  1.0000 -0.1159975204
C   C92       1.0  0.93430  0.35220  0.02390  1.0000 -0.1142876941
C   C93       1.0  0.34450  0.33290  0.45300  1.0000 -0.2299196861
C   C94       1.0  0.87010  0.35850  0.95300  1.0000 -0.2299196861
C   C95       1.0  0.34460  0.37980  0.39920  1.0000 0.5980724645
C   C96       1.0  0.76940  0.30460  0.89920  1.0000 0.5980724645
N   N1        1.0  0.28450  0.31610  0.81500  1.0000 -0.2379465431
N   N2        1.0  0.24890  0.78050  0.31500  1.0000 -0.2379465431
N   N3        1.0  0.21610  0.18260  0.78110  1.0000 -0.2761512782
N   N4        1.0  0.34850  0.81500  0.28110  1.0000 -0.2761512782
N   N5        1.0  0.39060  0.00850  0.93010  1.0000 -0.2299196861
N   N6        1.0  0.67160  0.78950  0.43010  1.0000 -0.2299196861
N   N7        1.0  0.26560  0.01490  0.82950  1.0000 -0.2896886814
N   N8        1.0  0.56460  0.81390  0.32950  1.0000 -0.2896886814
N   N9        1.0  0.53050  0.71550  0.03160  1.0000 -0.2379465431
N   N10       1.0  0.06610  0.75110  0.53160  1.0000 -0.2379465431
N   N11       1.0  0.56500  0.78390  0.96650  1.0000 -0.2761512782
N   N12       1.0  0.93260  0.65150  0.46650  1.0000 -0.2761512782
N   N13       1.0  0.53950  0.60940  0.61790  1.0000 -0.2299196861
N   N14       1.0  0.75850  0.32840  0.11790  1.0000 -0.2299196861
N   N15       1.0  0.56390  0.73440  0.74930  1.0000 -0.2896886814
N   N16       1.0  0.76490  0.43540  0.24930  1.0000 -0.2896886814
N   N17       1.0  0.68390  0.49890  0.96840  1.0000 -0.2379465431
N   N18       1.0  0.21950  0.53450  0.46840  1.0000 -0.2379465431
N   N19       1.0  0.81740  0.59850  0.03350  1.0000 -0.2761512782
N   N20       1.0  0.18500  0.46610  0.53350  1.0000 -0.2761512782
N   N21       1.0  0.99150  0.92160  0.38210  1.0000 -0.2299196861
N   N22       1.0  0.21050  0.64060  0.88210  1.0000 -0.2299196861
N   N23       1.0  0.98510  0.81460  0.25070  1.0000 -0.2896886814
N   N24       1.0  0.18610  0.51560  0.75070  1.0000 -0.2896886814
N   N25       1.0  0.46550  0.93390  0.68500  1.0000 -0.2379465431
N   N26       1.0  0.50110  0.46950  0.18500  1.0000 -0.2379465431
N   N27       1.0  0.53390  0.06740  0.71890  1.0000 -0.2761512782
N   N28       1.0  0.40150  0.43500  0.21890  1.0000 -0.2761512782
N   N29       1.0  0.35940  0.24150  0.56990  1.0000 -0.2299196861
N   N30       1.0  0.07840  0.46050  0.06990  1.0000 -0.2299196861
N   N31       1.0  0.48440  0.23510  0.67050  1.0000 -0.2896886814
N   N32       1.0  0.18540  0.43610  0.17050  1.0000 -0.2896886814
O   O1        1.0  0.48200  0.89400  0.17940  1.0000 -0.561209892
O   O2        1.0  0.03540  0.94740  0.67940  1.0000 -0.561209892
O   O3        1.0  0.33120  0.81280  0.07060  1.0000 -0.5903396058
O   O4        1.0  0.00780  0.98940  0.57060  1.0000 -0.5903396058
O   O5        1.0  0.41800  0.66240  0.08220  1.0000 -0.5497018333
O   O6        1.0  0.16980  0.91420  0.58220  1.0000 -0.5497018333
O   O7        1.0  0.32820  0.61170  0.11910  1.0000 -0.5497018333
O   O8        1.0  0.25740  0.04090  0.61910  1.0000 -0.5497018333
O   O9        1.0  0.69740  0.51800  0.41200  1.0000 -0.561209892
O   O10       1.0  0.64400  0.96460  0.91200  1.0000 -0.561209892
O   O11       1.0  0.73940  0.66880  0.48160  1.0000 -0.5903396058
O   O12       1.0  0.56280  0.99220  0.98160  1.0000 -0.5903396058
O   O13       1.0  0.66420  0.58200  0.24440  1.0000 -0.5497018333
O   O14       1.0  0.41240  0.83020  0.74440  1.0000 -0.5497018333
O   O15       1.0  0.79090  0.67180  0.28350  1.0000 -0.5497018333
O   O16       1.0  0.36170  0.74260  0.78350  1.0000 -0.5497018333
O   O17       1.0  0.10600  0.28540  0.58800  1.0000 -0.561209892
O   O18       1.0  0.05260  0.73200  0.08800  1.0000 -0.561209892
O   O19       1.0  0.18720  0.25780  0.51840  1.0000 -0.5903396058
O   O20       1.0  0.01060  0.58120  0.01840  1.0000 -0.5903396058
O   O21       1.0  0.33760  0.41980  0.75560  1.0000 -0.5497018333
O   O22       1.0  0.08580  0.66800  0.25560  1.0000 -0.5497018333
O   O23       1.0  0.38830  0.50740  0.71650  1.0000 -0.5497018333
O   O24       1.0  0.95910  0.57820  0.21650  1.0000 -0.5497018333
O   O25       1.0  0.26800  0.35600  0.32060  1.0000 -0.561209892
O   O26       1.0  0.71460  0.30260  0.82060  1.0000 -0.561209892
O   O27       1.0  0.41880  0.43720  0.42940  1.0000 -0.5903396058
O   O28       1.0  0.74220  0.26060  0.92940  1.0000 -0.5903396058
O   O29       1.0  0.33200  0.58760  0.41780  1.0000 -0.5497018333
O   O30       1.0  0.58020  0.33580  0.91780  1.0000 -0.5497018333
O   O31       1.0  0.42180  0.63830  0.38090  1.0000 -0.5497018333
O   O32       1.0  0.49260  0.20910  0.88090  1.0000 -0.5497018333
