# DDEC6 charges by PACMAN v1.1 (https://github.com/mtap-research/PACMAN-charge/)
data_2002[ZnAs][nan]3[FSR]1
_chemical_formula_sum              "Zn12 As12 H8 C8 O64"
_cell_length_a       15.4216
_cell_length_b       9.1973
_cell_length_c       16.0857
_cell_angle_alpha    90
_cell_angle_beta     112.033
_cell_angle_gamma    90

_symmetry_space_group_name_H-M    "P 1"
_symmetry_Int_Tables_number       1

loop_
  _symmetry_equiv_pos_as_xyz
  'x, y, z'

loop_
  _atom_site_type_symbol
  _atom_site_label
  _atom_site_symmetry_multiplicity
  _atom_site_fract_x
  _atom_site_fract_y
  _atom_site_fract_z
  _atom_site_occupancy
  _atom_site_charge
Zn  Zn1       1.0  0.02535  0.74915  0.10642  1.0000 1.0201867661
Zn  Zn2       1.0  0.52535  0.75085  0.10642  1.0000 1.0201867661
Zn  Zn3       1.0  0.97465  0.25085  0.89358  1.0000 1.0201867661
Zn  Zn4       1.0  0.47465  0.24915  0.89358  1.0000 1.0201867661
Zn  Zn5       1.0  0.98731  0.53096  0.35335  1.0000 1.102098181
Zn  Zn6       1.0  0.48731  0.96904  0.35335  1.0000 1.102098181
Zn  Zn7       1.0  0.01269  0.46904  0.64665  1.0000 1.102098181
Zn  Zn8       1.0  0.51269  0.03096  0.64665  1.0000 1.102098181
Zn  Zn9       1.0  0.37066  0.56654  0.40751  1.0000 1.107401683
Zn  Zn10      1.0  0.87066  0.93346  0.40751  1.0000 1.107401683
Zn  Zn11      1.0  0.62934  0.43346  0.59249  1.0000 1.107401683
Zn  Zn12      1.0  0.12934  0.06654  0.59249  1.0000 1.107401683
As  As1       1.0  0.15945  0.55043  0.28083  1.0000 1.6879254422
As  As2       1.0  0.65945  0.94957  0.28083  1.0000 1.6879254422
As  As3       1.0  0.84055  0.44957  0.71917  1.0000 1.6879254422
As  As4       1.0  0.34055  0.05043  0.71917  1.0000 1.6879254422
As  As5       1.0  0.88143  0.79664  0.22270  1.0000 1.7071076176
As  As6       1.0  0.38143  0.70336  0.22270  1.0000 1.7071076176
As  As7       1.0  0.11857  0.20336  0.77730  1.0000 1.7071076176
As  As8       1.0  0.61857  0.29664  0.77730  1.0000 1.7071076176
As  As9       1.0  0.95923  0.27033  0.47088  1.0000 1.6436059317
As  As10      1.0  0.45923  0.22967  0.47088  1.0000 1.6465606929
As  As11      1.0  0.04077  0.72967  0.52912  1.0000 1.6465606929
As  As12      1.0  0.54077  0.77033  0.52912  1.0000 1.6465606929
H   H1        1.0  0.25760  0.43240  0.23980  1.0000 0.4300650052
H   H2        1.0  0.75760  0.06760  0.23980  1.0000 0.4300650052
H   H3        1.0  0.74240  0.56760  0.76020  1.0000 0.4300650052
H   H4        1.0  0.24240  0.93240  0.76020  1.0000 0.4300650052
H   H5        1.0  0.73500  0.78690  0.14210  1.0000 0.4300650052
H   H6        1.0  0.23500  0.71310  0.14210  1.0000 0.4300650052
H   H7        1.0  0.26500  0.21310  0.85790  1.0000 0.4300650052
H   H8        1.0  0.76500  0.28690  0.85790  1.0000 0.4300650052
C   C1        1.0  0.96020  0.47660  0.01470  1.0000 0.5031255251
C   C2        1.0  0.46020  0.02340  0.01470  1.0000 0.5031255251
C   C3        1.0  0.03980  0.52340  0.98530  1.0000 0.5031255251
C   C4        1.0  0.53980  0.97660  0.98530  1.0000 0.5031255251
C   C5        1.0  0.94780  0.97880  0.97450  1.0000 0.5031255251
C   C6        1.0  0.44780  0.52120  0.97450  1.0000 0.5031255251
C   C7        1.0  0.05220  0.02120  0.02550  1.0000 0.5031255251
C   C8        1.0  0.55220  0.47880  0.02550  1.0000 0.5031255251
O   O1        1.0  0.06280  0.47610  0.28450  1.0000 -0.7083664247
O   O2        1.0  0.56280  0.02390  0.28450  1.0000 -0.7083664247
O   O3        1.0  0.93720  0.52390  0.71550  1.0000 -0.7083664247
O   O4        1.0  0.43720  0.97610  0.71550  1.0000 -0.7083664247
O   O5        1.0  0.14530  0.68530  0.20790  1.0000 -0.7507407152
O   O6        1.0  0.64530  0.81470  0.20790  1.0000 -0.7507407152
O   O7        1.0  0.85470  0.31470  0.79210  1.0000 -0.7507407152
O   O8        1.0  0.35470  0.18530  0.79210  1.0000 -0.7507407152
O   O9        1.0  0.23610  0.59570  0.38300  1.0000 -0.7083664247
O   O10       1.0  0.73610  0.90430  0.38300  1.0000 -0.7083664247
O   O11       1.0  0.76390  0.40430  0.61700  1.0000 -0.7083664247
O   O12       1.0  0.26390  0.09570  0.61700  1.0000 -0.7083664247
O   O13       1.0  0.20860  0.40600  0.24390  1.0000 -0.5392331639
O   O14       1.0  0.70860  0.09400  0.24390  1.0000 -0.5392331639
O   O15       1.0  0.79140  0.59400  0.75610  1.0000 -0.5392331639
O   O16       1.0  0.29140  0.90600  0.75610  1.0000 -0.5392331639
O   O17       1.0  0.88050  0.63800  0.27210  1.0000 -0.7355550685
O   O18       1.0  0.38050  0.86200  0.27210  1.0000 -0.7355550685
O   O19       1.0  0.11950  0.36200  0.72790  1.0000 -0.7355550685
O   O20       1.0  0.61950  0.13800  0.72790  1.0000 -0.7355550685
O   O21       1.0  0.96920  0.83110  0.19070  1.0000 -0.7151149669
O   O22       1.0  0.46920  0.66890  0.19070  1.0000 -0.7151149669
O   O23       1.0  0.03080  0.16890  0.80930  1.0000 -0.7151149669
O   O24       1.0  0.53080  0.33110  0.80930  1.0000 -0.7151149669
O   O25       1.0  0.87760  0.94040  0.28790  1.0000 -0.7893446245
O   O26       1.0  0.37760  0.55960  0.28790  1.0000 -0.7893446245
O   O27       1.0  0.12240  0.05960  0.71210  1.0000 -0.7893446245
O   O28       1.0  0.62240  0.44040  0.71210  1.0000 -0.7893446245
O   O29       1.0  0.78000  0.80370  0.12830  1.0000 -0.5024094739
O   O30       1.0  0.28000  0.69630  0.12830  1.0000 -0.5024094739
O   O31       1.0  0.22000  0.19630  0.87170  1.0000 -0.5024094739
O   O32       1.0  0.72000  0.30370  0.87170  1.0000 -0.5024094739
O   O33       1.0  0.89480  0.12180  0.46520  1.0000 -0.7507407152
O   O34       1.0  0.39480  0.37820  0.46520  1.0000 -0.7507407152
O   O35       1.0  0.10520  0.87820  0.53480  1.0000 -0.7507407152
O   O36       1.0  0.60520  0.62180  0.53480  1.0000 -0.7507407152
O   O37       1.0  0.93840  0.33730  0.36740  1.0000 -0.733957664
O   O38       1.0  0.43840  0.16270  0.36740  1.0000 -0.733957664
O   O39       1.0  0.06160  0.66270  0.63260  1.0000 -0.733957664
O   O40       1.0  0.56160  0.83730  0.63260  1.0000 -0.733957664
O   O41       1.0  0.07430  0.23230  0.51810  1.0000 -0.7650553742
O   O42       1.0  0.57430  0.26770  0.51810  1.0000 -0.7650553742
O   O43       1.0  0.92570  0.76770  0.48190  1.0000 -0.7650553742
O   O44       1.0  0.42570  0.73230  0.48190  1.0000 -0.7650553742
O   O45       1.0  0.92970  0.39220  0.53330  1.0000 -0.7615686813
O   O46       1.0  0.42970  0.10780  0.53330  1.0000 -0.7615686813
O   O47       1.0  0.07030  0.60780  0.46670  1.0000 -0.7615686813
O   O48       1.0  0.57030  0.89220  0.46670  1.0000 -0.7615686813
O   O49       1.0  0.94180  0.55970  0.06870  1.0000 -0.4321228423
O   O50       1.0  0.44180  0.94030  0.06870  1.0000 -0.4321228423
O   O51       1.0  0.05820  0.44030  0.93130  1.0000 -0.4321228423
O   O52       1.0  0.55820  0.05970  0.93130  1.0000 -0.4321228423
O   O53       1.0  0.92030  0.86350  0.99780  1.0000 -0.4200473399
O   O54       1.0  0.42030  0.63650  0.99780  1.0000 -0.4200473399
O   O55       1.0  0.07970  0.13650  0.00220  1.0000 -0.4200473399
O   O56       1.0  0.57970  0.36350  0.00220  1.0000 -0.4200473399
O   O57       1.0  0.89940  0.06530  0.91320  1.0000 -0.404251934
O   O58       1.0  0.39940  0.43470  0.91320  1.0000 -0.404251934
O   O59       1.0  0.10060  0.93470  0.08680  1.0000 -0.404251934
O   O60       1.0  0.60060  0.56530  0.08680  1.0000 -0.404251934
O   O61       1.0  0.91940  0.36000  0.98470  1.0000 -0.4200473399
O   O62       1.0  0.41940  0.14000  0.98470  1.0000 -0.4200473399
O   O63       1.0  0.08060  0.64000  0.01530  1.0000 -0.4200473399
O   O64       1.0  0.58060  0.86000  0.01530  1.0000 -0.4200473399
