# DDEC6 charges by PACMAN v1.1 (https://github.com/mtap-research/PACMAN-charge/)
data_2003[Co][nan]3[FSR]2
_chemical_formula_sum              "Co4 H64 C96 N8 O16"
_cell_length_a       11.3555
_cell_length_b       11.3555
_cell_length_c       25.874
_cell_angle_alpha    87.4044
_cell_angle_beta     92.5956
_cell_angle_gamma    49.5823

_symmetry_space_group_name_H-M    "P 1"
_symmetry_Int_Tables_number       1

loop_
  _symmetry_equiv_pos_as_xyz
  'x, y, z'

loop_
  _atom_site_type_symbol
  _atom_site_label
  _atom_site_symmetry_multiplicity
  _atom_site_fract_x
  _atom_site_fract_y
  _atom_site_fract_z
  _atom_site_occupancy
  _atom_site_charge
Co  Co1       1.0  0.10253  0.29193  0.04425  1.0000 0.8184659197
Co  Co2       1.0  0.70807  0.89747  0.54425  1.0000 0.8184659197
Co  Co3       1.0  0.89747  0.70807  0.95575  1.0000 0.8184659197
Co  Co4       1.0  0.29193  0.10253  0.45575  1.0000 0.8184659197
H   H1        1.0  0.50450  0.77530  0.10550  1.0000 0.1091669704
H   H2        1.0  0.22470  0.49550  0.60550  1.0000 0.1091669704
H   H3        1.0  0.49550  0.22470  0.89450  1.0000 0.1091669704
H   H4        1.0  0.77530  0.50450  0.39450  1.0000 0.1091669704
H   H5        1.0  0.66090  0.57730  0.16780  1.0000 0.1091669704
H   H6        1.0  0.42270  0.33910  0.66780  1.0000 0.1091669704
H   H7        1.0  0.33910  0.42270  0.83220  1.0000 0.1091669704
H   H8        1.0  0.57730  0.66090  0.33220  1.0000 0.1091669704
H   H9        1.0  0.40150  0.83490  0.27640  1.0000 0.1091669704
H   H10       1.0  0.16510  0.59850  0.77640  1.0000 0.1091669704
H   H11       1.0  0.59850  0.16510  0.72360  1.0000 0.1091669704
H   H12       1.0  0.83490  0.40150  0.22360  1.0000 0.1091669704
H   H13       1.0  0.23570  0.04090  0.21430  1.0000 0.1199032529
H   H14       1.0  0.95910  0.76430  0.71430  1.0000 0.1199032529
H   H15       1.0  0.76430  0.95910  0.78570  1.0000 0.1199032529
H   H16       1.0  0.04090  0.23570  0.28570  1.0000 0.1199032529
H   H17       1.0  0.97860  0.52080  0.84290  1.0000 0.1271137634
H   H18       1.0  0.47920  0.02140  0.34290  1.0000 0.1271137634
H   H19       1.0  0.02140  0.47920  0.15710  1.0000 0.1271137634
H   H20       1.0  0.52080  0.97860  0.65710  1.0000 0.1271137634
H   H21       1.0  0.01090  0.45330  0.75740  1.0000 0.1091669704
H   H22       1.0  0.54670  0.98910  0.25740  1.0000 0.1091669704
H   H23       1.0  0.98910  0.54670  0.24260  1.0000 0.1091669704
H   H24       1.0  0.45330  0.01090  0.74260  1.0000 0.1091669704
H   H25       1.0  0.33450  0.00910  0.81350  1.0000 0.1199032529
H   H26       1.0  0.99090  0.66550  0.31350  1.0000 0.1199032529
H   H27       1.0  0.66550  0.99090  0.18650  1.0000 0.1199032529
H   H28       1.0  0.00910  0.33450  0.68650  1.0000 0.1199032529
H   H29       1.0  0.27950  0.07730  0.89730  1.0000 0.1199032529
H   H30       1.0  0.92270  0.72050  0.39730  1.0000 0.1199032529
H   H31       1.0  0.72050  0.92270  0.10270  1.0000 0.1199032529
H   H32       1.0  0.07730  0.27950  0.60270  1.0000 0.1199032529
H   H33       1.0  0.96550  0.16790  0.98450  1.0000 0.1091669704
H   H34       1.0  0.83210  0.03450  0.48450  1.0000 0.1091669704
H   H35       1.0  0.03450  0.83210  0.01550  1.0000 0.1091669704
H   H36       1.0  0.16790  0.96550  0.51550  1.0000 0.1091669704
H   H37       1.0  0.76210  0.17210  0.98200  1.0000 0.1419565244
H   H38       1.0  0.82790  0.23790  0.48200  1.0000 0.1419565244
H   H39       1.0  0.23790  0.82790  0.01800  1.0000 0.1419565244
H   H40       1.0  0.17210  0.76210  0.51800  1.0000 0.1419565244
H   H41       1.0  0.60980  0.43300  0.09800  1.0000 0.1271137634
H   H42       1.0  0.56700  0.39020  0.59800  1.0000 0.1271137634
H   H43       1.0  0.39020  0.56700  0.90200  1.0000 0.1271137634
H   H44       1.0  0.43300  0.60980  0.40200  1.0000 0.1271137634
H   H45       1.0  0.81360  0.42700  0.09670  1.0000 0.1091669704
H   H46       1.0  0.57300  0.18640  0.59670  1.0000 0.1091669704
H   H47       1.0  0.18640  0.57300  0.90330  1.0000 0.1091669704
H   H48       1.0  0.42700  0.81360  0.40330  1.0000 0.1091669704
H   H49       1.0  0.60330  0.13890  0.99190  1.0000 0.1419565244
H   H50       1.0  0.86110  0.39670  0.49190  1.0000 0.1419565244
H   H51       1.0  0.39670  0.86110  0.00810  1.0000 0.1419565244
H   H52       1.0  0.13890  0.60330  0.50810  1.0000 0.1419565244
H   H53       1.0  0.40810  0.13410  0.99810  1.0000 0.1091669704
H   H54       1.0  0.86590  0.59190  0.49810  1.0000 0.1091669704
H   H55       1.0  0.59190  0.86590  0.00190  1.0000 0.1091669704
H   H56       1.0  0.13410  0.40810  0.50190  1.0000 0.1091669704
H   H57       1.0  0.22560  0.43180  0.09920  1.0000 0.0979654263
H   H58       1.0  0.56820  0.77440  0.59920  1.0000 0.0979654263
H   H59       1.0  0.77440  0.56820  0.90080  1.0000 0.0979654263
H   H60       1.0  0.43180  0.22560  0.40080  1.0000 0.0979654263
H   H61       1.0  0.42170  0.44450  0.09670  1.0000 0.1271137634
H   H62       1.0  0.55550  0.57830  0.59670  1.0000 0.1271137634
H   H63       1.0  0.57830  0.55550  0.90330  1.0000 0.1271137634
H   H64       1.0  0.44450  0.42170  0.40330  1.0000 0.1271137634
C   C1        1.0  0.25140  0.06560  0.11320  1.0000 0.5285217775
C   C2        1.0  0.93440  0.74860  0.61320  1.0000 0.5285217775
C   C3        1.0  0.74860  0.93440  0.88680  1.0000 0.5285217775
C   C4        1.0  0.06560  0.25140  0.38680  1.0000 0.5285217775
C   C5        1.0  0.34870  0.93210  0.15280  1.0000 -0.0308995285
C   C6        1.0  0.06790  0.65130  0.65280  1.0000 -0.0308995285
C   C7        1.0  0.65130  0.06790  0.84720  1.0000 -0.0308995285
C   C8        1.0  0.93210  0.34870  0.34720  1.0000 -0.0308995285
C   C9        1.0  0.48140  0.78980  0.13990  1.0000 -0.1086262724
C   C10       1.0  0.21020  0.51860  0.63990  1.0000 -0.1086262724
C   C11       1.0  0.51860  0.21020  0.86010  1.0000 -0.1086262724
C   C12       1.0  0.78980  0.48140  0.36010  1.0000 -0.1086262724
C   C13       1.0  0.57660  0.67260  0.17810  1.0000 -0.1475645588
C   C14       1.0  0.32740  0.42340  0.67810  1.0000 -0.1475645588
C   C15       1.0  0.42340  0.32740  0.82190  1.0000 -0.1475645588
C   C16       1.0  0.67260  0.57660  0.32190  1.0000 -0.1475645588
C   C17       1.0  0.56190  0.67970  0.22900  1.0000 0.0761815165
C   C18       1.0  0.32030  0.43810  0.72900  1.0000 0.0761815165
C   C19       1.0  0.43810  0.32030  0.77100  1.0000 0.0761815165
C   C20       1.0  0.67970  0.56190  0.27100  1.0000 0.0761815165
C   C21       1.0  0.42410  0.82330  0.24200  1.0000 -0.1605530367
C   C22       1.0  0.17670  0.57590  0.74200  1.0000 -0.1605530367
C   C23       1.0  0.57590  0.17670  0.75800  1.0000 -0.1605530367
C   C24       1.0  0.82330  0.42410  0.25800  1.0000 -0.1605530367
C   C25       1.0  0.32280  0.94660  0.20440  1.0000 -0.0976164476
C   C26       1.0  0.05340  0.67720  0.70440  1.0000 -0.0976164476
C   C27       1.0  0.67720  0.05340  0.79560  1.0000 -0.0976164476
C   C28       1.0  0.94660  0.32280  0.29560  1.0000 -0.0976164476
C   C29       1.0  0.09170  0.35090  0.93250  1.0000 0.5552409007
C   C30       1.0  0.64910  0.90830  0.43250  1.0000 0.5552409007
C   C31       1.0  0.90830  0.64910  0.06750  1.0000 0.5552409007
C   C32       1.0  0.35090  0.09170  0.56750  1.0000 0.5552409007
C   C33       1.0  0.12010  0.30610  0.87800  1.0000 -0.0308995285
C   C34       1.0  0.69390  0.87990  0.37800  1.0000 -0.0308995285
C   C35       1.0  0.87990  0.69390  0.12200  1.0000 -0.0308995285
C   C36       1.0  0.30610  0.12010  0.62200  1.0000 -0.0308995285
C   C37       1.0  0.04630  0.41650  0.83690  1.0000 -0.1086262724
C   C38       1.0  0.58350  0.95370  0.33690  1.0000 -0.1086262724
C   C39       1.0  0.95370  0.58350  0.16310  1.0000 -0.1086262724
C   C40       1.0  0.41650  0.04630  0.66310  1.0000 -0.1086262724
C   C41       1.0  0.06990  0.37710  0.78530  1.0000 -0.1405610559
C   C42       1.0  0.62290  0.93010  0.28530  1.0000 -0.1405610559
C   C43       1.0  0.93010  0.62290  0.21470  1.0000 -0.1405610559
C   C44       1.0  0.37710  0.06990  0.71470  1.0000 -0.1405610559
C   C45       1.0  0.18370  0.22130  0.77690  1.0000 0.0761815165
C   C46       1.0  0.77870  0.81630  0.27690  1.0000 0.0761815165
C   C47       1.0  0.81630  0.77870  0.22310  1.0000 0.0761815165
C   C48       1.0  0.22130  0.18370  0.72310  1.0000 0.0761815165
C   C49       1.0  0.25920  0.11340  0.81880  1.0000 -0.1405610559
C   C50       1.0  0.88660  0.74080  0.31880  1.0000 -0.1405610559
C   C51       1.0  0.74080  0.88660  0.18120  1.0000 -0.1405610559
C   C52       1.0  0.11340  0.25920  0.68120  1.0000 -0.1405610559
C   C53       1.0  0.22750  0.15410  0.86940  1.0000 -0.1086262724
C   C54       1.0  0.84590  0.77250  0.36940  1.0000 -0.1086262724
C   C55       1.0  0.77250  0.84590  0.13060  1.0000 -0.1086262724
C   C56       1.0  0.15410  0.22750  0.63060  1.0000 -0.1086262724
C   C57       1.0  0.89140  0.22340  0.00800  1.0000 0.0609953249
C   C58       1.0  0.77660  0.10860  0.50800  1.0000 0.0609953249
C   C59       1.0  0.10860  0.77660  0.99200  1.0000 0.0609953249
C   C60       1.0  0.22340  0.89140  0.49200  1.0000 0.0609953249
C   C61       1.0  0.77300  0.22100  0.00730  1.0000 -0.1925409199
C   C62       1.0  0.77900  0.22700  0.50730  1.0000 -0.1925409199
C   C63       1.0  0.22700  0.77900  0.99270  1.0000 -0.1925409199
C   C64       1.0  0.22100  0.77300  0.49270  1.0000 -0.1925409199
C   C65       1.0  0.67030  0.29090  0.04390  1.0000 0.1091669704
C   C66       1.0  0.70910  0.32970  0.54390  1.0000 0.1091669704
C   C67       1.0  0.32970  0.70910  0.95610  1.0000 0.1091669704
C   C68       1.0  0.29090  0.67030  0.45610  1.0000 0.1091669704
C   C69       1.0  0.68390  0.37390  0.07490  1.0000 -0.2161824168
C   C70       1.0  0.62610  0.31610  0.57490  1.0000 -0.2161824168
C   C71       1.0  0.31610  0.62610  0.92510  1.0000 -0.2161824168
C   C72       1.0  0.37390  0.68390  0.42510  1.0000 -0.2161824168
C   C73       1.0  0.80490  0.37290  0.07320  1.0000 0.0979654263
C   C74       1.0  0.62710  0.19510  0.57320  1.0000 0.0979654263
C   C75       1.0  0.19510  0.62710  0.92680  1.0000 0.0979654263
C   C76       1.0  0.37290  0.80490  0.42680  1.0000 0.0979654263
C   C77       1.0  0.54200  0.28560  0.04490  1.0000 0.1091669704
C   C78       1.0  0.71440  0.45800  0.54490  1.0000 0.1091669704
C   C79       1.0  0.45800  0.71440  0.95510  1.0000 0.1091669704
C   C80       1.0  0.28560  0.54200  0.45510  1.0000 0.1091669704
C   C81       1.0  0.52920  0.19960  0.01480  1.0000 -0.1786883683
C   C82       1.0  0.80040  0.47080  0.51480  1.0000 -0.1786883683
C   C83       1.0  0.47080  0.80040  0.98520  1.0000 -0.1786883683
C   C84       1.0  0.19960  0.52920  0.48520  1.0000 -0.1786883683
C   C85       1.0  0.40890  0.20050  0.01760  1.0000 0.0609953249
C   C86       1.0  0.79950  0.59110  0.51760  1.0000 0.0609953249
C   C87       1.0  0.59110  0.79950  0.98240  1.0000 0.0609953249
C   C88       1.0  0.20050  0.40890  0.48240  1.0000 0.0609953249
C   C89       1.0  0.30170  0.37370  0.07650  1.0000 0.1091669704
C   C90       1.0  0.62630  0.69830  0.57650  1.0000 0.1091669704
C   C91       1.0  0.69830  0.62630  0.92350  1.0000 0.1091669704
C   C92       1.0  0.37370  0.30170  0.42350  1.0000 0.1091669704
C   C93       1.0  0.42260  0.37860  0.07620  1.0000 -0.2105554627
C   C94       1.0  0.62140  0.57740  0.57620  1.0000 -0.2105554627
C   C95       1.0  0.57740  0.62140  0.92380  1.0000 -0.2105554627
C   C96       1.0  0.37860  0.42260  0.42380  1.0000 -0.2105554627
N   N1        1.0  0.90660  0.30080  0.04070  1.0000 -0.2161824168
N   N2        1.0  0.69920  0.09340  0.54070  1.0000 -0.2161824168
N   N3        1.0  0.09340  0.69920  0.95930  1.0000 -0.2161824168
N   N4        1.0  0.30080  0.90660  0.45930  1.0000 -0.2161824168
N   N5        1.0  0.29240  0.29200  0.04680  1.0000 -0.2250810699
N   N6        1.0  0.70800  0.70760  0.54680  1.0000 -0.2250810699
N   N7        1.0  0.70760  0.70800  0.95320  1.0000 -0.2250810699
N   N8        1.0  0.29200  0.29240  0.45320  1.0000 -0.2250810699
O   O1        1.0  0.26360  0.04100  0.06560  1.0000 -0.5587809668
O   O2        1.0  0.95900  0.73640  0.56560  1.0000 -0.5587809668
O   O3        1.0  0.73640  0.95900  0.93440  1.0000 -0.5587809668
O   O4        1.0  0.04100  0.26360  0.43440  1.0000 -0.5587809668
O   O5        1.0  0.16100  0.20020  0.12650  1.0000 -0.5421991037
O   O6        1.0  0.79980  0.83900  0.62650  1.0000 -0.5421991037
O   O7        1.0  0.83900  0.79980  0.87350  1.0000 -0.5421991037
O   O8        1.0  0.20020  0.16100  0.37350  1.0000 -0.5421991037
O   O9        1.0  0.12230  0.25630  0.96780  1.0000 -0.5156212137
O   O10       1.0  0.74370  0.87770  0.46780  1.0000 -0.5156212137
O   O11       1.0  0.87770  0.74370  0.03220  1.0000 -0.5156212137
O   O12       1.0  0.25630  0.12230  0.53220  1.0000 -0.5156212137
O   O13       1.0  0.04470  0.48250  0.93980  1.0000 -0.5587809668
O   O14       1.0  0.51750  0.95530  0.43980  1.0000 -0.5587809668
O   O15       1.0  0.95530  0.51750  0.06020  1.0000 -0.5587809668
O   O16       1.0  0.48250  0.04470  0.56020  1.0000 -0.5587809668
