# DDEC6 charges by PACMAN v1.1 (https://github.com/mtap-research/PACMAN-charge/)
data_2003[LaCu][stp]3[FSR]1
_chemical_formula_sum              "La4 Cu6 H60 C48 N12 O48"
_cell_length_a       13.4713
_cell_length_b       13.4713
_cell_length_c       14.922
_cell_angle_alpha    90
_cell_angle_beta     90
_cell_angle_gamma    120

_symmetry_space_group_name_H-M    "P 1"
_symmetry_Int_Tables_number       1

loop_
  _symmetry_equiv_pos_as_xyz
  'x, y, z'

loop_
  _atom_site_type_symbol
  _atom_site_label
  _atom_site_symmetry_multiplicity
  _atom_site_fract_x
  _atom_site_fract_y
  _atom_site_fract_z
  _atom_site_occupancy
  _atom_site_charge
La  La1       1.0  0.33333  0.66667  0.83044  1.0000 1.8607642192
La  La2       1.0  0.66667  0.33333  0.66956  1.0000 1.8607642192
La  La3       1.0  0.33333  0.66667  0.33044  1.0000 1.8607642192
La  La4       1.0  0.66667  0.33333  0.16956  1.0000 1.8607642192
Cu  Cu1       1.0  0.50000  0.00000  0.00000  1.0000 0.7354788023
Cu  Cu2       1.0  0.00000  0.50000  0.00000  1.0000 0.7343120414
Cu  Cu3       1.0  0.50000  0.50000  0.00000  1.0000 0.7354788023
Cu  Cu4       1.0  0.00000  0.50000  0.50000  1.0000 0.7343120414
Cu  Cu5       1.0  0.50000  0.00000  0.50000  1.0000 0.7343120414
Cu  Cu6       1.0  0.50000  0.50000  0.50000  1.0000 0.7343120414
H   H1        1.0  0.67990  0.86240  0.02240  1.0000 0.1304223675
H   H2        1.0  0.13760  0.81750  0.02240  1.0000 0.1304223675
H   H3        1.0  0.18250  0.32010  0.02240  1.0000 0.1304223675
H   H4        1.0  0.86240  0.67990  0.47760  1.0000 0.1304223675
H   H5        1.0  0.18250  0.86240  0.52240  1.0000 0.1304223675
H   H6        1.0  0.67990  0.81750  0.52240  1.0000 0.1304223675
H   H7        1.0  0.32010  0.13760  0.97760  1.0000 0.1304223675
H   H8        1.0  0.86240  0.18250  0.97760  1.0000 0.1304223675
H   H9        1.0  0.81750  0.67990  0.97760  1.0000 0.1304223675
H   H10       1.0  0.13760  0.32010  0.52240  1.0000 0.1304223675
H   H11       1.0  0.81750  0.13760  0.47760  1.0000 0.1304223675
H   H12       1.0  0.32010  0.18250  0.47760  1.0000 0.1304223675
H   H13       1.0  0.70780  0.96120  0.95360  1.0000 0.1405461568
H   H14       1.0  0.03880  0.74660  0.95360  1.0000 0.1405461568
H   H15       1.0  0.25340  0.29220  0.95360  1.0000 0.1405461568
H   H16       1.0  0.96120  0.70780  0.54640  1.0000 0.1405461568
H   H17       1.0  0.25340  0.96120  0.45360  1.0000 0.1405461568
H   H18       1.0  0.70780  0.74660  0.45360  1.0000 0.1405461568
H   H19       1.0  0.29220  0.03880  0.04640  1.0000 0.1405461568
H   H20       1.0  0.96120  0.25340  0.04640  1.0000 0.1405461568
H   H21       1.0  0.74660  0.70780  0.04640  1.0000 0.1405461568
H   H22       1.0  0.03880  0.29220  0.45360  1.0000 0.1405461568
H   H23       1.0  0.74660  0.03880  0.54640  1.0000 0.1405461568
H   H24       1.0  0.29220  0.25340  0.54640  1.0000 0.1405461568
H   H25       1.0  0.60370  0.92050  0.18850  1.0000 0.1496460426
H   H26       1.0  0.07950  0.68320  0.18850  1.0000 0.1496460426
H   H27       1.0  0.31680  0.39630  0.18850  1.0000 0.1496460426
H   H28       1.0  0.92050  0.60370  0.31150  1.0000 0.1496460426
H   H29       1.0  0.31680  0.92050  0.68850  1.0000 0.1496460426
H   H30       1.0  0.60370  0.68320  0.68850  1.0000 0.1496460426
H   H31       1.0  0.39630  0.07950  0.81150  1.0000 0.1496460426
H   H32       1.0  0.92050  0.31680  0.81150  1.0000 0.1496460426
H   H33       1.0  0.68320  0.60370  0.81150  1.0000 0.1496460426
H   H34       1.0  0.07950  0.39630  0.68850  1.0000 0.1496460426
H   H35       1.0  0.68320  0.07950  0.31150  1.0000 0.1496460426
H   H36       1.0  0.39630  0.31680  0.31150  1.0000 0.1496460426
H   H37       1.0  0.54270  0.81200  0.12680  1.0000 0.1565388429
H   H38       1.0  0.18800  0.73070  0.12680  1.0000 0.1565388429
H   H39       1.0  0.26930  0.45730  0.12680  1.0000 0.1565388429
H   H40       1.0  0.81200  0.54270  0.37320  1.0000 0.1565388429
H   H41       1.0  0.26930  0.81200  0.62680  1.0000 0.1565388429
H   H42       1.0  0.54270  0.73070  0.62680  1.0000 0.1565388429
H   H43       1.0  0.45730  0.18800  0.87320  1.0000 0.1565388429
H   H44       1.0  0.81200  0.26930  0.87320  1.0000 0.1565388429
H   H45       1.0  0.73070  0.54270  0.87320  1.0000 0.1565388429
H   H46       1.0  0.18800  0.45730  0.62680  1.0000 0.1565388429
H   H47       1.0  0.73070  0.18800  0.37320  1.0000 0.1565388429
H   H48       1.0  0.45730  0.26930  0.37320  1.0000 0.1565388429
H   H49       1.0  0.67410  0.02600  0.07610  1.0000 0.255080207
H   H50       1.0  0.97400  0.64810  0.07610  1.0000 0.255080207
H   H51       1.0  0.35190  0.32590  0.07610  1.0000 0.255080207
H   H52       1.0  0.02600  0.67410  0.42390  1.0000 0.255080207
H   H53       1.0  0.35190  0.02600  0.57610  1.0000 0.255080207
H   H54       1.0  0.67410  0.64810  0.57610  1.0000 0.255080207
H   H55       1.0  0.32590  0.97400  0.92390  1.0000 0.255080207
H   H56       1.0  0.02600  0.35190  0.92390  1.0000 0.255080207
H   H57       1.0  0.64810  0.67410  0.92390  1.0000 0.255080207
H   H58       1.0  0.97400  0.32590  0.57610  1.0000 0.255080207
H   H59       1.0  0.64810  0.97400  0.42390  1.0000 0.255080207
H   H60       1.0  0.32590  0.35190  0.42390  1.0000 0.255080207
C   C1        1.0  0.54850  0.82040  0.93320  1.0000 0.6123487789
C   C2        1.0  0.17960  0.72810  0.93320  1.0000 0.6123487789
C   C3        1.0  0.27190  0.45150  0.93320  1.0000 0.6123487789
C   C4        1.0  0.82040  0.54850  0.56680  1.0000 0.6123487789
C   C5        1.0  0.27190  0.82040  0.43320  1.0000 0.6123487789
C   C6        1.0  0.54850  0.72810  0.43320  1.0000 0.6123487789
C   C7        1.0  0.45150  0.17960  0.06680  1.0000 0.6123487789
C   C8        1.0  0.82040  0.27190  0.06680  1.0000 0.6123487789
C   C9        1.0  0.72810  0.54850  0.06680  1.0000 0.6123487789
C   C10       1.0  0.17960  0.45150  0.43320  1.0000 0.6123487789
C   C11       1.0  0.72810  0.17960  0.56680  1.0000 0.6123487789
C   C12       1.0  0.45150  0.27190  0.56680  1.0000 0.6123487789
C   C13       1.0  0.64820  0.90350  0.99130  1.0000 -0.2437643271
C   C14       1.0  0.09650  0.74470  0.99130  1.0000 -0.2437643271
C   C15       1.0  0.25530  0.35180  0.99130  1.0000 -0.2437643271
C   C16       1.0  0.90350  0.64820  0.50870  1.0000 -0.2437643271
C   C17       1.0  0.25530  0.90350  0.49130  1.0000 -0.2437643271
C   C18       1.0  0.64820  0.74470  0.49130  1.0000 -0.2437643271
C   C19       1.0  0.35180  0.09650  0.00870  1.0000 -0.2437643271
C   C20       1.0  0.90350  0.25530  0.00870  1.0000 -0.2437643271
C   C21       1.0  0.74470  0.64820  0.00870  1.0000 -0.2437643271
C   C22       1.0  0.09650  0.35180  0.49130  1.0000 -0.2437643271
C   C23       1.0  0.74470  0.09650  0.50870  1.0000 -0.2437643271
C   C24       1.0  0.35180  0.25530  0.50870  1.0000 -0.2437643271
C   C25       1.0  0.55420  0.88820  0.13670  1.0000 -0.263652758
C   C26       1.0  0.11180  0.66600  0.13670  1.0000 -0.263652758
C   C27       1.0  0.33400  0.44580  0.13670  1.0000 -0.263652758
C   C28       1.0  0.88820  0.55420  0.36330  1.0000 -0.263652758
C   C29       1.0  0.33400  0.88820  0.63670  1.0000 -0.263652758
C   C30       1.0  0.55420  0.66600  0.63670  1.0000 -0.263652758
C   C31       1.0  0.44580  0.11180  0.86330  1.0000 -0.263652758
C   C32       1.0  0.88820  0.33400  0.86330  1.0000 -0.263652758
C   C33       1.0  0.66600  0.55420  0.86330  1.0000 -0.263652758
C   C34       1.0  0.11180  0.44580  0.63670  1.0000 -0.263652758
C   C35       1.0  0.66600  0.11180  0.36330  1.0000 -0.263652758
C   C36       1.0  0.44580  0.33400  0.36330  1.0000 -0.263652758
C   C37       1.0  0.44030  0.87910  0.15630  1.0000 0.6406394679
C   C38       1.0  0.12090  0.56120  0.15630  1.0000 0.6406394679
C   C39       1.0  0.43880  0.55970  0.15630  1.0000 0.6406394679
C   C40       1.0  0.87910  0.44030  0.34370  1.0000 0.6406394679
C   C41       1.0  0.43880  0.87910  0.65630  1.0000 0.6406394679
C   C42       1.0  0.44030  0.56120  0.65630  1.0000 0.6406394679
C   C43       1.0  0.55970  0.12090  0.84370  1.0000 0.6406394679
C   C44       1.0  0.87910  0.43880  0.84370  1.0000 0.6406394679
C   C45       1.0  0.56120  0.44030  0.84370  1.0000 0.6406394679
C   C46       1.0  0.12090  0.55970  0.65630  1.0000 0.6406394679
C   C47       1.0  0.56120  0.12090  0.34370  1.0000 0.6406394679
C   C48       1.0  0.55970  0.43880  0.34370  1.0000 0.6406394679
N   N1        1.0  0.61150  0.96010  0.05753  1.0000 -0.2517637622
N   N2        1.0  0.03990  0.65140  0.05753  1.0000 -0.2517637622
N   N3        1.0  0.34860  0.38850  0.05753  1.0000 -0.2517637622
N   N4        1.0  0.96010  0.61150  0.44247  1.0000 -0.2517637622
N   N5        1.0  0.34860  0.96010  0.55753  1.0000 -0.2517637622
N   N6        1.0  0.61150  0.65140  0.55753  1.0000 -0.2517637622
N   N7        1.0  0.38850  0.03990  0.94247  1.0000 -0.2517637622
N   N8        1.0  0.96010  0.34860  0.94247  1.0000 -0.2517637622
N   N9        1.0  0.65140  0.61150  0.94247  1.0000 -0.2517637622
N   N10       1.0  0.03990  0.38850  0.55753  1.0000 -0.2517637622
N   N11       1.0  0.65140  0.03990  0.44247  1.0000 -0.2517637622
N   N12       1.0  0.38850  0.34860  0.44247  1.0000 -0.2517637622
O   O1        1.0  0.56220  0.75920  0.87702  1.0000 -0.584840135
O   O2        1.0  0.24080  0.80300  0.87702  1.0000 -0.584840135
O   O3        1.0  0.19700  0.43780  0.87702  1.0000 -0.584840135
O   O4        1.0  0.75920  0.56220  0.62298  1.0000 -0.584840135
O   O5        1.0  0.19700  0.75920  0.37702  1.0000 -0.584840135
O   O6        1.0  0.56220  0.80300  0.37702  1.0000 -0.584840135
O   O7        1.0  0.43780  0.24080  0.12298  1.0000 -0.584840135
O   O8        1.0  0.75920  0.19700  0.12298  1.0000 -0.584840135
O   O9        1.0  0.80300  0.56220  0.12298  1.0000 -0.584840135
O   O10       1.0  0.24080  0.43780  0.37702  1.0000 -0.584840135
O   O11       1.0  0.80300  0.24080  0.62298  1.0000 -0.584840135
O   O12       1.0  0.43780  0.19700  0.62298  1.0000 -0.584840135
O   O13       1.0  0.45400  0.81730  0.94318  1.0000 -0.6098916095
O   O14       1.0  0.18270  0.63670  0.94318  1.0000 -0.6098916095
O   O15       1.0  0.36330  0.54600  0.94318  1.0000 -0.6098916095
O   O16       1.0  0.81730  0.45400  0.55682  1.0000 -0.6098916095
O   O17       1.0  0.36330  0.81730  0.44318  1.0000 -0.6098916095
O   O18       1.0  0.45400  0.63670  0.44318  1.0000 -0.6098916095
O   O19       1.0  0.54600  0.18270  0.05682  1.0000 -0.6098916095
O   O20       1.0  0.81730  0.36330  0.05682  1.0000 -0.6098916095
O   O21       1.0  0.63670  0.45400  0.05682  1.0000 -0.6098916095
O   O22       1.0  0.18270  0.54600  0.44318  1.0000 -0.6098916095
O   O23       1.0  0.63670  0.18270  0.55682  1.0000 -0.6098916095
O   O24       1.0  0.54600  0.36330  0.55682  1.0000 -0.6098916095
O   O25       1.0  0.40260  0.92600  0.10457  1.0000 -0.5090228828
O   O26       1.0  0.07400  0.47660  0.10457  1.0000 -0.5090228828
O   O27       1.0  0.52340  0.59740  0.10457  1.0000 -0.5090228828
O   O28       1.0  0.92600  0.40260  0.39543  1.0000 -0.5090228828
O   O29       1.0  0.52340  0.92600  0.60457  1.0000 -0.5090228828
O   O30       1.0  0.40260  0.47660  0.60457  1.0000 -0.5090228828
O   O31       1.0  0.59740  0.07400  0.89543  1.0000 -0.5090228828
O   O32       1.0  0.92600  0.52340  0.89543  1.0000 -0.5090228828
O   O33       1.0  0.47660  0.40260  0.89543  1.0000 -0.5090228828
O   O34       1.0  0.07400  0.59740  0.60457  1.0000 -0.5090228828
O   O35       1.0  0.47660  0.07400  0.39543  1.0000 -0.5090228828
O   O36       1.0  0.59740  0.52340  0.39543  1.0000 -0.5090228828
O   O37       1.0  0.38660  0.82420  0.22439  1.0000 -0.6098916095
O   O38       1.0  0.17580  0.56240  0.22439  1.0000 -0.6098916095
O   O39       1.0  0.43760  0.61340  0.22439  1.0000 -0.6098916095
O   O40       1.0  0.82420  0.38660  0.27561  1.0000 -0.6098916095
O   O41       1.0  0.43760  0.82420  0.72439  1.0000 -0.6098916095
O   O42       1.0  0.38660  0.56240  0.72439  1.0000 -0.6098916095
O   O43       1.0  0.61340  0.17580  0.77561  1.0000 -0.6098916095
O   O44       1.0  0.82420  0.43760  0.77561  1.0000 -0.6098916095
O   O45       1.0  0.56240  0.38660  0.77561  1.0000 -0.6098916095
O   O46       1.0  0.17580  0.61340  0.72439  1.0000 -0.6098916095
O   O47       1.0  0.56240  0.17580  0.27561  1.0000 -0.6098916095
O   O48       1.0  0.61340  0.43760  0.27561  1.0000 -0.6098916095
