# DDEC6 charges by PACMAN v1.1 (https://github.com/mtap-research/PACMAN-charge/)
data_2003[CuEu][stp]3[FSR]2
_chemical_formula_sum              "Eu4 Cu6 H60 C48 N12 O48"
_cell_length_a       13.3031
_cell_length_b       13.3031
_cell_length_c       14.566
_cell_angle_alpha    90
_cell_angle_beta     90
_cell_angle_gamma    120

_symmetry_space_group_name_H-M    "P 1"
_symmetry_Int_Tables_number       1

loop_
  _symmetry_equiv_pos_as_xyz
  'x, y, z'

loop_
  _atom_site_type_symbol
  _atom_site_label
  _atom_site_symmetry_multiplicity
  _atom_site_fract_x
  _atom_site_fract_y
  _atom_site_fract_z
  _atom_site_occupancy
  _atom_site_charge
Eu  Eu1       1.0  0.66667  0.33333  0.33141  1.0000 2.0617010593
Eu  Eu2       1.0  0.33333  0.66667  0.16859  1.0000 2.0617010593
Eu  Eu3       1.0  0.66667  0.33333  0.83141  1.0000 2.0617010593
Eu  Eu4       1.0  0.33333  0.66667  0.66859  1.0000 2.0617010593
Cu  Cu1       1.0  0.50000  0.50000  0.50000  1.0000 0.7522143523
Cu  Cu2       1.0  0.50000  0.00000  0.50000  1.0000 0.7522143523
Cu  Cu3       1.0  0.00000  0.50000  0.50000  1.0000 0.7522143523
Cu  Cu4       1.0  0.50000  0.50000  0.00000  1.0000 0.7522143523
Cu  Cu5       1.0  0.00000  0.50000  0.00000  1.0000 0.7522143523
Cu  Cu6       1.0  0.50000  0.00000  0.00000  1.0000 0.7522143523
H   H1        1.0  0.29240  0.25390  0.44950  1.0000 0.1423275669
H   H2        1.0  0.74610  0.03850  0.44950  1.0000 0.1423275669
H   H3        1.0  0.96150  0.70760  0.44950  1.0000 0.1423275669
H   H4        1.0  0.25390  0.29240  0.05050  1.0000 0.1423275669
H   H5        1.0  0.96150  0.25390  0.94950  1.0000 0.1423275669
H   H6        1.0  0.29240  0.03850  0.94950  1.0000 0.1423275669
H   H7        1.0  0.70760  0.74610  0.55050  1.0000 0.1423275669
H   H8        1.0  0.25390  0.96150  0.55050  1.0000 0.1423275669
H   H9        1.0  0.03850  0.29240  0.55050  1.0000 0.1423275669
H   H10       1.0  0.74610  0.70760  0.94950  1.0000 0.1423275669
H   H11       1.0  0.03850  0.74610  0.05050  1.0000 0.1423275669
H   H12       1.0  0.70760  0.96150  0.05050  1.0000 0.1423275669
H   H13       1.0  0.31730  0.17900  0.51910  1.0000 0.1318375766
H   H14       1.0  0.82100  0.13830  0.51910  1.0000 0.1318375766
H   H15       1.0  0.86170  0.68270  0.51910  1.0000 0.1318375766
H   H16       1.0  0.17900  0.31730  0.98090  1.0000 0.1318375766
H   H17       1.0  0.86170  0.17900  0.01910  1.0000 0.1318375766
H   H18       1.0  0.31730  0.13830  0.01910  1.0000 0.1318375766
H   H19       1.0  0.68270  0.82100  0.48090  1.0000 0.1318375766
H   H20       1.0  0.17900  0.86170  0.48090  1.0000 0.1318375766
H   H21       1.0  0.13830  0.31730  0.48090  1.0000 0.1318375766
H   H22       1.0  0.82100  0.68270  0.01910  1.0000 0.1318375766
H   H23       1.0  0.13830  0.82100  0.98090  1.0000 0.1318375766
H   H24       1.0  0.68270  0.86170  0.98090  1.0000 0.1318375766
H   H25       1.0  0.32420  0.34880  0.57750  1.0000 0.256914705
H   H26       1.0  0.65120  0.97540  0.57750  1.0000 0.256914705
H   H27       1.0  0.02460  0.67580  0.57750  1.0000 0.256914705
H   H28       1.0  0.34880  0.32420  0.92250  1.0000 0.256914705
H   H29       1.0  0.02460  0.34880  0.07750  1.0000 0.256914705
H   H30       1.0  0.32420  0.97540  0.07750  1.0000 0.256914705
H   H31       1.0  0.67580  0.65120  0.42250  1.0000 0.256914705
H   H32       1.0  0.34880  0.02460  0.42250  1.0000 0.256914705
H   H33       1.0  0.97540  0.32420  0.42250  1.0000 0.256914705
H   H34       1.0  0.65120  0.67580  0.07750  1.0000 0.256914705
H   H35       1.0  0.97540  0.65120  0.92250  1.0000 0.256914705
H   H36       1.0  0.67580  0.02460  0.92250  1.0000 0.256914705
H   H37       1.0  0.45840  0.26590  0.62790  1.0000 0.1562086245
H   H38       1.0  0.73410  0.19250  0.62790  1.0000 0.1562086245
H   H39       1.0  0.80750  0.54160  0.62790  1.0000 0.1562086245
H   H40       1.0  0.26590  0.45840  0.87210  1.0000 0.1562086245
H   H41       1.0  0.80750  0.26590  0.12790  1.0000 0.1562086245
H   H42       1.0  0.45840  0.19250  0.12790  1.0000 0.1562086245
H   H43       1.0  0.54160  0.73410  0.37210  1.0000 0.1562086245
H   H44       1.0  0.26590  0.80750  0.37210  1.0000 0.1562086245
H   H45       1.0  0.19250  0.45840  0.37210  1.0000 0.1562086245
H   H46       1.0  0.73410  0.54160  0.12790  1.0000 0.1562086245
H   H47       1.0  0.19250  0.73410  0.87210  1.0000 0.1562086245
H   H48       1.0  0.54160  0.80750  0.87210  1.0000 0.1562086245
H   H49       1.0  0.39620  0.31260  0.69180  1.0000 0.1534688175
H   H50       1.0  0.68740  0.08360  0.69180  1.0000 0.1534688175
H   H51       1.0  0.91640  0.60380  0.69180  1.0000 0.1534688175
H   H52       1.0  0.31260  0.39620  0.80820  1.0000 0.1534688175
H   H53       1.0  0.91640  0.31260  0.19180  1.0000 0.1534688175
H   H54       1.0  0.39620  0.08360  0.19180  1.0000 0.1534688175
H   H55       1.0  0.60380  0.68740  0.30820  1.0000 0.1534688175
H   H56       1.0  0.31260  0.91640  0.30820  1.0000 0.1534688175
H   H57       1.0  0.08360  0.39620  0.30820  1.0000 0.1534688175
H   H58       1.0  0.68740  0.60380  0.19180  1.0000 0.1534688175
H   H59       1.0  0.08360  0.68740  0.80820  1.0000 0.1534688175
H   H60       1.0  0.60380  0.91640  0.80820  1.0000 0.1534688175
C   C1        1.0  0.45160  0.26930  0.43000  1.0000 0.6169732809
C   C2        1.0  0.73070  0.18230  0.43000  1.0000 0.6169732809
C   C3        1.0  0.81770  0.54840  0.43000  1.0000 0.6169732809
C   C4        1.0  0.26930  0.45160  0.07000  1.0000 0.6169732809
C   C5        1.0  0.81770  0.26930  0.93000  1.0000 0.6169732809
C   C6        1.0  0.45160  0.18230  0.93000  1.0000 0.6169732809
C   C7        1.0  0.54840  0.73070  0.57000  1.0000 0.6169732809
C   C8        1.0  0.26930  0.81770  0.57000  1.0000 0.6169732809
C   C9        1.0  0.18230  0.45160  0.57000  1.0000 0.6169732809
C   C10       1.0  0.73070  0.54840  0.93000  1.0000 0.6169732809
C   C11       1.0  0.18230  0.73070  0.07000  1.0000 0.6169732809
C   C12       1.0  0.54840  0.81770  0.07000  1.0000 0.6169732809
C   C13       1.0  0.35140  0.25370  0.48850  1.0000 -0.2410555184
C   C14       1.0  0.74630  0.09770  0.48850  1.0000 -0.2410555184
C   C15       1.0  0.90230  0.64860  0.48850  1.0000 -0.2410555184
C   C16       1.0  0.25370  0.35140  0.01150  1.0000 -0.2410555184
C   C17       1.0  0.90230  0.25370  0.98850  1.0000 -0.2410555184
C   C18       1.0  0.35140  0.09770  0.98850  1.0000 -0.2410555184
C   C19       1.0  0.64860  0.74630  0.51150  1.0000 -0.2410555184
C   C20       1.0  0.25370  0.90230  0.51150  1.0000 -0.2410555184
C   C21       1.0  0.09770  0.35140  0.51150  1.0000 -0.2410555184
C   C22       1.0  0.74630  0.64860  0.98850  1.0000 -0.2410555184
C   C23       1.0  0.09770  0.74630  0.01150  1.0000 -0.2410555184
C   C24       1.0  0.64860  0.90230  0.01150  1.0000 -0.2410555184
C   C25       1.0  0.44640  0.33100  0.63870  1.0000 -0.265651236
C   C26       1.0  0.66900  0.11540  0.63870  1.0000 -0.265651236
C   C27       1.0  0.88460  0.55360  0.63870  1.0000 -0.265651236
C   C28       1.0  0.33100  0.44640  0.86130  1.0000 -0.265651236
C   C29       1.0  0.88460  0.33100  0.13870  1.0000 -0.265651236
C   C30       1.0  0.44640  0.11540  0.13870  1.0000 -0.265651236
C   C31       1.0  0.55360  0.66900  0.36130  1.0000 -0.265651236
C   C32       1.0  0.33100  0.88460  0.36130  1.0000 -0.265651236
C   C33       1.0  0.11540  0.44640  0.36130  1.0000 -0.265651236
C   C34       1.0  0.66900  0.55360  0.13870  1.0000 -0.265651236
C   C35       1.0  0.11540  0.66900  0.86130  1.0000 -0.265651236
C   C36       1.0  0.55360  0.88460  0.86130  1.0000 -0.265651236
C   C37       1.0  0.56090  0.43670  0.65940  1.0000 0.6575574279
C   C38       1.0  0.56330  0.12420  0.65940  1.0000 0.6575574279
C   C39       1.0  0.87580  0.43910  0.65940  1.0000 0.6575574279
C   C40       1.0  0.43670  0.56090  0.84060  1.0000 0.6575574279
C   C41       1.0  0.87580  0.43670  0.15940  1.0000 0.6575574279
C   C42       1.0  0.56090  0.12420  0.15940  1.0000 0.6575574279
C   C43       1.0  0.43910  0.56330  0.34060  1.0000 0.6575574279
C   C44       1.0  0.43670  0.87580  0.34060  1.0000 0.6575574279
C   C45       1.0  0.12420  0.56090  0.34060  1.0000 0.6575574279
C   C46       1.0  0.56330  0.43910  0.15940  1.0000 0.6575574279
C   C47       1.0  0.12420  0.56330  0.84060  1.0000 0.6575574279
C   C48       1.0  0.43910  0.87580  0.84060  1.0000 0.6575574279
N   N1        1.0  0.38780  0.34610  0.55802  1.0000 -0.2532383502
N   N2        1.0  0.65390  0.04170  0.55802  1.0000 -0.2532383502
N   N3        1.0  0.95830  0.61220  0.55802  1.0000 -0.2532383502
N   N4        1.0  0.34610  0.38780  0.94198  1.0000 -0.2532383502
N   N5        1.0  0.95830  0.34610  0.05802  1.0000 -0.2532383502
N   N6        1.0  0.38780  0.04170  0.05802  1.0000 -0.2532383502
N   N7        1.0  0.61220  0.65390  0.44198  1.0000 -0.2532383502
N   N8        1.0  0.34610  0.95830  0.44198  1.0000 -0.2532383502
N   N9        1.0  0.04170  0.38780  0.44198  1.0000 -0.2532383502
N   N10       1.0  0.65390  0.61220  0.05802  1.0000 -0.2532383502
N   N11       1.0  0.04170  0.65390  0.94198  1.0000 -0.2532383502
N   N12       1.0  0.61220  0.95830  0.94198  1.0000 -0.2532383502
O   O1        1.0  0.54790  0.36060  0.44094  1.0000 -0.6518813372
O   O2        1.0  0.63940  0.18730  0.44094  1.0000 -0.6518813372
O   O3        1.0  0.81270  0.45210  0.44094  1.0000 -0.6518813372
O   O4        1.0  0.36060  0.54790  0.05906  1.0000 -0.6518813372
O   O5        1.0  0.81270  0.36060  0.94094  1.0000 -0.6518813372
O   O6        1.0  0.54790  0.18730  0.94094  1.0000 -0.6518813372
O   O7        1.0  0.45210  0.63940  0.55906  1.0000 -0.6518813372
O   O8        1.0  0.36060  0.81270  0.55906  1.0000 -0.6518813372
O   O9        1.0  0.18730  0.54790  0.55906  1.0000 -0.6518813372
O   O10       1.0  0.63940  0.45210  0.94094  1.0000 -0.6518813372
O   O11       1.0  0.18730  0.63940  0.05906  1.0000 -0.6518813372
O   O12       1.0  0.45210  0.81270  0.05906  1.0000 -0.6518813372
O   O13       1.0  0.43830  0.19430  0.37330  1.0000 -0.5909169118
O   O14       1.0  0.80570  0.24400  0.37330  1.0000 -0.5909169118
O   O15       1.0  0.75600  0.56170  0.37330  1.0000 -0.5909169118
O   O16       1.0  0.19430  0.43830  0.12670  1.0000 -0.5909169118
O   O17       1.0  0.75600  0.19430  0.87330  1.0000 -0.5909169118
O   O18       1.0  0.43830  0.24400  0.87330  1.0000 -0.5909169118
O   O19       1.0  0.56170  0.80570  0.62670  1.0000 -0.5909169118
O   O20       1.0  0.19430  0.75600  0.62670  1.0000 -0.5909169118
O   O21       1.0  0.24400  0.43830  0.62670  1.0000 -0.5909169118
O   O22       1.0  0.80570  0.56170  0.87330  1.0000 -0.5909169118
O   O23       1.0  0.24400  0.80570  0.12670  1.0000 -0.5909169118
O   O24       1.0  0.56170  0.75600  0.12670  1.0000 -0.5909169118
O   O25       1.0  0.59890  0.52380  0.60630  1.0000 -0.5182620883
O   O26       1.0  0.47620  0.07510  0.60630  1.0000 -0.5182620883
O   O27       1.0  0.92490  0.40110  0.60630  1.0000 -0.5182620883
O   O28       1.0  0.52380  0.59890  0.89370  1.0000 -0.5182620883
O   O29       1.0  0.92490  0.52380  0.10630  1.0000 -0.5182620883
O   O30       1.0  0.59890  0.07510  0.10630  1.0000 -0.5182620883
O   O31       1.0  0.40110  0.47620  0.39370  1.0000 -0.5182620883
O   O32       1.0  0.52380  0.92490  0.39370  1.0000 -0.5182620883
O   O33       1.0  0.07510  0.59890  0.39370  1.0000 -0.5182620883
O   O34       1.0  0.47620  0.40110  0.10630  1.0000 -0.5182620883
O   O35       1.0  0.07510  0.47620  0.89370  1.0000 -0.5182620883
O   O36       1.0  0.40110  0.92490  0.89370  1.0000 -0.5182620883
O   O37       1.0  0.61710  0.43570  0.72767  1.0000 -0.6576234201
O   O38       1.0  0.56430  0.18140  0.72767  1.0000 -0.6576234201
O   O39       1.0  0.81860  0.38290  0.72767  1.0000 -0.6576234201
O   O40       1.0  0.43570  0.61710  0.77233  1.0000 -0.6576234201
O   O41       1.0  0.81860  0.43570  0.22767  1.0000 -0.6576234201
O   O42       1.0  0.61710  0.18140  0.22767  1.0000 -0.6576234201
O   O43       1.0  0.38290  0.56430  0.27233  1.0000 -0.6576234201
O   O44       1.0  0.43570  0.81860  0.27233  1.0000 -0.6576234201
O   O45       1.0  0.18140  0.61710  0.27233  1.0000 -0.6576234201
O   O46       1.0  0.56430  0.38290  0.22767  1.0000 -0.6576234201
O   O47       1.0  0.18140  0.56430  0.77233  1.0000 -0.6576234201
O   O48       1.0  0.38290  0.81860  0.77233  1.0000 -0.6576234201
