# DDEC6 charges by PACMAN v1.1 (https://github.com/mtap-research/PACMAN-charge/)
data_2003[Cu][kdd]3[FSR]1
_chemical_formula_sum              "Cu2 H16 C24 N4 O8"
_cell_length_a       12.7785
_cell_length_b       12.7785
_cell_length_c       11.019
_cell_angle_alpha    88.3357
_cell_angle_beta     91.6643
_cell_angle_gamma    22.4774

_symmetry_space_group_name_H-M    "P 1"
_symmetry_Int_Tables_number       1

loop_
  _symmetry_equiv_pos_as_xyz
  'x, y, z'

loop_
  _atom_site_type_symbol
  _atom_site_label
  _atom_site_symmetry_multiplicity
  _atom_site_fract_x
  _atom_site_fract_y
  _atom_site_fract_z
  _atom_site_occupancy
  _atom_site_charge
Cu  Cu1       1.0  0.59929  0.17393  0.69550  1.0000 0.779141833
Cu  Cu2       1.0  0.82607  0.40071  0.19550  1.0000 0.779141833
H   H1        1.0  0.72180  0.40620  0.48890  1.0000 0.137445026
H   H2        1.0  0.59380  0.27820  0.98890  1.0000 0.137445026
H   H3        1.0  0.83010  0.16910  0.62570  1.0000 0.1118568923
H   H4        1.0  0.83090  0.16990  0.12570  1.0000 0.1118568923
H   H5        1.0  0.13970  0.66610  0.50550  1.0000 0.1221257121
H   H6        1.0  0.33390  0.86030  0.00550  1.0000 0.1221257121
H   H7        1.0  0.00280  0.93020  0.37250  1.0000 0.137445026
H   H8        1.0  0.06980  0.99720  0.87250  1.0000 0.137445026
H   H9        1.0  0.52860  0.98400  0.03990  1.0000 0.137445026
H   H10       1.0  0.01600  0.47140  0.53990  1.0000 0.137445026
H   H11       1.0  0.45910  0.20210  0.93040  1.0000 0.1118568923
H   H12       1.0  0.79790  0.54090  0.43040  1.0000 0.1118568923
H   H13       1.0  0.93630  0.67330  0.69700  1.0000 0.1118568923
H   H14       1.0  0.32670  0.06370  0.19700  1.0000 0.1118568923
H   H15       1.0  0.01060  0.44460  0.79800  1.0000 0.137445026
H   H16       1.0  0.55540  0.98940  0.29800  1.0000 0.137445026
C   C1        1.0  0.26913  0.86293  0.32670  1.0000 0.5585518376
C   C2        1.0  0.13707  0.73087  0.82670  1.0000 0.5585518376
C   C3        1.0  0.34948  0.69628  0.41340  1.0000 0.0267174587
C   C4        1.0  0.30372  0.65052  0.91340  1.0000 0.0267174587
C   C5        1.0  0.59868  0.46468  0.49130  1.0000 -0.1531686141
C   C6        1.0  0.53532  0.40132  0.99130  1.0000 -0.1531686141
C   C7        1.0  0.66404  0.32104  0.57250  1.0000 0.0708979693
C   C8        1.0  0.67896  0.33596  0.07250  1.0000 0.0708979693
C   C9        1.0  0.25719  0.61459  0.50290  1.0000 0.0982158975
C   C10       1.0  0.38541  0.74281  0.00290  1.0000 0.0982158975
C   C11       1.0  0.17455  0.77295  0.42160  1.0000 -0.1585007413
C   C12       1.0  0.22705  0.82545  0.92160  1.0000 -0.1585007413
C   C13       1.0  0.82809  0.53769  0.99980  1.0000 0.5355357424
C   C14       1.0  0.46231  0.17191  0.49980  1.0000 0.5355357424
C   C15       1.0  0.77382  0.69182  0.93100  1.0000 0.0411856444
C   C16       1.0  0.30818  0.22618  0.43100  1.0000 0.0411856444
C   C17       1.0  0.61113  0.91873  0.96980  1.0000 -0.1531686141
C   C18       1.0  0.08127  0.38887  0.46980  1.0000 -0.1531686141
C   C19       1.0  0.57265  0.04685  0.90380  1.0000 0.0708979693
C   C20       1.0  0.95315  0.42735  0.40380  1.0000 0.0708979693
C   C21       1.0  0.85182  0.73722  0.76600  1.0000 0.0851198182
C   C22       1.0  0.26278  0.14818  0.26600  1.0000 0.0851198182
C   C23       1.0  0.89830  0.59810  0.82640  1.0000 -0.1585007413
C   C24       1.0  0.40190  0.10170  0.32640  1.0000 -0.1585007413
N   N1        1.0  0.49810  0.39070  0.57810  1.0000 -0.2275900646
N   N2        1.0  0.60930  0.50190  0.07810  1.0000 -0.2275900646
N   N3        1.0  0.68839  0.96239  0.80340  1.0000 -0.2171658083
N   N4        1.0  0.03761  0.31161  0.30340  1.0000 -0.2171658083
O   O1        1.0  0.01091  0.11071  0.28990  1.0000 -0.5536326274
O   O2        1.0  0.88929  0.98909  0.78990  1.0000 -0.5536326274
O   O3        1.0  0.45246  0.75246  0.29880  1.0000 -0.5656121477
O   O4        1.0  0.24754  0.54754  0.79880  1.0000 -0.5656121477
O   O5        1.0  0.69779  0.64399  0.09030  1.0000 -0.5327686771
O   O6        1.0  0.35601  0.30221  0.59030  1.0000 -0.5327686771
O   O7        1.0  0.99964  0.31784  0.96910  1.0000 -0.5536326274
O   O8        1.0  0.68216  0.00036  0.46910  1.0000 -0.5536326274
