# DDEC6 charges by PACMAN v1.1 (https://github.com/mtap-research/PACMAN-charge/)
data_2003[Zn][llj]3[FSR]1
_chemical_formula_sum              "Zn16 H32 C72 O56"
_cell_length_a       16.3235
_cell_length_b       16.3235
_cell_length_c       11.6695
_cell_angle_alpha    90
_cell_angle_beta     90
_cell_angle_gamma    90

_symmetry_space_group_name_H-M    "P 1"
_symmetry_Int_Tables_number       1

loop_
  _symmetry_equiv_pos_as_xyz
  'x, y, z'

loop_
  _atom_site_type_symbol
  _atom_site_label
  _atom_site_symmetry_multiplicity
  _atom_site_fract_x
  _atom_site_fract_y
  _atom_site_fract_z
  _atom_site_occupancy
  _atom_site_charge
Zn  Zn1       1.0  0.65257  0.61390  0.86439  1.0000 0.9609165982
Zn  Zn2       1.0  0.61390  0.34743  0.86439  1.0000 0.9609165982
Zn  Zn3       1.0  0.38610  0.65257  0.86439  1.0000 0.9609165982
Zn  Zn4       1.0  0.11390  0.15257  0.63561  1.0000 0.9609165982
Zn  Zn5       1.0  0.65257  0.61390  0.13561  1.0000 0.9609165982
Zn  Zn6       1.0  0.84743  0.11390  0.36439  1.0000 0.9609165982
Zn  Zn7       1.0  0.15257  0.88610  0.36439  1.0000 0.9609165982
Zn  Zn8       1.0  0.11390  0.15257  0.36439  1.0000 0.9609165982
Zn  Zn9       1.0  0.34743  0.38610  0.13561  1.0000 0.9609165982
Zn  Zn10      1.0  0.38610  0.65257  0.13561  1.0000 0.9609165982
Zn  Zn11      1.0  0.61390  0.34743  0.13561  1.0000 0.9609165982
Zn  Zn12      1.0  0.88610  0.84743  0.36439  1.0000 0.9609165982
Zn  Zn13      1.0  0.34743  0.38610  0.86439  1.0000 0.9609165982
Zn  Zn14      1.0  0.15257  0.88610  0.63561  1.0000 0.9609165982
Zn  Zn15      1.0  0.84743  0.11390  0.63561  1.0000 0.9609165982
Zn  Zn16      1.0  0.88610  0.84743  0.63561  1.0000 0.9609165982
H   H1        1.0  0.59900  0.51700  0.00000  1.0000 0.3758629606
H   H2        1.0  0.51700  0.40100  0.00000  1.0000 0.3758629606
H   H3        1.0  0.48300  0.59900  0.00000  1.0000 0.3758629606
H   H4        1.0  0.01700  0.09900  0.50000  1.0000 0.3758629606
H   H5        1.0  0.90100  0.01700  0.50000  1.0000 0.3758629606
H   H6        1.0  0.09900  0.98300  0.50000  1.0000 0.3758629606
H   H7        1.0  0.40100  0.48300  0.00000  1.0000 0.3758629606
H   H8        1.0  0.98300  0.90100  0.50000  1.0000 0.3758629606
H   H9        1.0  0.76000  0.84800  0.82800  1.0000 0.131696144
H   H10       1.0  0.84800  0.24000  0.82800  1.0000 0.131696144
H   H11       1.0  0.15200  0.76000  0.82800  1.0000 0.131696144
H   H12       1.0  0.34800  0.26000  0.67200  1.0000 0.131696144
H   H13       1.0  0.76000  0.84800  0.17200  1.0000 0.131696144
H   H14       1.0  0.74000  0.34800  0.32800  1.0000 0.131696144
H   H15       1.0  0.26000  0.65200  0.32800  1.0000 0.131696144
H   H16       1.0  0.34800  0.26000  0.32800  1.0000 0.131696144
H   H17       1.0  0.24000  0.15200  0.17200  1.0000 0.131696144
H   H18       1.0  0.15200  0.76000  0.17200  1.0000 0.131696144
H   H19       1.0  0.84800  0.24000  0.17200  1.0000 0.131696144
H   H20       1.0  0.65200  0.74000  0.32800  1.0000 0.131696144
H   H21       1.0  0.24000  0.15200  0.82800  1.0000 0.131696144
H   H22       1.0  0.26000  0.65200  0.67200  1.0000 0.131696144
H   H23       1.0  0.74000  0.34800  0.67200  1.0000 0.131696144
H   H24       1.0  0.65200  0.74000  0.67200  1.0000 0.131696144
H   H25       1.0  0.82900  0.05000  0.00000  1.0000 0.1233539478
H   H26       1.0  0.05000  0.17100  0.00000  1.0000 0.1233539478
H   H27       1.0  0.95000  0.82900  0.00000  1.0000 0.1233539478
H   H28       1.0  0.55000  0.32900  0.50000  1.0000 0.1233539478
H   H29       1.0  0.67100  0.55000  0.50000  1.0000 0.1233539478
H   H30       1.0  0.32900  0.45000  0.50000  1.0000 0.1233539478
H   H31       1.0  0.17100  0.95000  0.00000  1.0000 0.1233539478
H   H32       1.0  0.45000  0.67100  0.50000  1.0000 0.1233539478
C   C1        1.0  0.75040  0.83580  0.00000  1.0000 -0.0298969125
C   C2        1.0  0.83580  0.24960  0.00000  1.0000 -0.0298969125
C   C3        1.0  0.16420  0.75040  0.00000  1.0000 -0.0298969125
C   C4        1.0  0.33580  0.25040  0.50000  1.0000 -0.0298969125
C   C5        1.0  0.74960  0.33580  0.50000  1.0000 -0.0298969125
C   C6        1.0  0.25040  0.66420  0.50000  1.0000 -0.0298969125
C   C7        1.0  0.24960  0.16420  0.00000  1.0000 -0.0298969125
C   C8        1.0  0.66420  0.74960  0.50000  1.0000 -0.0298969125
C   C9        1.0  0.76720  0.87500  0.89720  1.0000 -0.0997472909
C   C10       1.0  0.87500  0.23280  0.89720  1.0000 -0.0997472909
C   C11       1.0  0.12500  0.76720  0.89720  1.0000 -0.0997472909
C   C12       1.0  0.37500  0.26720  0.60280  1.0000 -0.0997472909
C   C13       1.0  0.76720  0.87500  0.10280  1.0000 -0.0997472909
C   C14       1.0  0.73280  0.37500  0.39720  1.0000 -0.0997472909
C   C15       1.0  0.26720  0.62500  0.39720  1.0000 -0.0997472909
C   C16       1.0  0.37500  0.26720  0.39720  1.0000 -0.0997472909
C   C17       1.0  0.23280  0.12500  0.10280  1.0000 -0.0997472909
C   C18       1.0  0.12500  0.76720  0.10280  1.0000 -0.0997472909
C   C19       1.0  0.87500  0.23280  0.10280  1.0000 -0.0997472909
C   C20       1.0  0.62500  0.73280  0.39720  1.0000 -0.0997472909
C   C21       1.0  0.23280  0.12500  0.89720  1.0000 -0.0997472909
C   C22       1.0  0.26720  0.62500  0.60280  1.0000 -0.0997472909
C   C23       1.0  0.73280  0.37500  0.60280  1.0000 -0.0997472909
C   C24       1.0  0.62500  0.73280  0.60280  1.0000 -0.0997472909
C   C25       1.0  0.79720  0.95470  0.89650  1.0000 -0.0249349541
C   C26       1.0  0.95470  0.20280  0.89650  1.0000 -0.0249349541
C   C27       1.0  0.04530  0.79720  0.89650  1.0000 -0.0298969125
C   C28       1.0  0.45470  0.29720  0.60350  1.0000 -0.0298969125
C   C29       1.0  0.79720  0.95470  0.10350  1.0000 -0.0249349541
C   C30       1.0  0.70280  0.45470  0.39650  1.0000 -0.0249349541
C   C31       1.0  0.29720  0.54530  0.39650  1.0000 -0.0298969125
C   C32       1.0  0.45470  0.29720  0.39650  1.0000 -0.0298969125
C   C33       1.0  0.20280  0.04530  0.10350  1.0000 -0.0249349541
C   C34       1.0  0.04530  0.79720  0.10350  1.0000 -0.0249349541
C   C35       1.0  0.95470  0.20280  0.10350  1.0000 -0.0249349541
C   C36       1.0  0.54530  0.70280  0.39650  1.0000 -0.0249349541
C   C37       1.0  0.20280  0.04530  0.89650  1.0000 -0.0249349541
C   C38       1.0  0.29720  0.54530  0.60350  1.0000 -0.0298969125
C   C39       1.0  0.70280  0.45470  0.60350  1.0000 -0.0249349541
C   C40       1.0  0.54530  0.70280  0.60350  1.0000 -0.0249349541
C   C41       1.0  0.81020  0.99520  0.00000  1.0000 -0.1054742961
C   C42       1.0  0.99520  0.18980  0.00000  1.0000 -0.1054742961
C   C43       1.0  0.00480  0.81020  0.00000  1.0000 -0.0997472909
C   C44       1.0  0.49520  0.31020  0.50000  1.0000 -0.0997472909
C   C45       1.0  0.68980  0.49520  0.50000  1.0000 -0.1054742961
C   C46       1.0  0.31020  0.50480  0.50000  1.0000 -0.1054742961
C   C47       1.0  0.18980  0.00480  0.00000  1.0000 -0.0997472909
C   C48       1.0  0.50480  0.68980  0.50000  1.0000 -0.1054742961
C   C49       1.0  0.71470  0.75160  0.00000  1.0000 0.6045431838
C   C50       1.0  0.75160  0.28530  0.00000  1.0000 0.6045431838
C   C51       1.0  0.24840  0.71470  0.00000  1.0000 0.6045431838
C   C52       1.0  0.25160  0.21470  0.50000  1.0000 0.6045431838
C   C53       1.0  0.78530  0.25160  0.50000  1.0000 0.6045431838
C   C54       1.0  0.21470  0.74840  0.50000  1.0000 0.6045431838
C   C55       1.0  0.28530  0.24840  0.00000  1.0000 0.6045431838
C   C56       1.0  0.74840  0.78530  0.50000  1.0000 0.6045431838
C   C57       1.0  0.81530  0.99740  0.78570  1.0000 0.5804211692
C   C58       1.0  0.99740  0.18470  0.78570  1.0000 0.5804211692
C   C59       1.0  0.00260  0.81530  0.78570  1.0000 0.5804211692
C   C60       1.0  0.49740  0.31530  0.71430  1.0000 0.5804211692
C   C61       1.0  0.81530  0.99740  0.21430  1.0000 0.5804211692
C   C62       1.0  0.68470  0.49740  0.28570  1.0000 0.5804211692
C   C63       1.0  0.31530  0.50260  0.28570  1.0000 0.5804211692
C   C64       1.0  0.49740  0.31530  0.28570  1.0000 0.5804211692
C   C65       1.0  0.18470  0.00260  0.21430  1.0000 0.5804211692
C   C66       1.0  0.00260  0.81530  0.21430  1.0000 0.5804211692
C   C67       1.0  0.99740  0.18470  0.21430  1.0000 0.5804211692
C   C68       1.0  0.50260  0.68470  0.28570  1.0000 0.5804211692
C   C69       1.0  0.18470  0.00260  0.78570  1.0000 0.5804211692
C   C70       1.0  0.31530  0.50260  0.71430  1.0000 0.5804211692
C   C71       1.0  0.68470  0.49740  0.71430  1.0000 0.5804211692
C   C72       1.0  0.50260  0.68470  0.71430  1.0000 0.5804211692
O   O1        1.0  0.60450  0.56900  0.00000  1.0000 -0.8428886786
O   O2        1.0  0.56900  0.39550  0.00000  1.0000 -0.8428886786
O   O3        1.0  0.43100  0.60450  0.00000  1.0000 -0.8428886786
O   O4        1.0  0.06900  0.10450  0.50000  1.0000 -0.8428886786
O   O5        1.0  0.89550  0.06900  0.50000  1.0000 -0.8428886786
O   O6        1.0  0.10450  0.93100  0.50000  1.0000 -0.8428886786
O   O7        1.0  0.39550  0.43100  0.00000  1.0000 -0.8428886786
O   O8        1.0  0.93100  0.89550  0.50000  1.0000 -0.8428886786
O   O9        1.0  0.69990  0.72010  0.90430  1.0000 -0.5398907318
O   O10       1.0  0.72010  0.30010  0.90430  1.0000 -0.5398907318
O   O11       1.0  0.27990  0.69990  0.90430  1.0000 -0.5398907318
O   O12       1.0  0.22010  0.19990  0.59570  1.0000 -0.5398907318
O   O13       1.0  0.69990  0.72010  0.09570  1.0000 -0.5398907318
O   O14       1.0  0.80010  0.22010  0.40430  1.0000 -0.5398907318
O   O15       1.0  0.19990  0.77990  0.40430  1.0000 -0.5398907318
O   O16       1.0  0.22010  0.19990  0.40430  1.0000 -0.5398907318
O   O17       1.0  0.30010  0.27990  0.09570  1.0000 -0.5398907318
O   O18       1.0  0.27990  0.69990  0.09570  1.0000 -0.5398907318
O   O19       1.0  0.72010  0.30010  0.09570  1.0000 -0.5398907318
O   O20       1.0  0.77990  0.80010  0.40430  1.0000 -0.5398907318
O   O21       1.0  0.30010  0.27990  0.90430  1.0000 -0.5398907318
O   O22       1.0  0.19990  0.77990  0.59570  1.0000 -0.5398907318
O   O23       1.0  0.80010  0.22010  0.59570  1.0000 -0.5398907318
O   O24       1.0  0.77990  0.80010  0.59570  1.0000 -0.5398907318
O   O25       1.0  0.83410  0.95780  0.69890  1.0000 -0.551416102
O   O26       1.0  0.95780  0.16590  0.69890  1.0000 -0.551416102
O   O27       1.0  0.04220  0.83410  0.69890  1.0000 -0.551416102
O   O28       1.0  0.45780  0.33410  0.80110  1.0000 -0.551416102
O   O29       1.0  0.83410  0.95780  0.30110  1.0000 -0.551416102
O   O30       1.0  0.66590  0.45780  0.19890  1.0000 -0.551416102
O   O31       1.0  0.33410  0.54220  0.19890  1.0000 -0.551416102
O   O32       1.0  0.45780  0.33410  0.19890  1.0000 -0.551416102
O   O33       1.0  0.16590  0.04220  0.30110  1.0000 -0.551416102
O   O34       1.0  0.04220  0.83410  0.30110  1.0000 -0.551416102
O   O35       1.0  0.95780  0.16590  0.30110  1.0000 -0.551416102
O   O36       1.0  0.54220  0.66590  0.19890  1.0000 -0.551416102
O   O37       1.0  0.16590  0.04220  0.69890  1.0000 -0.551416102
O   O38       1.0  0.33410  0.54220  0.80110  1.0000 -0.551416102
O   O39       1.0  0.66590  0.45780  0.80110  1.0000 -0.551416102
O   O40       1.0  0.54220  0.66590  0.80110  1.0000 -0.551416102
O   O41       1.0  0.81010  0.07430  0.78460  1.0000 -0.5193181365
O   O42       1.0  0.07430  0.18990  0.78460  1.0000 -0.5193181365
O   O43       1.0  0.92570  0.81010  0.78460  1.0000 -0.5193181365
O   O44       1.0  0.57430  0.31010  0.71540  1.0000 -0.5193181365
O   O45       1.0  0.81010  0.07430  0.21540  1.0000 -0.5193181365
O   O46       1.0  0.68990  0.57430  0.28460  1.0000 -0.5193181365
O   O47       1.0  0.31010  0.42570  0.28460  1.0000 -0.5193181365
O   O48       1.0  0.57430  0.31010  0.28460  1.0000 -0.5193181365
O   O49       1.0  0.18990  0.92570  0.21540  1.0000 -0.5193181365
O   O50       1.0  0.92570  0.81010  0.21540  1.0000 -0.5193181365
O   O51       1.0  0.07430  0.18990  0.21540  1.0000 -0.5193181365
O   O52       1.0  0.42570  0.68990  0.28460  1.0000 -0.5193181365
O   O53       1.0  0.18990  0.92570  0.78460  1.0000 -0.5193181365
O   O54       1.0  0.31010  0.42570  0.71540  1.0000 -0.5193181365
O   O55       1.0  0.68990  0.57430  0.71540  1.0000 -0.5193181365
O   O56       1.0  0.42570  0.68990  0.71540  1.0000 -0.5193181365
