# DDEC6 charges by PACMAN v1.1 (https://github.com/mtap-research/PACMAN-charge/)
data_2003[Zn][usf]3[FSR]1
_chemical_formula_sum              "Zn12 H132 C204 N12 O48"
_cell_length_a       18.4914
_cell_length_b       18.4914
_cell_length_c       18.4914
_cell_angle_alpha    109.703
_cell_angle_beta     109.703
_cell_angle_gamma    109.703

_symmetry_space_group_name_H-M    "P 1"
_symmetry_Int_Tables_number       1

loop_
  _symmetry_equiv_pos_as_xyz
  'x, y, z'

loop_
  _atom_site_type_symbol
  _atom_site_label
  _atom_site_symmetry_multiplicity
  _atom_site_fract_x
  _atom_site_fract_y
  _atom_site_fract_z
  _atom_site_occupancy
  _atom_site_charge
Zn  Zn1       1.0  0.55982  0.48581  0.06573  1.0000 0.8442891319
Zn  Zn2       1.0  0.48581  0.06573  0.55982  1.0000 0.8442891319
Zn  Zn3       1.0  0.06573  0.55982  0.48581  1.0000 0.8442891319
Zn  Zn4       1.0  0.94018  0.43427  0.01419  1.0000 0.8442891319
Zn  Zn5       1.0  0.01419  0.94018  0.43427  1.0000 0.8442891319
Zn  Zn6       1.0  0.43427  0.01419  0.94018  1.0000 0.8442891319
Zn  Zn7       1.0  0.44018  0.51419  0.93427  1.0000 0.8442891319
Zn  Zn8       1.0  0.51419  0.93427  0.44018  1.0000 0.8442891319
Zn  Zn9       1.0  0.93427  0.44018  0.51419  1.0000 0.8442891319
Zn  Zn10      1.0  0.05982  0.56573  0.98581  1.0000 0.8442891319
Zn  Zn11      1.0  0.98581  0.05982  0.56573  1.0000 0.8442891319
Zn  Zn12      1.0  0.56573  0.98581  0.05982  1.0000 0.8442891319
H   H1        1.0  0.49600  0.21690  0.86800  1.0000 0.119386672
H   H2        1.0  0.21690  0.86800  0.49600  1.0000 0.119386672
H   H3        1.0  0.86800  0.49600  0.21690  1.0000 0.119386672
H   H4        1.0  0.00400  0.63200  0.28310  1.0000 0.119386672
H   H5        1.0  0.28310  0.00400  0.63200  1.0000 0.119386672
H   H6        1.0  0.63200  0.28310  0.00400  1.0000 0.119386672
H   H7        1.0  0.50400  0.78310  0.13200  1.0000 0.119386672
H   H8        1.0  0.78310  0.13200  0.50400  1.0000 0.119386672
H   H9        1.0  0.13200  0.50400  0.78310  1.0000 0.119386672
H   H10       1.0  0.99600  0.36800  0.71690  1.0000 0.119386672
H   H11       1.0  0.71690  0.99600  0.36800  1.0000 0.119386672
H   H12       1.0  0.36800  0.71690  0.99600  1.0000 0.119386672
H   H13       1.0  0.27350  0.22650  0.75000  1.0000 0.119386672
H   H14       1.0  0.22650  0.75000  0.27350  1.0000 0.119386672
H   H15       1.0  0.75000  0.27350  0.22650  1.0000 0.119386672
H   H16       1.0  0.72650  0.77350  0.25000  1.0000 0.119386672
H   H17       1.0  0.77350  0.25000  0.72650  1.0000 0.119386672
H   H18       1.0  0.25000  0.72650  0.77350  1.0000 0.119386672
H   H19       1.0  0.42810  0.07190  0.75000  1.0000 0.119386672
H   H20       1.0  0.07190  0.75000  0.42810  1.0000 0.119386672
H   H21       1.0  0.75000  0.42810  0.07190  1.0000 0.119386672
H   H22       1.0  0.57190  0.92810  0.25000  1.0000 0.119386672
H   H23       1.0  0.92810  0.25000  0.57190  1.0000 0.119386672
H   H24       1.0  0.25000  0.57190  0.92810  1.0000 0.119386672
H   H25       1.0  0.75000  0.51795  0.98205  1.0000 0.119386672
H   H26       1.0  0.51795  0.98205  0.75000  1.0000 0.119386672
H   H27       1.0  0.98205  0.75000  0.51795  1.0000 0.119386672
H   H28       1.0  0.25000  0.48205  0.01795  1.0000 0.119386672
H   H29       1.0  0.48205  0.01795  0.25000  1.0000 0.119386672
H   H30       1.0  0.01795  0.25000  0.48205  1.0000 0.119386672
H   H31       1.0  0.63980  0.63280  0.86540  1.0000 0.119386672
H   H32       1.0  0.63280  0.86540  0.63980  1.0000 0.119386672
H   H33       1.0  0.86540  0.63980  0.63280  1.0000 0.119386672
H   H34       1.0  0.86020  0.63460  0.86720  1.0000 0.119386672
H   H35       1.0  0.86720  0.86020  0.63460  1.0000 0.119386672
H   H36       1.0  0.63460  0.86720  0.86020  1.0000 0.119386672
H   H37       1.0  0.36020  0.36720  0.13460  1.0000 0.119386672
H   H38       1.0  0.36720  0.13460  0.36020  1.0000 0.119386672
H   H39       1.0  0.13460  0.36020  0.36720  1.0000 0.119386672
H   H40       1.0  0.13980  0.36540  0.13280  1.0000 0.119386672
H   H41       1.0  0.13280  0.13980  0.36540  1.0000 0.119386672
H   H42       1.0  0.36540  0.13280  0.13980  1.0000 0.119386672
H   H43       1.0  0.75000  0.67240  0.82760  1.0000 0.119386672
H   H44       1.0  0.67240  0.82760  0.75000  1.0000 0.119386672
H   H45       1.0  0.82760  0.75000  0.67240  1.0000 0.119386672
H   H46       1.0  0.25000  0.32760  0.17240  1.0000 0.119386672
H   H47       1.0  0.32760  0.17240  0.25000  1.0000 0.119386672
H   H48       1.0  0.17240  0.25000  0.32760  1.0000 0.119386672
H   H49       1.0  0.58070  0.27640  0.28660  1.0000 0.1080707158
H   H50       1.0  0.27640  0.28660  0.58070  1.0000 0.1080707158
H   H51       1.0  0.28660  0.58070  0.27640  1.0000 0.1080707158
H   H52       1.0  0.91930  0.21340  0.22360  1.0000 0.1080707158
H   H53       1.0  0.22360  0.91930  0.21340  1.0000 0.1080707158
H   H54       1.0  0.21340  0.22360  0.91930  1.0000 0.1080707158
H   H55       1.0  0.41930  0.72360  0.71340  1.0000 0.1080707158
H   H56       1.0  0.72360  0.71340  0.41930  1.0000 0.1080707158
H   H57       1.0  0.71340  0.41930  0.72360  1.0000 0.1080707158
H   H58       1.0  0.08070  0.78660  0.77640  1.0000 0.1080707158
H   H59       1.0  0.77640  0.08070  0.78660  1.0000 0.1080707158
H   H60       1.0  0.78660  0.77640  0.08070  1.0000 0.1080707158
H   H61       1.0  0.81010  0.56420  0.40930  1.0000 0.119386672
H   H62       1.0  0.56420  0.40930  0.81010  1.0000 0.119386672
H   H63       1.0  0.40930  0.81010  0.56420  1.0000 0.119386672
H   H64       1.0  0.68990  0.09070  0.93580  1.0000 0.119386672
H   H65       1.0  0.93580  0.68990  0.09070  1.0000 0.119386672
H   H66       1.0  0.09070  0.93580  0.68990  1.0000 0.119386672
H   H67       1.0  0.18990  0.43580  0.59070  1.0000 0.119386672
H   H68       1.0  0.43580  0.59070  0.18990  1.0000 0.119386672
H   H69       1.0  0.59070  0.18990  0.43580  1.0000 0.119386672
H   H70       1.0  0.31010  0.90930  0.06420  1.0000 0.119386672
H   H71       1.0  0.06420  0.31010  0.90930  1.0000 0.119386672
H   H72       1.0  0.90930  0.06420  0.31010  1.0000 0.119386672
H   H73       1.0  0.83880  0.66210  0.35680  1.0000 0.129661101
H   H74       1.0  0.66210  0.35680  0.83880  1.0000 0.129661101
H   H75       1.0  0.35680  0.83880  0.66210  1.0000 0.129661101
H   H76       1.0  0.66120  0.14320  0.83790  1.0000 0.129661101
H   H77       1.0  0.83790  0.66120  0.14320  1.0000 0.129661101
H   H78       1.0  0.14320  0.83790  0.66120  1.0000 0.129661101
H   H79       1.0  0.16120  0.33790  0.64320  1.0000 0.129661101
H   H80       1.0  0.33790  0.64320  0.16120  1.0000 0.129661101
H   H81       1.0  0.64320  0.16120  0.33790  1.0000 0.129661101
H   H82       1.0  0.33880  0.85680  0.16210  1.0000 0.129661101
H   H83       1.0  0.16210  0.33880  0.85680  1.0000 0.129661101
H   H84       1.0  0.85680  0.16210  0.33880  1.0000 0.129661101
H   H85       1.0  0.73410  0.62070  0.21460  1.0000 0.1032491852
H   H86       1.0  0.62070  0.21460  0.73410  1.0000 0.1032491852
H   H87       1.0  0.21460  0.73410  0.62070  1.0000 0.1032491852
H   H88       1.0  0.76590  0.28540  0.87930  1.0000 0.1032491852
H   H89       1.0  0.87930  0.76590  0.28540  1.0000 0.1032491852
H   H90       1.0  0.28540  0.87930  0.76590  1.0000 0.1032491852
H   H91       1.0  0.26590  0.37930  0.78540  1.0000 0.1032491852
H   H92       1.0  0.37930  0.78540  0.26590  1.0000 0.1032491852
H   H93       1.0  0.78540  0.26590  0.37930  1.0000 0.1032491852
H   H94       1.0  0.23410  0.71460  0.12070  1.0000 0.1032491852
H   H95       1.0  0.12070  0.23410  0.71460  1.0000 0.1032491852
H   H96       1.0  0.71460  0.12070  0.23410  1.0000 0.1032491852
H   H97       1.0  0.48380  0.23880  0.14210  1.0000 0.1080707158
H   H98       1.0  0.23880  0.14210  0.48380  1.0000 0.1080707158
H   H99       1.0  0.14210  0.48380  0.23880  1.0000 0.1080707158
H   H100      1.0  0.01620  0.35790  0.26120  1.0000 0.1080707158
H   H101      1.0  0.26120  0.01620  0.35790  1.0000 0.1080707158
H   H102      1.0  0.35790  0.26120  0.01620  1.0000 0.1080707158
H   H103      1.0  0.51620  0.76120  0.85790  1.0000 0.1080707158
H   H104      1.0  0.76120  0.85790  0.51620  1.0000 0.1080707158
H   H105      1.0  0.85790  0.51620  0.76120  1.0000 0.1080707158
H   H106      1.0  0.98380  0.64210  0.73880  1.0000 0.1080707158
H   H107      1.0  0.73880  0.98380  0.64210  1.0000 0.1080707158
H   H108      1.0  0.64210  0.73880  0.98380  1.0000 0.1080707158
H   H109      1.0  0.71000  0.41370  0.38120  1.0000 0.129661101
H   H110      1.0  0.41370  0.38120  0.71000  1.0000 0.129661101
H   H111      1.0  0.38120  0.71000  0.41370  1.0000 0.129661101
H   H112      1.0  0.79000  0.11880  0.08630  1.0000 0.129661101
H   H113      1.0  0.08630  0.79000  0.11880  1.0000 0.129661101
H   H114      1.0  0.11880  0.08630  0.79000  1.0000 0.129661101
H   H115      1.0  0.29000  0.58630  0.61880  1.0000 0.129661101
H   H116      1.0  0.58630  0.61880  0.29000  1.0000 0.129661101
H   H117      1.0  0.61880  0.29000  0.58630  1.0000 0.129661101
H   H118      1.0  0.21000  0.88120  0.91370  1.0000 0.129661101
H   H119      1.0  0.91370  0.21000  0.88120  1.0000 0.129661101
H   H120      1.0  0.88120  0.91370  0.21000  1.0000 0.129661101
H   H121      1.0  0.51400  0.33850  0.09260  1.0000 0.129661101
H   H122      1.0  0.33850  0.09260  0.51400  1.0000 0.129661101
H   H123      1.0  0.09260  0.51400  0.33850  1.0000 0.129661101
H   H124      1.0  0.98600  0.40740  0.16150  1.0000 0.129661101
H   H125      1.0  0.16150  0.98600  0.40740  1.0000 0.129661101
H   H126      1.0  0.40740  0.16150  0.98600  1.0000 0.129661101
H   H127      1.0  0.48600  0.66150  0.90740  1.0000 0.129661101
H   H128      1.0  0.66150  0.90740  0.48600  1.0000 0.129661101
H   H129      1.0  0.90740  0.48600  0.66150  1.0000 0.129661101
H   H130      1.0  0.01400  0.59260  0.83850  1.0000 0.129661101
H   H131      1.0  0.83850  0.01400  0.59260  1.0000 0.129661101
H   H132      1.0  0.59260  0.83850  0.01400  1.0000 0.129661101
C   C1        1.0  0.43902  0.33339  0.89024  1.0000 0.5774006376
C   C2        1.0  0.33339  0.89024  0.43902  1.0000 0.5774006376
C   C3        1.0  0.89024  0.43902  0.33339  1.0000 0.5774006376
C   C4        1.0  0.06098  0.60976  0.16661  1.0000 0.5774006376
C   C5        1.0  0.16661  0.06098  0.60976  1.0000 0.5774006376
C   C6        1.0  0.60976  0.16661  0.06098  1.0000 0.5774006376
C   C7        1.0  0.56098  0.66667  0.10976  1.0000 0.5774006376
C   C8        1.0  0.66667  0.10976  0.56098  1.0000 0.5774006376
C   C9        1.0  0.10976  0.56098  0.66667  1.0000 0.5774006376
C   C10       1.0  0.93902  0.39024  0.83339  1.0000 0.5774006376
C   C11       1.0  0.83339  0.93902  0.39024  1.0000 0.5774006376
C   C12       1.0  0.39024  0.83339  0.93902  1.0000 0.5774006376
C   C13       1.0  0.39264  0.23705  0.81852  1.0000 -0.0252108383
C   C14       1.0  0.23705  0.81852  0.39264  1.0000 -0.0252108383
C   C15       1.0  0.81852  0.39264  0.23705  1.0000 -0.0252108383
C   C16       1.0  0.10736  0.68148  0.26295  1.0000 -0.0252108383
C   C17       1.0  0.26295  0.10736  0.68148  1.0000 -0.0252108383
C   C18       1.0  0.68148  0.26295  0.10736  1.0000 -0.0252108383
C   C19       1.0  0.60736  0.76295  0.18148  1.0000 -0.0252108383
C   C20       1.0  0.76295  0.18148  0.60736  1.0000 -0.0252108383
C   C21       1.0  0.18148  0.60736  0.76295  1.0000 -0.0252108383
C   C22       1.0  0.89264  0.31852  0.73705  1.0000 -0.0252108383
C   C23       1.0  0.73705  0.89264  0.31852  1.0000 -0.0252108383
C   C24       1.0  0.31852  0.73705  0.89264  1.0000 -0.0252108383
C   C25       1.0  0.43748  0.18992  0.81967  1.0000 -0.1071974854
C   C26       1.0  0.18992  0.81967  0.43748  1.0000 -0.1071974854
C   C27       1.0  0.81967  0.43748  0.18992  1.0000 -0.1071974854
C   C28       1.0  0.06252  0.68033  0.31008  1.0000 -0.1071974854
C   C29       1.0  0.31008  0.06252  0.68033  1.0000 -0.1071974854
C   C30       1.0  0.68033  0.31008  0.06252  1.0000 -0.1071974854
C   C31       1.0  0.56252  0.81008  0.18033  1.0000 -0.1071974854
C   C32       1.0  0.81008  0.18033  0.56252  1.0000 -0.1071974854
C   C33       1.0  0.18033  0.56252  0.81008  1.0000 -0.1071974854
C   C34       1.0  0.93748  0.31967  0.68992  1.0000 -0.1071974854
C   C35       1.0  0.68992  0.93748  0.31967  1.0000 -0.1071974854
C   C36       1.0  0.31967  0.68992  0.93748  1.0000 -0.1071974854
C   C37       1.0  0.30487  0.19513  0.75000  1.0000 -0.1220206391
C   C38       1.0  0.19513  0.75000  0.30487  1.0000 -0.1220206391
C   C39       1.0  0.75000  0.30487  0.19513  1.0000 -0.1220206391
C   C40       1.0  0.69513  0.80487  0.25000  1.0000 -0.1220206391
C   C41       1.0  0.80487  0.25000  0.69513  1.0000 -0.1220206391
C   C42       1.0  0.25000  0.69513  0.80487  1.0000 -0.1220206391
C   C43       1.0  0.39667  0.10333  0.75000  1.0000 -0.0895603038
C   C44       1.0  0.10333  0.75000  0.39667  1.0000 -0.0895603038
C   C45       1.0  0.75000  0.39667  0.10333  1.0000 -0.0895603038
C   C46       1.0  0.60333  0.89667  0.25000  1.0000 -0.0895603038
C   C47       1.0  0.89667  0.25000  0.60333  1.0000 -0.0895603038
C   C48       1.0  0.25000  0.60333  0.89667  1.0000 -0.0895603038
C   C49       1.0  0.61999  0.55117  0.96009  1.0000 0.5718768715
C   C50       1.0  0.55117  0.96009  0.61999  1.0000 0.5718768715
C   C51       1.0  0.96009  0.61999  0.55117  1.0000 0.5718768715
C   C52       1.0  0.88001  0.53991  0.94883  1.0000 0.5718768715
C   C53       1.0  0.94883  0.88001  0.53991  1.0000 0.5718768715
C   C54       1.0  0.53991  0.94883  0.88001  1.0000 0.5718768715
C   C55       1.0  0.38001  0.44883  0.03991  1.0000 0.5718768715
C   C56       1.0  0.44883  0.03991  0.38001  1.0000 0.5718768715
C   C57       1.0  0.03991  0.38001  0.44883  1.0000 0.5718768715
C   C58       1.0  0.11999  0.46009  0.05117  1.0000 0.5718768715
C   C59       1.0  0.05117  0.11999  0.46009  1.0000 0.5718768715
C   C60       1.0  0.46009  0.05117  0.11999  1.0000 0.5718768715
C   C61       1.0  0.68665  0.57458  0.93065  1.0000 -0.037544002
C   C62       1.0  0.57458  0.93065  0.68665  1.0000 -0.037544002
C   C63       1.0  0.93065  0.68665  0.57458  1.0000 -0.037544002
C   C64       1.0  0.81335  0.56935  0.92542  1.0000 -0.037544002
C   C65       1.0  0.92542  0.81335  0.56935  1.0000 -0.037544002
C   C66       1.0  0.56935  0.92542  0.81335  1.0000 -0.037544002
C   C67       1.0  0.31335  0.42542  0.06935  1.0000 -0.037544002
C   C68       1.0  0.42542  0.06935  0.31335  1.0000 -0.037544002
C   C69       1.0  0.06935  0.31335  0.42542  1.0000 -0.037544002
C   C70       1.0  0.18665  0.43065  0.07458  1.0000 -0.037544002
C   C71       1.0  0.07458  0.18665  0.43065  1.0000 -0.037544002
C   C72       1.0  0.43065  0.07458  0.18665  1.0000 -0.037544002
C   C73       1.0  0.75000  0.54935  0.95065  1.0000 -0.1367834579
C   C74       1.0  0.54935  0.95065  0.75000  1.0000 -0.1367834579
C   C75       1.0  0.95065  0.75000  0.54935  1.0000 -0.1367834579
C   C76       1.0  0.25000  0.45065  0.04935  1.0000 -0.1367834579
C   C77       1.0  0.45065  0.04935  0.25000  1.0000 -0.1367834579
C   C78       1.0  0.04935  0.25000  0.45065  1.0000 -0.1367834579
C   C79       1.0  0.68512  0.61839  0.88240  1.0000 -0.1039668363
C   C80       1.0  0.61839  0.88240  0.68512  1.0000 -0.1039668363
C   C81       1.0  0.88240  0.68512  0.61839  1.0000 -0.1039668363
C   C82       1.0  0.81488  0.61760  0.88161  1.0000 -0.1039668363
C   C83       1.0  0.88161  0.81488  0.61760  1.0000 -0.1039668363
C   C84       1.0  0.61760  0.88161  0.81488  1.0000 -0.1039668363
C   C85       1.0  0.31488  0.38161  0.11760  1.0000 -0.1039668363
C   C86       1.0  0.38161  0.11760  0.31488  1.0000 -0.1039668363
C   C87       1.0  0.11760  0.31488  0.38161  1.0000 -0.1039668363
C   C88       1.0  0.18512  0.38240  0.11839  1.0000 -0.1039668363
C   C89       1.0  0.11839  0.18512  0.38240  1.0000 -0.1039668363
C   C90       1.0  0.38240  0.11839  0.18512  1.0000 -0.1039668363
C   C91       1.0  0.75000  0.64099  0.85900  1.0000 -0.1039668363
C   C92       1.0  0.64099  0.85900  0.75000  1.0000 -0.1039668363
C   C93       1.0  0.85900  0.75000  0.64099  1.0000 -0.1039668363
C   C94       1.0  0.25000  0.35901  0.14099  1.0000 -0.1039668363
C   C95       1.0  0.35901  0.14099  0.25000  1.0000 -0.1039668363
C   C96       1.0  0.14099  0.25000  0.35901  1.0000 -0.1039668363
C   C97       1.0  0.59448  0.31820  0.26741  1.0000 -0.0895603038
C   C98       1.0  0.31820  0.26741  0.59448  1.0000 -0.0895603038
C   C99       1.0  0.26741  0.59448  0.31820  1.0000 -0.0895603038
C   C100      1.0  0.90552  0.23259  0.18180  1.0000 -0.0895603038
C   C101      1.0  0.18180  0.90552  0.23259  1.0000 -0.0895603038
C   C102      1.0  0.23259  0.18180  0.90552  1.0000 -0.0895603038
C   C103      1.0  0.40552  0.68180  0.73259  1.0000 -0.0895603038
C   C104      1.0  0.68180  0.73259  0.40552  1.0000 -0.0895603038
C   C105      1.0  0.73259  0.40552  0.68180  1.0000 -0.0895603038
C   C106      1.0  0.09448  0.76741  0.81820  1.0000 -0.0895603038
C   C107      1.0  0.81820  0.09448  0.76741  1.0000 -0.0895603038
C   C108      1.0  0.76741  0.81820  0.09448  1.0000 -0.0895603038
C   C109      1.0  0.76880  0.54752  0.35094  1.0000 -0.0740480915
C   C110      1.0  0.54752  0.35094  0.76880  1.0000 -0.0740480915
C   C111      1.0  0.35094  0.76880  0.54752  1.0000 -0.0740480915
C   C112      1.0  0.73120  0.14906  0.95248  1.0000 -0.0740480915
C   C113      1.0  0.95248  0.73120  0.14906  1.0000 -0.0740480915
C   C114      1.0  0.14906  0.95248  0.73120  1.0000 -0.0740480915
C   C115      1.0  0.23120  0.45248  0.64906  1.0000 -0.0740480915
C   C116      1.0  0.45248  0.64906  0.23120  1.0000 -0.0740480915
C   C117      1.0  0.64906  0.23120  0.45248  1.0000 -0.0740480915
C   C118      1.0  0.26880  0.85094  0.04752  1.0000 -0.0740480915
C   C119      1.0  0.04752  0.26880  0.85094  1.0000 -0.0740480915
C   C120      1.0  0.85094  0.04752  0.26880  1.0000 -0.0740480915
C   C121      1.0  0.78550  0.60539  0.32062  1.0000 -0.1547120433
C   C122      1.0  0.60539  0.32062  0.78550  1.0000 -0.1547120433
C   C123      1.0  0.32062  0.78550  0.60539  1.0000 -0.1547120433
C   C124      1.0  0.71450  0.17938  0.89461  1.0000 -0.1547120433
C   C125      1.0  0.89461  0.71450  0.17938  1.0000 -0.1547120433
C   C126      1.0  0.17938  0.89461  0.71450  1.0000 -0.1547120433
C   C127      1.0  0.21450  0.39461  0.67938  1.0000 -0.1547120433
C   C128      1.0  0.39461  0.67938  0.21450  1.0000 -0.1547120433
C   C129      1.0  0.67938  0.21450  0.39461  1.0000 -0.1547120433
C   C130      1.0  0.28550  0.82062  0.10539  1.0000 -0.1547120433
C   C131      1.0  0.10539  0.28550  0.82062  1.0000 -0.1547120433
C   C132      1.0  0.82062  0.10539  0.28550  1.0000 -0.1547120433
C   C133      1.0  0.72254  0.57961  0.23491  1.0000 0.0896021182
C   C134      1.0  0.57961  0.23491  0.72254  1.0000 0.0896021182
C   C135      1.0  0.23491  0.72254  0.57961  1.0000 0.0896021182
C   C136      1.0  0.77746  0.26509  0.92039  1.0000 0.0896021182
C   C137      1.0  0.92039  0.77746  0.26509  1.0000 0.0896021182
C   C138      1.0  0.26509  0.92039  0.77746  1.0000 0.0896021182
C   C139      1.0  0.27746  0.42039  0.76509  1.0000 0.0896021182
C   C140      1.0  0.42039  0.76509  0.27746  1.0000 0.0896021182
C   C141      1.0  0.76509  0.27746  0.42039  1.0000 0.0896021182
C   C142      1.0  0.22254  0.73491  0.07961  1.0000 0.0896021182
C   C143      1.0  0.07961  0.22254  0.73491  1.0000 0.0896021182
C   C144      1.0  0.73491  0.07961  0.22254  1.0000 0.0896021182
C   C145      1.0  0.53629  0.29608  0.18089  1.0000 -0.0646557319
C   C146      1.0  0.29608  0.18089  0.53629  1.0000 -0.0646557319
C   C147      1.0  0.18089  0.53629  0.29608  1.0000 -0.0646557319
C   C148      1.0  0.96371  0.31911  0.20392  1.0000 -0.0646557319
C   C149      1.0  0.20392  0.96371  0.31911  1.0000 -0.0646557319
C   C150      1.0  0.31911  0.20392  0.96371  1.0000 -0.0646557319
C   C151      1.0  0.46371  0.70392  0.81911  1.0000 -0.0646557319
C   C152      1.0  0.70392  0.81911  0.46371  1.0000 -0.0646557319
C   C153      1.0  0.81911  0.46371  0.70392  1.0000 -0.0646557319
C   C154      1.0  0.03629  0.68089  0.79608  1.0000 -0.0646557319
C   C155      1.0  0.79608  0.03629  0.68089  1.0000 -0.0646557319
C   C156      1.0  0.68089  0.79608  0.03629  1.0000 -0.0646557319
C   C157      1.0  0.69054  0.46308  0.29608  1.0000 0.0445268121
C   C158      1.0  0.46308  0.29608  0.69054  1.0000 0.0445268121
C   C159      1.0  0.29608  0.69054  0.46308  1.0000 0.0445268121
C   C160      1.0  0.80946  0.20392  0.03692  1.0000 0.0445268121
C   C161      1.0  0.03692  0.80946  0.20392  1.0000 0.0445268121
C   C162      1.0  0.20392  0.03692  0.80946  1.0000 0.0445268121
C   C163      1.0  0.30946  0.53692  0.70392  1.0000 0.0445268121
C   C164      1.0  0.53692  0.70392  0.30946  1.0000 0.0445268121
C   C165      1.0  0.70392  0.30946  0.53692  1.0000 0.0445268121
C   C166      1.0  0.19054  0.79608  0.96308  1.0000 0.0445268121
C   C167      1.0  0.96308  0.19054  0.79608  1.0000 0.0445268121
C   C168      1.0  0.79608  0.96308  0.19054  1.0000 0.0445268121
C   C169      1.0  0.67032  0.39948  0.32335  1.0000 -0.1220206391
C   C170      1.0  0.39948  0.32335  0.67032  1.0000 -0.1220206391
C   C171      1.0  0.32335  0.67032  0.39948  1.0000 -0.1220206391
C   C172      1.0  0.82968  0.17665  0.10052  1.0000 -0.1220206391
C   C173      1.0  0.10052  0.82968  0.17665  1.0000 -0.1220206391
C   C174      1.0  0.17665  0.10052  0.82968  1.0000 -0.1220206391
C   C175      1.0  0.32968  0.60052  0.67665  1.0000 -0.1220206391
C   C176      1.0  0.60052  0.67665  0.32968  1.0000 -0.1220206391
C   C177      1.0  0.67665  0.32968  0.60052  1.0000 -0.1220206391
C   C178      1.0  0.17032  0.82335  0.89948  1.0000 -0.1220206391
C   C179      1.0  0.89948  0.17032  0.82335  1.0000 -0.1220206391
C   C180      1.0  0.82335  0.89948  0.17032  1.0000 -0.1220206391
C   C181      1.0  0.63059  0.44050  0.20935  1.0000 0.197716357
C   C182      1.0  0.44050  0.20935  0.63059  1.0000 0.197716357
C   C183      1.0  0.20935  0.63059  0.44050  1.0000 0.197716357
C   C184      1.0  0.86941  0.29065  0.05950  1.0000 0.197716357
C   C185      1.0  0.05950  0.86941  0.29065  1.0000 0.197716357
C   C186      1.0  0.29065  0.05950  0.86941  1.0000 0.197716357
C   C187      1.0  0.36941  0.55950  0.79065  1.0000 0.197716357
C   C188      1.0  0.55950  0.79065  0.36941  1.0000 0.197716357
C   C189      1.0  0.79065  0.36941  0.55950  1.0000 0.197716357
C   C190      1.0  0.13059  0.70935  0.94050  1.0000 0.197716357
C   C191      1.0  0.94050  0.13059  0.70935  1.0000 0.197716357
C   C192      1.0  0.70935  0.94050  0.13059  1.0000 0.197716357
C   C193      1.0  0.55359  0.35504  0.15152  1.0000 -0.168992586
C   C194      1.0  0.35504  0.15152  0.55359  1.0000 -0.168992586
C   C195      1.0  0.15152  0.55359  0.35504  1.0000 -0.168992586
C   C196      1.0  0.94641  0.34848  0.14496  1.0000 -0.168992586
C   C197      1.0  0.14496  0.94641  0.34848  1.0000 -0.168992586
C   C198      1.0  0.34848  0.14496  0.94641  1.0000 -0.168992586
C   C199      1.0  0.44641  0.64496  0.84848  1.0000 -0.168992586
C   C200      1.0  0.64496  0.84848  0.44641  1.0000 -0.168992586
C   C201      1.0  0.84848  0.44641  0.64496  1.0000 -0.168992586
C   C202      1.0  0.05359  0.65152  0.85504  1.0000 -0.168992586
C   C203      1.0  0.85504  0.05359  0.65152  1.0000 -0.168992586
C   C204      1.0  0.65152  0.85504  0.05359  1.0000 -0.168992586
N   N1        1.0  0.64770  0.50090  0.18062  1.0000 -0.2732476662
N   N2        1.0  0.50090  0.18062  0.64770  1.0000 -0.2732476662
N   N3        1.0  0.18062  0.64770  0.50090  1.0000 -0.2732476662
N   N4        1.0  0.85230  0.31938  0.99910  1.0000 -0.2732476662
N   N5        1.0  0.99910  0.85230  0.31938  1.0000 -0.2732476662
N   N6        1.0  0.31938  0.99910  0.85230  1.0000 -0.2732476662
N   N7        1.0  0.35230  0.49910  0.81938  1.0000 -0.2732476662
N   N8        1.0  0.49910  0.81938  0.35230  1.0000 -0.2732476662
N   N9        1.0  0.81938  0.35230  0.49910  1.0000 -0.2732476662
N   N10       1.0  0.14770  0.68062  0.00090  1.0000 -0.2732476662
N   N11       1.0  0.00090  0.14770  0.68062  1.0000 -0.2732476662
N   N12       1.0  0.68062  0.00090  0.14770  1.0000 -0.2732476662
O   O1        1.0  0.50313  0.35947  0.96418  1.0000 -0.533904028
O   O2        1.0  0.35947  0.96418  0.50313  1.0000 -0.533904028
O   O3        1.0  0.96418  0.50313  0.35947  1.0000 -0.533904028
O   O4        1.0  0.99687  0.53582  0.14053  1.0000 -0.533904028
O   O5        1.0  0.14053  0.99687  0.53582  1.0000 -0.533904028
O   O6        1.0  0.53582  0.14053  0.99687  1.0000 -0.533904028
O   O7        1.0  0.49687  0.64053  0.03582  1.0000 -0.533904028
O   O8        1.0  0.64053  0.03582  0.49687  1.0000 -0.533904028
O   O9        1.0  0.03582  0.49687  0.64053  1.0000 -0.533904028
O   O10       1.0  0.00313  0.46418  0.85947  1.0000 -0.533904028
O   O11       1.0  0.85947  0.00313  0.46418  1.0000 -0.533904028
O   O12       1.0  0.46418  0.85947  0.00313  1.0000 -0.533904028
O   O13       1.0  0.63902  0.53034  0.01886  1.0000 -0.533904028
O   O14       1.0  0.53034  0.01886  0.63902  1.0000 -0.533904028
O   O15       1.0  0.01886  0.63902  0.53034  1.0000 -0.533904028
O   O16       1.0  0.86098  0.48114  0.96966  1.0000 -0.533904028
O   O17       1.0  0.96966  0.86098  0.48114  1.0000 -0.533904028
O   O18       1.0  0.48114  0.96966  0.86098  1.0000 -0.533904028
O   O19       1.0  0.36098  0.46966  0.98114  1.0000 -0.533904028
O   O20       1.0  0.46966  0.98114  0.36098  1.0000 -0.533904028
O   O21       1.0  0.98114  0.36098  0.46966  1.0000 -0.533904028
O   O22       1.0  0.13902  0.51886  0.03034  1.0000 -0.533904028
O   O23       1.0  0.03034  0.13902  0.51886  1.0000 -0.533904028
O   O24       1.0  0.51886  0.03034  0.13902  1.0000 -0.533904028
O   O25       1.0  0.41068  0.38121  0.87097  1.0000 -0.5731156539
O   O26       1.0  0.38121  0.87097  0.41068  1.0000 -0.5731156539
O   O27       1.0  0.87097  0.41068  0.38121  1.0000 -0.5731156539
O   O28       1.0  0.08932  0.62903  0.11879  1.0000 -0.5731156539
O   O29       1.0  0.11879  0.08932  0.62903  1.0000 -0.5731156539
O   O30       1.0  0.62903  0.11879  0.08932  1.0000 -0.5731156539
O   O31       1.0  0.58932  0.61879  0.12903  1.0000 -0.5731156539
O   O32       1.0  0.61879  0.12903  0.58932  1.0000 -0.5731156539
O   O33       1.0  0.12903  0.58932  0.61879  1.0000 -0.5731156539
O   O34       1.0  0.91068  0.37097  0.88121  1.0000 -0.5731156539
O   O35       1.0  0.88121  0.91068  0.37097  1.0000 -0.5731156539
O   O36       1.0  0.37097  0.88121  0.91068  1.0000 -0.5731156539
O   O37       1.0  0.55012  0.55263  0.92221  1.0000 -0.542473656
O   O38       1.0  0.55263  0.92221  0.55012  1.0000 -0.542473656
O   O39       1.0  0.92221  0.55012  0.55263  1.0000 -0.542473656
O   O40       1.0  0.94988  0.57779  0.94737  1.0000 -0.542473656
O   O41       1.0  0.94737  0.94988  0.57779  1.0000 -0.542473656
O   O42       1.0  0.57779  0.94737  0.94988  1.0000 -0.542473656
O   O43       1.0  0.44988  0.44737  0.07779  1.0000 -0.542473656
O   O44       1.0  0.44737  0.07779  0.44988  1.0000 -0.542473656
O   O45       1.0  0.07779  0.44988  0.44737  1.0000 -0.542473656
O   O46       1.0  0.05012  0.42221  0.05263  1.0000 -0.542473656
O   O47       1.0  0.05263  0.05012  0.42221  1.0000 -0.542473656
O   O48       1.0  0.42221  0.05263  0.05012  1.0000 -0.542473656
