# DDEC6 charges by PACMAN v1.1 (https://github.com/mtap-research/PACMAN-charge/)
data_2004[Zn][nan]3[FSR]1
_chemical_formula_sum              "Zn8 H44 C64 N8 O28"
_cell_length_a       13.6688
_cell_length_b       13.6688
_cell_length_c       18.225
_cell_angle_alpha    88.2702
_cell_angle_beta     91.7298
_cell_angle_gamma    36.4136

_symmetry_space_group_name_H-M    "P 1"
_symmetry_Int_Tables_number       1

loop_
  _symmetry_equiv_pos_as_xyz
  'x, y, z'

loop_
  _atom_site_type_symbol
  _atom_site_label
  _atom_site_symmetry_multiplicity
  _atom_site_fract_x
  _atom_site_fract_y
  _atom_site_fract_z
  _atom_site_occupancy
  _atom_site_charge
Zn  Zn1       1.0  0.37707  0.17629  0.52887  1.0000 0.9074504772
Zn  Zn2       1.0  0.82371  0.62293  0.02887  1.0000 0.9074504772
Zn  Zn3       1.0  0.62293  0.82371  0.47113  1.0000 0.9074504772
Zn  Zn4       1.0  0.17629  0.37707  0.97113  1.0000 0.9074504772
Zn  Zn5       1.0  0.18991  0.13449  0.49164  1.0000 0.8121446768
Zn  Zn6       1.0  0.86551  0.81009  0.99164  1.0000 0.8121446768
Zn  Zn7       1.0  0.81009  0.86551  0.50836  1.0000 0.8121446768
Zn  Zn8       1.0  0.13449  0.18991  0.00836  1.0000 0.8121446768
H   H1        1.0  0.66740  0.94880  0.75930  1.0000 0.1395778804
H   H2        1.0  0.05120  0.33260  0.25930  1.0000 0.1395778804
H   H3        1.0  0.33260  0.05120  0.24070  1.0000 0.1395778804
H   H4        1.0  0.94880  0.66740  0.74070  1.0000 0.1395778804
H   H5        1.0  0.47900  0.87060  0.83660  1.0000 0.1395778804
H   H6        1.0  0.12940  0.52100  0.33660  1.0000 0.1395778804
H   H7        1.0  0.52100  0.12940  0.16340  1.0000 0.1395778804
H   H8        1.0  0.87060  0.47900  0.66340  1.0000 0.1395778804
H   H9        1.0  0.34850  0.03830  0.78630  1.0000 0.1535185078
H   H10       1.0  0.96170  0.65150  0.28630  1.0000 0.1535185078
H   H11       1.0  0.65150  0.96170  0.21370  1.0000 0.1535185078
H   H12       1.0  0.03830  0.34850  0.71370  1.0000 0.1535185078
H   H13       1.0  0.27280  0.73940  0.39320  1.0000 0.1395778804
H   H14       1.0  0.26060  0.72720  0.89320  1.0000 0.1395778804
H   H15       1.0  0.72720  0.26060  0.60680  1.0000 0.1395778804
H   H16       1.0  0.73940  0.27280  0.10680  1.0000 0.1395778804
H   H17       1.0  0.22520  0.94040  0.38730  1.0000 0.1202119119
H   H18       1.0  0.05960  0.77480  0.88730  1.0000 0.1202119119
H   H19       1.0  0.77480  0.05960  0.61270  1.0000 0.1202119119
H   H20       1.0  0.94040  0.22520  0.11270  1.0000 0.1202119119
H   H21       1.0  0.17070  0.98610  0.59510  1.0000 0.1202119119
H   H22       1.0  0.01390  0.82930  0.09510  1.0000 0.1202119119
H   H23       1.0  0.82930  0.01390  0.40490  1.0000 0.1202119119
H   H24       1.0  0.98610  0.17070  0.90490  1.0000 0.1202119119
H   H25       1.0  0.21180  0.78880  0.60580  1.0000 0.1296500029
H   H26       1.0  0.21120  0.78820  0.10580  1.0000 0.1296500029
H   H27       1.0  0.78820  0.21120  0.39420  1.0000 0.1296500029
H   H28       1.0  0.78880  0.21180  0.89420  1.0000 0.1296500029
H   H29       1.0  0.36040  0.52260  0.40810  1.0000 0.1296500029
H   H30       1.0  0.47740  0.63960  0.90810  1.0000 0.1296500029
H   H31       1.0  0.63960  0.47740  0.59190  1.0000 0.1296500029
H   H32       1.0  0.52260  0.36040  0.09190  1.0000 0.1296500029
H   H33       1.0  0.41930  0.31290  0.42350  1.0000 0.1296500029
H   H34       1.0  0.68710  0.58070  0.92350  1.0000 0.1296500029
H   H35       1.0  0.58070  0.68710  0.57650  1.0000 0.1296500029
H   H36       1.0  0.31290  0.41930  0.07650  1.0000 0.1296500029
H   H37       1.0  0.24620  0.44500  0.61270  1.0000 0.1202119119
H   H38       1.0  0.55500  0.75380  0.11270  1.0000 0.1202119119
H   H39       1.0  0.75380  0.55500  0.38730  1.0000 0.1202119119
H   H40       1.0  0.44500  0.24620  0.88730  1.0000 0.1202119119
H   H41       1.0  0.19610  0.64990  0.60510  1.0000 0.1296500029
H   H42       1.0  0.35010  0.80390  0.10510  1.0000 0.1296500029
H   H43       1.0  0.80390  0.35010  0.39490  1.0000 0.1296500029
H   H44       1.0  0.64990  0.19610  0.89490  1.0000 0.1296500029
C   C1        1.0  0.50182  0.01182  0.68115  1.0000 0.6367211738
C   C2        1.0  0.98818  0.49818  0.18115  1.0000 0.6367211738
C   C3        1.0  0.49818  0.98818  0.31885  1.0000 0.6367211738
C   C4        1.0  0.01182  0.50182  0.81885  1.0000 0.6367211738
C   C5        1.0  0.58653  0.96553  0.75763  1.0000 -0.2480450025
C   C6        1.0  0.03447  0.41347  0.25763  1.0000 -0.2480450025
C   C7        1.0  0.41347  0.03447  0.24237  1.0000 -0.2480450025
C   C8        1.0  0.96553  0.58653  0.74237  1.0000 -0.2480450025
C   C9        1.0  0.55904  0.94764  0.81809  1.0000 0.0696870653
C   C10       1.0  0.05236  0.44096  0.31809  1.0000 0.0696870653
C   C11       1.0  0.44096  0.05236  0.18191  1.0000 0.0696870653
C   C12       1.0  0.94764  0.55904  0.68191  1.0000 0.0696870653
C   C13       1.0  0.68052  0.86492  0.88618  1.0000 0.5715123215
C   C14       1.0  0.13508  0.31948  0.38618  1.0000 0.5715123215
C   C15       1.0  0.31948  0.13508  0.11382  1.0000 0.5715123215
C   C16       1.0  0.86492  0.68052  0.61382  1.0000 0.5715123215
C   C17       1.0  0.42729  0.97629  0.82962  1.0000 -0.3605170599
C   C18       1.0  0.02371  0.57271  0.32962  1.0000 -0.3605170599
C   C19       1.0  0.57271  0.02371  0.17038  1.0000 -0.3605170599
C   C20       1.0  0.97629  0.42729  0.67038  1.0000 -0.3605170599
C   C21       1.0  0.33712  0.07232  0.89737  1.0000 0.6516143629
C   C22       1.0  0.92768  0.66288  0.39737  1.0000 0.6516143629
C   C23       1.0  0.66288  0.92768  0.10263  1.0000 0.6516143629
C   C24       1.0  0.07232  0.33712  0.60263  1.0000 0.6516143629
C   C25       1.0  0.25000  0.78960  0.43551  1.0000 -0.2025455063
C   C26       1.0  0.21040  0.75000  0.93551  1.0000 -0.2025455063
C   C27       1.0  0.75000  0.21040  0.56449  1.0000 -0.2025455063
C   C28       1.0  0.78960  0.25000  0.06449  1.0000 -0.2025455063
C   C29       1.0  0.22315  0.90875  0.43243  1.0000 0.0696870653
C   C30       1.0  0.09125  0.77685  0.93243  1.0000 0.0696870653
C   C31       1.0  0.77685  0.09125  0.56757  1.0000 0.0696870653
C   C32       1.0  0.90875  0.22315  0.06757  1.0000 0.0696870653
C   C33       1.0  0.19060  0.93620  0.55329  1.0000 0.0854178747
C   C34       1.0  0.06380  0.80940  0.05329  1.0000 0.0854178747
C   C35       1.0  0.80940  0.06380  0.44671  1.0000 0.0854178747
C   C36       1.0  0.93620  0.19060  0.94671  1.0000 0.0854178747
C   C37       1.0  0.21503  0.81783  0.56001  1.0000 -0.2025455063
C   C38       1.0  0.18217  0.78497  0.06001  1.0000 -0.2025455063
C   C39       1.0  0.78497  0.18217  0.43999  1.0000 -0.2025455063
C   C40       1.0  0.81783  0.21503  0.93999  1.0000 -0.2025455063
C   C41       1.0  0.24389  0.74189  0.50034  1.0000 0.1077892581
C   C42       1.0  0.25811  0.75611  0.00034  1.0000 0.1077892581
C   C43       1.0  0.75611  0.25811  0.49966  1.0000 0.1077892581
C   C44       1.0  0.74189  0.24389  0.99966  1.0000 0.1077892581
C   C45       1.0  0.27584  0.61044  0.50606  1.0000 0.0993415998
C   C46       1.0  0.38956  0.72416  0.00606  1.0000 0.0993415998
C   C47       1.0  0.72416  0.38956  0.49394  1.0000 0.0993415998
C   C48       1.0  0.61044  0.27584  0.99394  1.0000 0.0993415998
C   C49       1.0  0.33904  0.50764  0.45187  1.0000 -0.2085318219
C   C50       1.0  0.49236  0.66096  0.95187  1.0000 -0.2085318219
C   C51       1.0  0.66096  0.49236  0.54813  1.0000 -0.2085318219
C   C52       1.0  0.50764  0.33904  0.04813  1.0000 -0.2085318219
C   C53       1.0  0.37160  0.38320  0.46069  1.0000 0.0993415998
C   C54       1.0  0.61680  0.62840  0.96069  1.0000 0.0993415998
C   C55       1.0  0.62840  0.61680  0.53931  1.0000 0.0993415998
C   C56       1.0  0.38320  0.37160  0.03931  1.0000 0.0993415998
C   C57       1.0  0.27299  0.45859  0.57092  1.0000 0.1202119119
C   C58       1.0  0.54141  0.72701  0.07092  1.0000 0.1202119119
C   C59       1.0  0.72701  0.54141  0.42908  1.0000 0.1202119119
C   C60       1.0  0.45859  0.27299  0.92908  1.0000 0.1202119119
C   C61       1.0  0.24134  0.58354  0.56644  1.0000 -0.2085318219
C   C62       1.0  0.41646  0.75866  0.06644  1.0000 -0.2085318219
C   C63       1.0  0.75866  0.41646  0.43356  1.0000 -0.2085318219
C   C64       1.0  0.58354  0.24134  0.93356  1.0000 -0.2085318219
N   N1        1.0  0.19409  0.98263  0.49090  1.0000 -0.2085318219
N   N2        1.0  0.01737  0.80591  0.99090  1.0000 -0.2085318219
N   N3        1.0  0.80591  0.01737  0.50910  1.0000 -0.2085318219
N   N4        1.0  0.98263  0.19409  0.00910  1.0000 -0.2085318219
N   N5        1.0  0.33767  0.35985  0.52005  1.0000 -0.1909635266
N   N6        1.0  0.64015  0.66233  0.02005  1.0000 -0.1909635266
N   N7        1.0  0.66233  0.64015  0.47995  1.0000 -0.1909635266
N   N8        1.0  0.35985  0.33767  0.97995  1.0000 -0.1909635266
O   O1        1.0  0.45156  0.95976  0.67178  1.0000 -0.5391652485
O   O2        1.0  0.04024  0.54844  0.17178  1.0000 -0.5391652485
O   O3        1.0  0.54844  0.04024  0.32822  1.0000 -0.5391652485
O   O4        1.0  0.95976  0.45156  0.82822  1.0000 -0.5391652485
O   O5        1.0  0.50173  0.08709  0.63411  1.0000 -0.5825395784
O   O6        1.0  0.91291  0.49827  0.13411  1.0000 -0.5825395784
O   O7        1.0  0.49827  0.91291  0.36589  1.0000 -0.5825395784
O   O8        1.0  0.08709  0.50173  0.86589  1.0000 -0.5825395784
O   O9        1.0  0.74782  0.89414  0.89463  1.0000 -0.5323046944
O   O10       1.0  0.10586  0.25218  0.39463  1.0000 -0.5323046944
O   O11       1.0  0.25218  0.10586  0.10537  1.0000 -0.5323046944
O   O12       1.0  0.89414  0.74782  0.60537  1.0000 -0.5323046944
O   O13       1.0  0.70480  0.77418  0.92684  1.0000 -0.4504830068
O   O14       1.0  0.22582  0.29520  0.42684  1.0000 -0.4504830068
O   O15       1.0  0.29520  0.22582  0.07316  1.0000 -0.4504830068
O   O16       1.0  0.77418  0.70480  0.57316  1.0000 -0.4504830068
O   O17       1.0  0.33650  0.15570  0.91929  1.0000 -0.5042495927
O   O18       1.0  0.84430  0.66350  0.41929  1.0000 -0.5042495927
O   O19       1.0  0.66350  0.84430  0.08071  1.0000 -0.5042495927
O   O20       1.0  0.15570  0.33650  0.58071  1.0000 -0.5042495927
O   O21       1.0  0.26562  0.05794  0.92670  1.0000 -0.5391652485
O   O22       1.0  0.94206  0.73438  0.42670  1.0000 -0.5391652485
O   O23       1.0  0.73438  0.94206  0.07330  1.0000 -0.5391652485
O   O24       1.0  0.05794  0.26562  0.57330  1.0000 -0.5391652485
O   O25       1.0  0.41104  0.99562  0.52565  1.0000 -0.704287847
O   O26       1.0  0.00438  0.58896  0.02565  1.0000 -0.704287847
O   O27       1.0  0.58896  0.00438  0.47435  1.0000 -0.704287847
O   O28       1.0  0.99562  0.41104  0.97435  1.0000 -0.704287847
