# DDEC6 charges by PACMAN v1.1 (https://github.com/mtap-research/PACMAN-charge/)
data_2004[Ni][pcu]3[FSR]1
_chemical_formula_sum              "Ni4 H48 C76 N8 O24"
_cell_length_a       11.248
_cell_length_b       16.801
_cell_length_c       14.945
_cell_angle_alpha    90
_cell_angle_beta     103.732
_cell_angle_gamma    90

_symmetry_space_group_name_H-M    "P 1"
_symmetry_Int_Tables_number       1

loop_
  _symmetry_equiv_pos_as_xyz
  'x, y, z'

loop_
  _atom_site_type_symbol
  _atom_site_label
  _atom_site_symmetry_multiplicity
  _atom_site_fract_x
  _atom_site_fract_y
  _atom_site_fract_z
  _atom_site_occupancy
  _atom_site_charge
Ni  Ni1       1.0  0.01458  0.04010  0.86709  1.0000 0.7502524334
Ni  Ni2       1.0  0.98542  0.54010  0.63291  1.0000 0.7502524334
Ni  Ni3       1.0  0.98542  0.95990  0.13291  1.0000 0.7502524334
Ni  Ni4       1.0  0.01458  0.45990  0.36709  1.0000 0.7502524334
H   H1        1.0  0.96920  0.04120  0.34040  1.0000 0.3665558922
H   H2        1.0  0.03080  0.54120  0.15960  1.0000 0.3665558922
H   H3        1.0  0.03080  0.95880  0.65960  1.0000 0.3665558922
H   H4        1.0  0.96920  0.45880  0.84040  1.0000 0.3665558922
H   H5        1.0  0.82720  0.14590  0.92280  1.0000 0.1097497016
H   H6        1.0  0.17280  0.64590  0.57720  1.0000 0.1097497016
H   H7        1.0  0.17280  0.85410  0.07720  1.0000 0.1097497016
H   H8        1.0  0.82720  0.35410  0.42280  1.0000 0.1097497016
H   H9        1.0  0.78840  0.94230  0.79000  1.0000 0.1204142374
H   H10       1.0  0.21160  0.44230  0.71000  1.0000 0.1204142374
H   H11       1.0  0.21160  0.05770  0.21000  1.0000 0.1204142374
H   H12       1.0  0.78840  0.55770  0.29000  1.0000 0.1204142374
H   H13       1.0  0.62570  0.14410  0.93270  1.0000 0.1314441105
H   H14       1.0  0.37430  0.64410  0.56730  1.0000 0.1314441105
H   H15       1.0  0.37430  0.85590  0.06730  1.0000 0.1314441105
H   H16       1.0  0.62570  0.35590  0.43270  1.0000 0.1314441105
H   H17       1.0  0.58380  0.93510  0.79660  1.0000 0.1314441105
H   H18       1.0  0.41620  0.43510  0.70340  1.0000 0.1314441105
H   H19       1.0  0.41620  0.06490  0.20340  1.0000 0.1314441105
H   H20       1.0  0.58380  0.56490  0.29660  1.0000 0.1314441105
H   H21       1.0  0.44840  0.14180  0.93800  1.0000 0.1314441105
H   H22       1.0  0.55160  0.64180  0.56200  1.0000 0.1314441105
H   H23       1.0  0.55160  0.85820  0.06200  1.0000 0.1314441105
H   H24       1.0  0.44840  0.35820  0.43800  1.0000 0.1314441105
H   H25       1.0  0.40650  0.92940  0.81120  1.0000 0.1314441105
H   H26       1.0  0.59350  0.42940  0.68880  1.0000 0.1314441105
H   H27       1.0  0.59350  0.07060  0.18880  1.0000 0.1314441105
H   H28       1.0  0.40650  0.57060  0.31120  1.0000 0.1314441105
H   H29       1.0  0.24380  0.13710  0.94030  1.0000 0.1204142374
H   H30       1.0  0.75620  0.63710  0.55970  1.0000 0.1204142374
H   H31       1.0  0.75620  0.86290  0.05970  1.0000 0.1204142374
H   H32       1.0  0.24380  0.36290  0.44030  1.0000 0.1204142374
H   H33       1.0  0.20070  0.93350  0.81400  1.0000 0.1097497016
H   H34       1.0  0.79930  0.43350  0.68600  1.0000 0.1097497016
H   H35       1.0  0.79930  0.06650  0.18600  1.0000 0.1097497016
H   H36       1.0  0.20070  0.56650  0.31400  1.0000 0.1097497016
H   H37       1.0  0.00910  0.07220  0.56290  1.0000 0.1204142374
H   H38       1.0  0.99090  0.57220  0.93710  1.0000 0.1204142374
H   H39       1.0  0.99090  0.92780  0.43710  1.0000 0.1204142374
H   H40       1.0  0.00910  0.42780  0.06290  1.0000 0.1204142374
H   H41       1.0  0.00130  0.28120  0.69690  1.0000 0.1314441105
H   H42       1.0  0.99870  0.78120  0.80310  1.0000 0.1314441105
H   H43       1.0  0.99870  0.71880  0.30310  1.0000 0.1314441105
H   H44       1.0  0.00130  0.21880  0.19690  1.0000 0.1314441105
H   H45       1.0  0.05040  0.28130  0.43670  1.0000 0.1314441105
H   H46       1.0  0.94960  0.78130  0.06330  1.0000 0.1314441105
H   H47       1.0  0.94960  0.71870  0.56330  1.0000 0.1314441105
H   H48       1.0  0.05040  0.21870  0.93670  1.0000 0.1314441105
C   C1        1.0  0.77730  0.10200  0.89740  1.0000 0.0993867828
C   C2        1.0  0.22270  0.60200  0.60260  1.0000 0.0993867828
C   C3        1.0  0.22270  0.89800  0.10260  1.0000 0.0993867828
C   C4        1.0  0.77730  0.39800  0.39740  1.0000 0.0993867828
C   C5        1.0  0.75510  0.98360  0.82010  1.0000 0.1097497016
C   C6        1.0  0.24490  0.48360  0.67990  1.0000 0.1097497016
C   C7        1.0  0.24490  0.01640  0.17990  1.0000 0.1097497016
C   C8        1.0  0.75510  0.51640  0.32010  1.0000 0.1097497016
C   C9        1.0  0.65730  0.10140  0.90370  1.0000 -0.1999570869
C   C10       1.0  0.34270  0.60140  0.59630  1.0000 -0.1999570869
C   C11       1.0  0.34270  0.89860  0.09630  1.0000 -0.1999570869
C   C12       1.0  0.65730  0.39860  0.40370  1.0000 -0.1999570869
C   C13       1.0  0.63260  0.97880  0.82390  1.0000 -0.1999570869
C   C14       1.0  0.36740  0.47880  0.67610  1.0000 -0.1999570869
C   C15       1.0  0.36740  0.02120  0.17610  1.0000 -0.1941458208
C   C16       1.0  0.63260  0.52120  0.32390  1.0000 -0.1999570869
C   C17       1.0  0.58300  0.03780  0.86720  1.0000 0.0993867828
C   C18       1.0  0.41700  0.53780  0.63280  1.0000 0.0993867828
C   C19       1.0  0.41700  0.96220  0.13280  1.0000 0.0993867828
C   C20       1.0  0.58300  0.46220  0.36720  1.0000 0.0993867828
C   C21       1.0  0.45120  0.03720  0.87140  1.0000 0.1097497016
C   C22       1.0  0.54880  0.53720  0.62860  1.0000 0.1097497016
C   C23       1.0  0.54880  0.96280  0.12860  1.0000 0.1097497016
C   C24       1.0  0.45120  0.46280  0.37140  1.0000 0.1097497016
C   C25       1.0  0.39990  0.09770  0.91110  1.0000 -0.2095228456
C   C26       1.0  0.60010  0.59770  0.58890  1.0000 -0.1999570869
C   C27       1.0  0.60010  0.90230  0.08890  1.0000 -0.1999570869
C   C28       1.0  0.39990  0.40230  0.41110  1.0000 -0.2095228456
C   C29       1.0  0.37520  0.97420  0.83680  1.0000 -0.2095228456
C   C30       1.0  0.62480  0.47420  0.66320  1.0000 -0.2095228456
C   C31       1.0  0.62480  0.02580  0.16320  1.0000 -0.2095228456
C   C32       1.0  0.37520  0.52580  0.33680  1.0000 -0.2095228456
C   C33       1.0  0.27650  0.09450  0.91190  1.0000 0.0993867828
C   C34       1.0  0.72350  0.59450  0.58810  1.0000 0.0944741297
C   C35       1.0  0.72350  0.90550  0.08810  1.0000 0.0944741297
C   C36       1.0  0.27650  0.40550  0.41190  1.0000 0.0993867828
C   C37       1.0  0.25150  0.97690  0.83960  1.0000 0.0993867828
C   C38       1.0  0.74850  0.47690  0.66040  1.0000 0.0993867828
C   C39       1.0  0.74850  0.02310  0.16040  1.0000 0.0993867828
C   C40       1.0  0.25150  0.52310  0.33960  1.0000 0.0993867828
C   C41       1.0  0.02200  0.38400  0.56210  1.0000 0.5555594492
C   C42       1.0  0.97800  0.88400  0.93790  1.0000 0.5555594492
C   C43       1.0  0.97800  0.61600  0.43790  1.0000 0.5555594492
C   C44       1.0  0.02200  0.11600  0.06210  1.0000 0.5555594492
C   C45       1.0  0.00790  0.16910  0.64330  1.0000 -0.0175657456
C   C46       1.0  0.99210  0.66910  0.85670  1.0000 -0.0175657456
C   C47       1.0  0.99210  0.83090  0.35670  1.0000 -0.0175657456
C   C48       1.0  0.00790  0.33090  0.14330  1.0000 -0.0175657456
C   C49       1.0  0.01440  0.12870  0.56420  1.0000 -0.1183217501
C   C50       1.0  0.98560  0.62870  0.93580  1.0000 -0.1183217501
C   C51       1.0  0.98560  0.87130  0.43580  1.0000 -0.1183217501
C   C52       1.0  0.01440  0.37130  0.06420  1.0000 -0.1183217501
C   C53       1.0  0.00950  0.25270  0.64380  1.0000 -0.1055662741
C   C54       1.0  0.99050  0.75270  0.85620  1.0000 -0.1055662741
C   C55       1.0  0.99050  0.74730  0.35620  1.0000 -0.1055662741
C   C56       1.0  0.00950  0.24730  0.14380  1.0000 -0.1055662741
C   C57       1.0  0.02860  0.16960  0.48610  1.0000 -0.0387716514
C   C58       1.0  0.97140  0.66960  0.01390  1.0000 -0.0387716514
C   C59       1.0  0.97140  0.83040  0.51390  1.0000 -0.0387716514
C   C60       1.0  0.02860  0.33040  0.98610  1.0000 -0.0387716514
C   C61       1.0  0.02310  0.29310  0.56590  1.0000 -0.0313060262
C   C62       1.0  0.97690  0.79310  0.93410  1.0000 -0.0313060262
C   C63       1.0  0.97690  0.70690  0.43410  1.0000 -0.0313060262
C   C64       1.0  0.02310  0.20690  0.06590  1.0000 -0.0313060262
C   C65       1.0  0.03630  0.25290  0.48810  1.0000 -0.1340949011
C   C66       1.0  0.96370  0.75290  0.01190  1.0000 -0.1340949011
C   C67       1.0  0.96370  0.74710  0.51190  1.0000 -0.1340949011
C   C68       1.0  0.03630  0.24710  0.98810  1.0000 -0.1340949011
C   C69       1.0  0.03780  0.12660  0.40170  1.0000 0.5405898395
C   C70       1.0  0.96220  0.62660  0.09830  1.0000 0.5405898395
C   C71       1.0  0.96220  0.87340  0.59830  1.0000 0.5405898395
C   C72       1.0  0.03780  0.37340  0.90170  1.0000 0.5405898395
C   C73       1.0  0.00000  0.12350  0.72700  1.0000 0.5405898395
C   C74       1.0  0.00000  0.62350  0.77300  1.0000 0.5405898395
C   C75       1.0  0.00000  0.87650  0.27300  1.0000 0.5405898395
C   C76       1.0  0.00000  0.37650  0.22700  1.0000 0.5405898395
N   N1        1.0  0.82740  0.04400  0.85730  1.0000 -0.1999570869
N   N2        1.0  0.17260  0.54400  0.64270  1.0000 -0.1999570869
N   N3        1.0  0.17260  0.95600  0.14270  1.0000 -0.1999570869
N   N4        1.0  0.82740  0.45600  0.35730  1.0000 -0.1999570869
N   N5        1.0  0.20150  0.03580  0.87550  1.0000 -0.1999570869
N   N6        1.0  0.79850  0.53580  0.62450  1.0000 -0.1999570869
N   N7        1.0  0.79850  0.96420  0.12450  1.0000 -0.1999570869
N   N8        1.0  0.20150  0.46420  0.37550  1.0000 -0.1999570869
O   O1        1.0  0.00910  0.15730  0.80210  1.0000 -0.4986676049
O   O2        1.0  0.99090  0.65730  0.69790  1.0000 -0.4986676049
O   O3        1.0  0.99090  0.84270  0.19790  1.0000 -0.4986676049
O   O4        1.0  0.00910  0.34270  0.30210  1.0000 -0.4986676049
O   O5        1.0  0.98720  0.04730  0.72250  1.0000 -0.5585278121
O   O6        1.0  0.01280  0.54730  0.77750  1.0000 -0.5585278121
O   O7        1.0  0.01280  0.95270  0.27750  1.0000 -0.5585278121
O   O8        1.0  0.98720  0.45270  0.22250  1.0000 -0.5585278121
O   O9        1.0  0.98520  0.42030  0.62370  1.0000 -0.5388209295
O   O10       1.0  0.01480  0.92030  0.87630  1.0000 -0.5388209295
O   O11       1.0  0.01480  0.57970  0.37630  1.0000 -0.5388209295
O   O12       1.0  0.98520  0.07970  0.12370  1.0000 -0.5388209295
O   O13       1.0  0.05660  0.41530  0.49660  1.0000 -0.5585278121
O   O14       1.0  0.94340  0.91530  0.00340  1.0000 -0.5585278121
O   O15       1.0  0.94340  0.58470  0.50340  1.0000 -0.5585278121
O   O16       1.0  0.05660  0.08470  0.99660  1.0000 -0.5585278121
O   O17       1.0  0.09180  0.15060  0.34720  1.0000 -0.4748103094
O   O18       1.0  0.90820  0.65060  0.15280  1.0000 -0.4782144946
O   O19       1.0  0.90820  0.84940  0.65280  1.0000 -0.4782144946
O   O20       1.0  0.09180  0.34940  0.84720  1.0000 -0.4748103094
O   O21       1.0  0.97690  0.05940  0.39380  1.0000 -0.4482231882
O   O22       1.0  0.02310  0.55940  0.10620  1.0000 -0.4482231882
O   O23       1.0  0.02310  0.94060  0.60620  1.0000 -0.4482231882
O   O24       1.0  0.97690  0.44060  0.89380  1.0000 -0.4482231882
