# DDEC6 charges by PACMAN v1.1 (https://github.com/mtap-research/PACMAN-charge/)
data_2004[Cd][dia]3[FSR]1
_chemical_formula_sum              "Cd4 H80 C88 N8 O28"
_cell_length_a       12.2479
_cell_length_b       12.2479
_cell_length_c       17.46
_cell_angle_alpha    84.1919
_cell_angle_beta     95.8081
_cell_angle_gamma    69.6962

_symmetry_space_group_name_H-M    "P 1"
_symmetry_Int_Tables_number       1

loop_
  _symmetry_equiv_pos_as_xyz
  'x, y, z'

loop_
  _atom_site_type_symbol
  _atom_site_label
  _atom_site_symmetry_multiplicity
  _atom_site_fract_x
  _atom_site_fract_y
  _atom_site_fract_z
  _atom_site_occupancy
  _atom_site_charge
Cd  Cd1       1.0  0.71644  0.44226  0.42745  1.0000 0.8308966371
Cd  Cd2       1.0  0.55774  0.28356  0.92745  1.0000 0.8308966371
Cd  Cd3       1.0  0.44226  0.71644  0.07255  1.0000 0.8308966371
Cd  Cd4       1.0  0.28356  0.55774  0.57255  1.0000 0.8308966371
H   H1        1.0  0.47600  0.56400  0.41500  1.0000 0.3960386428
H   H2        1.0  0.43600  0.52400  0.91500  1.0000 0.3960386428
H   H3        1.0  0.51100  0.59300  0.34170  1.0000 0.3567037794
H   H4        1.0  0.40700  0.48900  0.84170  1.0000 0.3567037794
H   H5        1.0  0.72650  0.50790  0.24750  1.0000 0.0940700348
H   H6        1.0  0.49210  0.27350  0.74750  1.0000 0.0940700348
H   H7        1.0  0.80440  0.60340  0.16040  1.0000 0.1469003881
H   H8        1.0  0.39660  0.19560  0.66040  1.0000 0.1469003881
H   H9        1.0  0.97760  0.68420  0.34130  1.0000 0.1313160658
H   H10       1.0  0.31580  0.02240  0.84130  1.0000 0.1313160658
H   H11       1.0  0.89710  0.58510  0.42450  1.0000 0.1094861748
H   H12       1.0  0.41490  0.10290  0.92450  1.0000 0.1094861748
H   H13       1.0  0.04310  0.72090  0.21500  1.0000 0.1094861748
H   H14       1.0  0.27910  0.95690  0.71500  1.0000 0.1094861748
H   H15       1.0  0.91510  0.82390  0.19110  1.0000 0.1094861748
H   H16       1.0  0.17610  0.08490  0.69110  1.0000 0.1094861748
H   H17       1.0  0.00060  0.62320  0.11960  1.0000 0.1185964041
H   H18       1.0  0.37680  0.99940  0.61960  1.0000 0.1185964041
H   H19       1.0  0.87020  0.72400  0.09650  1.0000 0.1094861748
H   H20       1.0  0.27600  0.12980  0.59650  1.0000 0.1094861748
H   H21       1.0  0.05660  0.77060  0.03520  1.0000 0.1313160658
H   H22       1.0  0.22940  0.94340  0.53520  1.0000 0.1313160658
H   H23       1.0  0.07040  0.81720  0.11700  1.0000 0.1185964041
H   H24       1.0  0.18280  0.92960  0.61700  1.0000 0.1185964041
H   H25       1.0  0.76990  0.18430  0.06580  1.0000 0.1185964041
H   H26       1.0  0.81570  0.23010  0.56580  1.0000 0.1185964041
H   H27       1.0  0.92490  0.02710  0.12500  1.0000 0.1413320961
H   H28       1.0  0.97290  0.07510  0.62500  1.0000 0.1413320961
H   H29       1.0  0.86860  0.84860  0.95560  1.0000 0.1469003881
H   H30       1.0  0.15140  0.13140  0.45560  1.0000 0.1469003881
H   H31       1.0  0.70030  0.01790  0.89730  1.0000 0.0967974465
H   H32       1.0  0.98210  0.29970  0.39730  1.0000 0.0967974465
H   H33       1.0  0.01580  0.71320  0.75530  1.0000 0.3567037794
H   H34       1.0  0.28680  0.98420  0.25530  1.0000 0.3567037794
H   H35       1.0  0.66320  0.41440  0.69420  1.0000 0.1094861748
H   H36       1.0  0.58560  0.33680  0.19420  1.0000 0.1094861748
H   H37       1.0  0.80280  0.53960  0.86760  1.0000 0.1313160658
H   H38       1.0  0.46040  0.19720  0.36760  1.0000 0.1313160658
H   H39       1.0  0.84620  0.62040  0.64360  1.0000 0.1185964041
H   H40       1.0  0.37960  0.15380  0.14360  1.0000 0.1185964041
H   H41       1.0  0.56400  0.47600  0.08500  1.0000 0.3960386428
H   H42       1.0  0.52400  0.43600  0.58500  1.0000 0.3960386428
H   H43       1.0  0.59300  0.51100  0.15830  1.0000 0.3567037794
H   H44       1.0  0.48900  0.40700  0.65830  1.0000 0.3567037794
H   H45       1.0  0.50790  0.72650  0.25250  1.0000 0.0940700348
H   H46       1.0  0.27350  0.49210  0.75250  1.0000 0.0940700348
H   H47       1.0  0.60340  0.80440  0.33960  1.0000 0.1469003881
H   H48       1.0  0.19560  0.39660  0.83960  1.0000 0.1469003881
H   H49       1.0  0.68420  0.97760  0.15870  1.0000 0.1313160658
H   H50       1.0  0.02240  0.31580  0.65870  1.0000 0.1313160658
H   H51       1.0  0.58510  0.89710  0.07550  1.0000 0.1094861748
H   H52       1.0  0.10290  0.41490  0.57550  1.0000 0.1094861748
H   H53       1.0  0.72090  0.04310  0.28500  1.0000 0.1094861748
H   H54       1.0  0.95690  0.27910  0.78500  1.0000 0.1094861748
H   H55       1.0  0.82390  0.91510  0.30890  1.0000 0.1094861748
H   H56       1.0  0.08490  0.17610  0.80890  1.0000 0.1094861748
H   H57       1.0  0.62320  0.00060  0.38040  1.0000 0.1185964041
H   H58       1.0  0.99940  0.37680  0.88040  1.0000 0.1185964041
H   H59       1.0  0.72400  0.87020  0.40350  1.0000 0.1094861748
H   H60       1.0  0.12980  0.27600  0.90350  1.0000 0.1094861748
H   H61       1.0  0.77060  0.05660  0.46480  1.0000 0.1313160658
H   H62       1.0  0.94340  0.22940  0.96480  1.0000 0.1313160658
H   H63       1.0  0.81720  0.07040  0.38300  1.0000 0.1185964041
H   H64       1.0  0.92960  0.18280  0.88300  1.0000 0.1185964041
H   H65       1.0  0.18430  0.76990  0.43420  1.0000 0.1185964041
H   H66       1.0  0.23010  0.81570  0.93420  1.0000 0.1185964041
H   H67       1.0  0.02710  0.92490  0.37500  1.0000 0.1413320961
H   H68       1.0  0.07510  0.97290  0.87500  1.0000 0.1413320961
H   H69       1.0  0.84860  0.86860  0.54440  1.0000 0.1469003881
H   H70       1.0  0.13140  0.15140  0.04440  1.0000 0.1469003881
H   H71       1.0  0.01790  0.70030  0.60270  1.0000 0.0967974465
H   H72       1.0  0.29970  0.98210  0.10270  1.0000 0.0967974465
H   H73       1.0  0.71320  0.01580  0.74470  1.0000 0.3567037794
H   H74       1.0  0.98420  0.28680  0.24470  1.0000 0.3567037794
H   H75       1.0  0.41440  0.66320  0.80580  1.0000 0.1094861748
H   H76       1.0  0.33680  0.58560  0.30580  1.0000 0.1094861748
H   H77       1.0  0.53960  0.80280  0.63240  1.0000 0.1313160658
H   H78       1.0  0.19720  0.46040  0.13240  1.0000 0.1313160658
H   H79       1.0  0.62040  0.84620  0.85640  1.0000 0.1185964041
H   H80       1.0  0.15380  0.37960  0.35640  1.0000 0.1185964041
C   C1        1.0  0.77870  0.54410  0.26700  1.0000 0.0634857925
C   C2        1.0  0.45590  0.22130  0.76700  1.0000 0.0634857925
C   C3        1.0  0.82450  0.60110  0.21470  1.0000 -0.1893313703
C   C4        1.0  0.39890  0.17550  0.71470  1.0000 -0.1893313703
C   C5        1.0  0.89900  0.65420  0.24070  1.0000 0.1568882081
C   C6        1.0  0.34580  0.10100  0.74070  1.0000 0.1568882081
C   C7        1.0  0.92610  0.64810  0.32080  1.0000 -0.1962511924
C   C8        1.0  0.35190  0.07390  0.82080  1.0000 -0.1962511924
C   C9        1.0  0.87760  0.58920  0.37000  1.0000 0.0786748777
C   C10       1.0  0.41080  0.12240  0.87000  1.0000 0.0786748777
C   C11       1.0  0.96020  0.73920  0.19220  1.0000 -0.2312423376
C   C12       1.0  0.26080  0.03980  0.69220  1.0000 -0.2312423376
C   C13       1.0  0.95250  0.70690  0.12020  1.0000 -0.1464706001
C   C14       1.0  0.29310  0.04750  0.62020  1.0000 -0.1464706001
C   C15       1.0  0.01400  0.80420  0.07800  1.0000 -0.2883490485
C   C16       1.0  0.19580  0.98600  0.57800  1.0000 -0.2883490485
C   C17       1.0  0.78890  0.11430  0.04280  1.0000 0.0786748777
C   C18       1.0  0.88570  0.21110  0.54280  1.0000 0.0786748777
C   C19       1.0  0.88180  0.02220  0.07800  1.0000 -0.2140392748
C   C20       1.0  0.97780  0.11820  0.57800  1.0000 -0.2140392748
C   C21       1.0  0.91480  0.91960  0.04550  1.0000 0.1717140737
C   C22       1.0  0.08040  0.08520  0.54550  1.0000 0.1717140737
C   C23       1.0  0.84830  0.91810  0.97900  1.0000 -0.1962511924
C   C24       1.0  0.08190  0.15170  0.47900  1.0000 -0.1962511924
C   C25       1.0  0.74700  0.01940  0.94370  1.0000 0.0786748777
C   C26       1.0  0.98060  0.25300  0.44370  1.0000 0.0786748777
C   C27       1.0  0.75170  0.51810  0.65800  1.0000 -0.007373184
C   C28       1.0  0.48190  0.24830  0.15800  1.0000 -0.007373184
C   C29       1.0  0.70790  0.45930  0.71150  1.0000 -0.1362830189
C   C30       1.0  0.54070  0.29210  0.21150  1.0000 -0.1362830189
C   C31       1.0  0.72870  0.46530  0.78960  1.0000 -0.0217706629
C   C32       1.0  0.53470  0.27130  0.28960  1.0000 -0.0217706629
C   C33       1.0  0.79130  0.53290  0.81390  1.0000 -0.103328721
C   C34       1.0  0.46710  0.20870  0.31390  1.0000 -0.103328721
C   C35       1.0  0.83810  0.59170  0.76160  1.0000 -0.0555889383
C   C36       1.0  0.40830  0.16190  0.26160  1.0000 -0.0555889383
C   C37       1.0  0.81560  0.58160  0.68110  1.0000 -0.1130269704
C   C38       1.0  0.41840  0.18440  0.18110  1.0000 -0.1130269704
C   C39       1.0  0.73120  0.50660  0.57240  1.0000 0.5526048752
C   C40       1.0  0.49340  0.26880  0.07240  1.0000 0.5526048752
C   C41       1.0  0.91210  0.65610  0.78970  1.0000 0.525201163
C   C42       1.0  0.34390  0.08790  0.28970  1.0000 0.525201163
C   C43       1.0  0.68350  0.39810  0.84580  1.0000 0.5360606822
C   C44       1.0  0.60190  0.31650  0.34580  1.0000 0.5360606822
C   C45       1.0  0.54410  0.77870  0.23300  1.0000 0.0634857925
C   C46       1.0  0.22130  0.45590  0.73300  1.0000 0.0634857925
C   C47       1.0  0.60110  0.82450  0.28530  1.0000 -0.1893313703
C   C48       1.0  0.17550  0.39890  0.78530  1.0000 -0.1893313703
C   C49       1.0  0.65420  0.89900  0.25930  1.0000 0.1568882081
C   C50       1.0  0.10100  0.34580  0.75930  1.0000 0.1568882081
C   C51       1.0  0.64810  0.92610  0.17920  1.0000 -0.1962511924
C   C52       1.0  0.07390  0.35190  0.67920  1.0000 -0.1962511924
C   C53       1.0  0.58920  0.87760  0.13000  1.0000 0.0786748777
C   C54       1.0  0.12240  0.41080  0.63000  1.0000 0.0786748777
C   C55       1.0  0.73920  0.96020  0.30780  1.0000 -0.2312423376
C   C56       1.0  0.03980  0.26080  0.80780  1.0000 -0.2312423376
C   C57       1.0  0.70690  0.95250  0.37980  1.0000 -0.1464706001
C   C58       1.0  0.04750  0.29310  0.87980  1.0000 -0.1464706001
C   C59       1.0  0.80420  0.01400  0.42200  1.0000 -0.2883490485
C   C60       1.0  0.98600  0.19580  0.92200  1.0000 -0.2883490485
C   C61       1.0  0.11430  0.78890  0.45720  1.0000 0.0786748777
C   C62       1.0  0.21110  0.88570  0.95720  1.0000 0.0786748777
C   C63       1.0  0.02220  0.88180  0.42200  1.0000 -0.2140392748
C   C64       1.0  0.11820  0.97780  0.92200  1.0000 -0.2140392748
C   C65       1.0  0.91960  0.91480  0.45450  1.0000 0.1717140737
C   C66       1.0  0.08520  0.08040  0.95450  1.0000 0.1717140737
C   C67       1.0  0.91810  0.84830  0.52100  1.0000 -0.1962511924
C   C68       1.0  0.15170  0.08190  0.02100  1.0000 -0.1893313703
C   C69       1.0  0.01940  0.74700  0.55630  1.0000 0.0786748777
C   C70       1.0  0.25300  0.98060  0.05630  1.0000 0.0786748777
C   C71       1.0  0.51810  0.75170  0.84200  1.0000 -0.007373184
C   C72       1.0  0.24830  0.48190  0.34200  1.0000 -0.007373184
C   C73       1.0  0.45930  0.70790  0.78850  1.0000 -0.1362830189
C   C74       1.0  0.29210  0.54070  0.28850  1.0000 -0.1362830189
C   C75       1.0  0.46530  0.72870  0.71040  1.0000 -0.0217706629
C   C76       1.0  0.27130  0.53470  0.21040  1.0000 -0.0217706629
C   C77       1.0  0.53290  0.79130  0.68610  1.0000 -0.103328721
C   C78       1.0  0.20870  0.46710  0.18610  1.0000 -0.103328721
C   C79       1.0  0.59170  0.83810  0.73840  1.0000 -0.0555889383
C   C80       1.0  0.16190  0.40830  0.23840  1.0000 -0.054779501
C   C81       1.0  0.58160  0.81560  0.81890  1.0000 -0.1130269704
C   C82       1.0  0.18440  0.41840  0.31890  1.0000 -0.1130269704
C   C83       1.0  0.50660  0.73120  0.92760  1.0000 0.5526048752
C   C84       1.0  0.26880  0.49340  0.42760  1.0000 0.5526048752
C   C85       1.0  0.65610  0.91210  0.71030  1.0000 0.525201163
C   C86       1.0  0.08790  0.34390  0.21030  1.0000 0.525201163
C   C87       1.0  0.39810  0.68350  0.65420  1.0000 0.5360606822
C   C88       1.0  0.31650  0.60190  0.15420  1.0000 0.5360606822
N   N1        1.0  0.80360  0.53680  0.34410  1.0000 -0.2581204412
N   N2        1.0  0.46320  0.19640  0.84410  1.0000 -0.2581204412
N   N3        1.0  0.72180  0.11620  0.97920  1.0000 -0.2389943165
N   N4        1.0  0.88380  0.27820  0.47920  1.0000 -0.2389943165
N   N5        1.0  0.53680  0.80360  0.15590  1.0000 -0.2581204412
N   N6        1.0  0.19640  0.46320  0.65590  1.0000 -0.2581204412
N   N7        1.0  0.11620  0.72180  0.52080  1.0000 -0.2389943165
N   N8        1.0  0.27820  0.88380  0.02080  1.0000 -0.2389943165
O   O1        1.0  0.52780  0.58580  0.39250  1.0000 -0.6691476491
O   O2        1.0  0.41420  0.47220  0.89250  1.0000 -0.6691476491
O   O3        1.0  0.77710  0.55210  0.52520  1.0000 -0.5402227429
O   O4        1.0  0.44790  0.22290  0.02520  1.0000 -0.5402227429
O   O5        1.0  0.67160  0.44520  0.55350  1.0000 -0.553813794
O   O6        1.0  0.55480  0.32840  0.05350  1.0000 -0.553813794
O   O7        1.0  0.95550  0.70270  0.73540  1.0000 -0.4630606708
O   O8        1.0  0.29730  0.04450  0.23540  1.0000 -0.4630606708
O   O9        1.0  0.93540  0.65660  0.85820  1.0000 -0.5074751166
O   O10       1.0  0.34340  0.06460  0.35820  1.0000 -0.5074751166
O   O11       1.0  0.65090  0.31950  0.82270  1.0000 -0.5714211849
O   O12       1.0  0.68050  0.34910  0.32270  1.0000 -0.5714211849
O   O13       1.0  0.67740  0.41880  0.91430  1.0000 -0.5244571951
O   O14       1.0  0.58120  0.32260  0.41430  1.0000 -0.5244571951
O   O15       1.0  0.58580  0.52780  0.10750  1.0000 -0.6691476491
O   O16       1.0  0.47220  0.41420  0.60750  1.0000 -0.6691476491
O   O17       1.0  0.55210  0.77710  0.97480  1.0000 -0.5402227429
O   O18       1.0  0.22290  0.44790  0.47480  1.0000 -0.5402227429
O   O19       1.0  0.44520  0.67160  0.94650  1.0000 -0.553813794
O   O20       1.0  0.32840  0.55480  0.44650  1.0000 -0.553813794
O   O21       1.0  0.70270  0.95550  0.76460  1.0000 -0.4630606708
O   O22       1.0  0.04450  0.29730  0.26460  1.0000 -0.4630606708
O   O23       1.0  0.65660  0.93540  0.64180  1.0000 -0.5074751166
O   O24       1.0  0.06460  0.34340  0.14180  1.0000 -0.5074751166
O   O25       1.0  0.31950  0.65090  0.67730  1.0000 -0.5714211849
O   O26       1.0  0.34910  0.68050  0.17730  1.0000 -0.5714211849
O   O27       1.0  0.41880  0.67740  0.58570  1.0000 -0.5244571951
O   O28       1.0  0.32260  0.58120  0.08570  1.0000 -0.5244571951
