# DDEC6 charges by PACMAN v1.1 (https://github.com/mtap-research/PACMAN-charge/)
data_2004[In][tcs]3[FSR]1
_chemical_formula_sum              "In2 P2 C2 O12"
_cell_length_a       5.653
_cell_length_b       6.627
_cell_length_c       9.391
_cell_angle_alpha    109.212
_cell_angle_beta     104.164
_cell_angle_gamma    89.68

_symmetry_space_group_name_H-M    "P 1"
_symmetry_Int_Tables_number       1

loop_
  _symmetry_equiv_pos_as_xyz
  'x, y, z'

loop_
  _atom_site_type_symbol
  _atom_site_label
  _atom_site_symmetry_multiplicity
  _atom_site_fract_x
  _atom_site_fract_y
  _atom_site_fract_z
  _atom_site_occupancy
  _atom_site_charge
In  In1       1.0  0.71360  0.66830  0.83940  1.0000 1.6793623765
In  In2       1.0  0.28640  0.33170  0.16060  1.0000 1.6793623765
P   P1        1.0  0.69400  0.20980  0.92400  1.0000 1.6084935268
P   P2        1.0  0.30600  0.79020  0.07600  1.0000 1.6045270761
C   C1        1.0  0.62800  0.49400  0.48740  1.0000 0.4924092491
C   C2        1.0  0.37200  0.50600  0.51260  1.0000 0.4924092491
O   O1        1.0  0.72300  0.34600  0.82460  1.0000 -0.7553944985
O   O2        1.0  0.27700  0.65400  0.17540  1.0000 -0.7553944985
O   O3        1.0  0.55220  0.75980  0.03050  1.0000 -0.7531788001
O   O4        1.0  0.44780  0.24020  0.96950  1.0000 -0.7531788001
O   O5        1.0  0.09300  0.74500  0.93130  1.0000 -0.7531788001
O   O6        1.0  0.90700  0.25500  0.06870  1.0000 -0.7531788001
O   O7        1.0  0.31600  0.02510  0.18990  1.0000 -0.7415213088
O   O8        1.0  0.68400  0.97490  0.81010  1.0000 -0.7415213088
O   O9        1.0  0.81090  0.55810  0.60450  1.0000 -0.3668529491
O   O10       1.0  0.18910  0.44190  0.39550  1.0000 -0.3641488651
O   O11       1.0  0.36010  0.57400  0.65500  1.0000 -0.4095076124
O   O12       1.0  0.63990  0.42600  0.34500  1.0000 -0.4095076124
