# DDEC6 charges by PACMAN v1.1 (https://github.com/mtap-research/PACMAN-charge/)
data_2005[ZnU][nan]3[FSR]1
_chemical_formula_sum              "U8 Zn8 H80 C80 N16 O24 F32"
_cell_length_a       9.463
_cell_length_b       22.3836
_cell_length_c       16.7534
_cell_angle_alpha    90
_cell_angle_beta     91.899
_cell_angle_gamma    90

_symmetry_space_group_name_H-M    "P 1"
_symmetry_Int_Tables_number       1

loop_
  _symmetry_equiv_pos_as_xyz
  'x, y, z'

loop_
  _atom_site_type_symbol
  _atom_site_label
  _atom_site_symmetry_multiplicity
  _atom_site_fract_x
  _atom_site_fract_y
  _atom_site_fract_z
  _atom_site_occupancy
  _atom_site_charge
U   U1        1.0  0.54298  0.25189  0.13558  1.0000 2.5579639521
U   U2        1.0  0.45702  0.75189  0.36442  1.0000 2.5579639521
U   U3        1.0  0.45702  0.74811  0.86442  1.0000 2.5579639521
U   U4        1.0  0.54298  0.24811  0.63558  1.0000 2.5579639521
U   U5        1.0  0.90573  0.25392  0.26493  1.0000 2.5703605262
U   U6        1.0  0.09427  0.75392  0.23507  1.0000 2.5703605262
U   U7        1.0  0.09427  0.74608  0.73507  1.0000 2.5703605262
U   U8        1.0  0.90573  0.24608  0.76493  1.0000 2.5703605262
Zn  Zn1       1.0  0.84113  0.25405  0.00545  1.0000 0.9224649665
Zn  Zn2       1.0  0.15887  0.75405  0.49455  1.0000 0.9224649665
Zn  Zn3       1.0  0.15887  0.74595  0.99455  1.0000 0.9224649665
Zn  Zn4       1.0  0.84113  0.24595  0.50545  1.0000 0.9224649665
Zn  Zn5       1.0  0.22604  0.24631  0.94958  1.0000 0.9046693889
Zn  Zn6       1.0  0.77396  0.74631  0.55042  1.0000 0.9058559088
Zn  Zn7       1.0  0.77396  0.75369  0.05042  1.0000 0.9058559088
Zn  Zn8       1.0  0.22604  0.25369  0.44958  1.0000 0.9046693889
H   H1        1.0  0.09950  0.25550  0.12510  1.0000 0.3586521593
H   H2        1.0  0.90050  0.75550  0.37490  1.0000 0.3586521593
H   H3        1.0  0.90050  0.74450  0.87490  1.0000 0.3586521593
H   H4        1.0  0.09950  0.24450  0.62510  1.0000 0.3586521593
H   H5        1.0  0.18010  0.25950  0.19370  1.0000 0.3722494093
H   H6        1.0  0.81990  0.75950  0.30630  1.0000 0.3722494093
H   H7        1.0  0.81990  0.74050  0.80630  1.0000 0.3722494093
H   H8        1.0  0.18010  0.24050  0.69370  1.0000 0.3722494093
H   H9        1.0  0.48460  0.25110  0.91220  1.0000 0.3307740611
H   H10       1.0  0.51540  0.75110  0.58780  1.0000 0.3307740611
H   H11       1.0  0.51540  0.74890  0.08780  1.0000 0.3307740611
H   H12       1.0  0.48460  0.24890  0.41220  1.0000 0.3307740611
H   H13       1.0  0.42500  0.24130  0.84160  1.0000 0.3307740611
H   H14       1.0  0.57500  0.74130  0.65840  1.0000 0.3307740611
H   H15       1.0  0.57500  0.75870  0.15840  1.0000 0.3307740611
H   H16       1.0  0.42500  0.25870  0.34160  1.0000 0.3307740611
H   H17       1.0  0.97450  0.15030  0.09030  1.0000 0.1193514025
H   H18       1.0  0.02550  0.65030  0.40970  1.0000 0.1193514025
H   H19       1.0  0.02550  0.84970  0.90970  1.0000 0.1193514025
H   H20       1.0  0.97450  0.34970  0.59030  1.0000 0.1193514025
H   H21       1.0  0.95290  0.04900  0.10480  1.0000 0.1304424137
H   H22       1.0  0.04710  0.54900  0.39520  1.0000 0.1304424137
H   H23       1.0  0.04710  0.95100  0.89520  1.0000 0.1396183298
H   H24       1.0  0.95290  0.45100  0.60480  1.0000 0.1304424137
H   H25       1.0  0.66440  0.15340  0.93090  1.0000 0.1304424137
H   H26       1.0  0.33560  0.65340  0.56910  1.0000 0.1304424137
H   H27       1.0  0.33560  0.84660  0.06910  1.0000 0.1304424137
H   H28       1.0  0.66440  0.34660  0.43090  1.0000 0.1304424137
H   H29       1.0  0.63090  0.05290  0.94280  1.0000 0.1396183298
H   H30       1.0  0.36910  0.55290  0.55720  1.0000 0.1396183298
H   H31       1.0  0.36910  0.94710  0.05720  1.0000 0.1396183298
H   H32       1.0  0.63090  0.44710  0.44280  1.0000 0.1396183298
H   H33       1.0  0.86020  0.96430  0.14420  1.0000 0.1396183298
H   H34       1.0  0.13980  0.46430  0.35580  1.0000 0.1396183298
H   H35       1.0  0.13980  0.03570  0.85580  1.0000 0.1396183298
H   H36       1.0  0.86020  0.53570  0.64420  1.0000 0.1396183298
H   H37       1.0  0.85440  0.86260  0.15030  1.0000 0.1304424137
H   H38       1.0  0.14560  0.36260  0.34970  1.0000 0.1304424137
H   H39       1.0  0.14560  0.13740  0.84970  1.0000 0.1304424137
H   H40       1.0  0.85440  0.63740  0.65030  1.0000 0.1304424137
H   H41       1.0  0.69020  0.95470  0.92290  1.0000 0.1396183298
H   H42       1.0  0.30980  0.45470  0.57710  1.0000 0.1396183298
H   H43       1.0  0.30980  0.04530  0.07710  1.0000 0.1396183298
H   H44       1.0  0.69020  0.54530  0.42290  1.0000 0.1396183298
H   H45       1.0  0.69510  0.85320  0.93360  1.0000 0.1193514025
H   H46       1.0  0.30490  0.35320  0.56640  1.0000 0.1193514025
H   H47       1.0  0.30490  0.14680  0.06640  1.0000 0.1193514025
H   H48       1.0  0.69510  0.64680  0.43360  1.0000 0.1193514025
H   H49       1.0  0.95200  0.35430  0.11060  1.0000 0.1126655661
H   H50       1.0  0.04800  0.85430  0.38940  1.0000 0.1126655661
H   H51       1.0  0.04800  0.64570  0.88940  1.0000 0.1126655661
H   H52       1.0  0.95200  0.14570  0.61060  1.0000 0.1126655661
H   H53       1.0  0.92720  0.45490  0.13020  1.0000 0.1454510537
H   H54       1.0  0.07280  0.95490  0.36980  1.0000 0.1454510537
H   H55       1.0  0.07280  0.54510  0.86980  1.0000 0.1454510537
H   H56       1.0  0.92720  0.04510  0.63020  1.0000 0.1454510537
H   H57       1.0  0.69660  0.35890  0.92360  1.0000 0.1304424137
H   H58       1.0  0.30340  0.85890  0.57640  1.0000 0.1304424137
H   H59       1.0  0.30340  0.64110  0.07640  1.0000 0.1304424137
H   H60       1.0  0.69660  0.14110  0.42360  1.0000 0.1304424137
H   H61       1.0  0.66650  0.45970  0.93660  1.0000 0.1304424137
H   H62       1.0  0.33350  0.95970  0.56340  1.0000 0.1304424137
H   H63       1.0  0.33350  0.54030  0.06340  1.0000 0.1304424137
H   H64       1.0  0.66650  0.04030  0.43660  1.0000 0.1304424137
H   H65       1.0  0.97510  0.54870  0.09760  1.0000 0.1304424137
H   H66       1.0  0.02490  0.04870  0.40240  1.0000 0.1304424137
H   H67       1.0  0.02490  0.45130  0.90240  1.0000 0.1304424137
H   H68       1.0  0.97510  0.95130  0.59760  1.0000 0.1304424137
H   H69       1.0  0.96030  0.65070  0.10410  1.0000 0.1126655661
H   H70       1.0  0.03970  0.15070  0.39590  1.0000 0.1126655661
H   H71       1.0  0.03970  0.34930  0.89590  1.0000 0.1126655661
H   H72       1.0  0.96030  0.84930  0.60410  1.0000 0.1126655661
H   H73       1.0  0.58490  0.54710  0.99680  1.0000 0.1396183298
H   H74       1.0  0.41510  0.04710  0.50320  1.0000 0.1396183298
H   H75       1.0  0.41510  0.45290  0.00320  1.0000 0.1396183298
H   H76       1.0  0.58490  0.95290  0.49680  1.0000 0.1396183298
H   H77       1.0  0.57970  0.64860  0.00840  1.0000 0.1193514025
H   H78       1.0  0.42030  0.14860  0.49160  1.0000 0.1126655661
H   H79       1.0  0.42030  0.35140  0.99160  1.0000 0.1126655661
H   H80       1.0  0.57970  0.85140  0.50840  1.0000 0.1126655661
C   C1        1.0  0.90540  0.13020  0.06005  1.0000 0.1004294773
C   C2        1.0  0.09460  0.63020  0.43995  1.0000 0.1004294773
C   C3        1.0  0.09460  0.86980  0.93995  1.0000 0.1004294773
C   C4        1.0  0.90540  0.36980  0.56005  1.0000 0.1004294773
C   C5        1.0  0.89300  0.06937  0.06906  1.0000 -0.1911117412
C   C6        1.0  0.10700  0.56937  0.43094  1.0000 -0.1911117412
C   C7        1.0  0.10700  0.93063  0.93094  1.0000 -0.1911117412
C   C8        1.0  0.89300  0.43063  0.56906  1.0000 -0.1911117412
C   C9        1.0  0.72250  0.13198  0.96650  1.0000 0.1004294773
C   C10       1.0  0.27750  0.63198  0.53350  1.0000 0.1004294773
C   C11       1.0  0.27750  0.86802  0.03350  1.0000 0.1004294773
C   C12       1.0  0.72250  0.36802  0.46650  1.0000 0.1004294773
C   C13       1.0  0.70250  0.07165  0.97278  1.0000 -0.1911117412
C   C14       1.0  0.29750  0.57165  0.52722  1.0000 -0.1911117412
C   C15       1.0  0.29750  0.92835  0.02722  1.0000 -0.1911117412
C   C16       1.0  0.70250  0.42835  0.47278  1.0000 -0.1911117412
C   C17       1.0  0.79010  0.03843  0.02435  1.0000 0.1004294773
C   C18       1.0  0.20990  0.53843  0.47565  1.0000 0.1004294773
C   C19       1.0  0.20990  0.96157  0.97565  1.0000 0.1004294773
C   C20       1.0  0.79010  0.46157  0.52435  1.0000 0.1004294773
C   C21       1.0  0.77900  0.97239  0.03201  1.0000 0.1004294773
C   C22       1.0  0.22100  0.47239  0.46799  1.0000 0.1004294773
C   C23       1.0  0.22100  0.02761  0.96799  1.0000 0.1004294773
C   C24       1.0  0.77900  0.52761  0.53201  1.0000 0.1004294773
C   C25       1.0  0.82610  0.94264  0.10028  1.0000 -0.1979327018
C   C26       1.0  0.17390  0.44264  0.39972  1.0000 -0.1979327018
C   C27       1.0  0.17390  0.05736  0.89972  1.0000 -0.1979327018
C   C28       1.0  0.82610  0.55736  0.60028  1.0000 -0.1979327018
C   C29       1.0  0.82290  0.88143  0.10354  1.0000 0.1004294773
C   C30       1.0  0.17710  0.38143  0.39646  1.0000 0.1004294773
C   C31       1.0  0.17710  0.11857  0.89646  1.0000 0.1004294773
C   C32       1.0  0.82290  0.61857  0.60354  1.0000 0.1004294773
C   C33       1.0  0.72660  0.93698  0.96945  1.0000 -0.1979327018
C   C34       1.0  0.27340  0.43698  0.53055  1.0000 -0.1979327018
C   C35       1.0  0.27340  0.06302  0.03055  1.0000 -0.1979327018
C   C36       1.0  0.72660  0.56302  0.46945  1.0000 -0.1979327018
C   C37       1.0  0.72860  0.87599  0.97664  1.0000 0.1004294773
C   C38       1.0  0.27140  0.37599  0.52336  1.0000 0.1004294773
C   C39       1.0  0.27140  0.12401  0.02336  1.0000 0.1004294773
C   C40       1.0  0.72860  0.62401  0.47664  1.0000 0.1004294773
C   C41       1.0  0.89360  0.37587  0.07532  1.0000 0.1004294773
C   C42       1.0  0.10640  0.87587  0.42468  1.0000 0.1004294773
C   C43       1.0  0.10640  0.62413  0.92468  1.0000 0.1004294773
C   C44       1.0  0.89360  0.12413  0.57532  1.0000 0.1004294773
C   C45       1.0  0.87970  0.43638  0.08745  1.0000 -0.1834536123
C   C46       1.0  0.12030  0.93638  0.41255  1.0000 -0.1834536123
C   C47       1.0  0.12030  0.56362  0.91255  1.0000 -0.1834536123
C   C48       1.0  0.87970  0.06362  0.58745  1.0000 -0.1834536123
C   C49       1.0  0.74400  0.37863  0.96539  1.0000 0.0909617037
C   C50       1.0  0.25600  0.87863  0.53461  1.0000 0.0909617037
C   C51       1.0  0.25600  0.62137  0.03461  1.0000 0.0909617037
C   C52       1.0  0.74400  0.12137  0.46539  1.0000 0.0909617037
C   C53       1.0  0.72500  0.43921  0.97294  1.0000 -0.1979327018
C   C54       1.0  0.27500  0.93921  0.52706  1.0000 -0.1979327018
C   C55       1.0  0.27500  0.56079  0.02706  1.0000 -0.1979327018
C   C56       1.0  0.72500  0.06079  0.47294  1.0000 -0.1979327018
C   C57       1.0  0.79360  0.46968  0.03506  1.0000 0.1004294773
C   C58       1.0  0.20640  0.96968  0.46494  1.0000 0.1004294773
C   C59       1.0  0.20640  0.53032  0.96494  1.0000 0.1004294773
C   C60       1.0  0.79360  0.03032  0.53506  1.0000 0.1004294773
C   C61       1.0  0.78240  0.53543  0.04456  1.0000 0.1004294773
C   C62       1.0  0.21760  0.03543  0.45544  1.0000 0.1004294773
C   C63       1.0  0.21760  0.46457  0.95544  1.0000 0.1004294773
C   C64       1.0  0.78240  0.96457  0.54456  1.0000 0.1004294773
C   C65       1.0  0.89420  0.56809  0.07798  1.0000 -0.1911117412
C   C66       1.0  0.10580  0.06809  0.42202  1.0000 -0.1911117412
C   C67       1.0  0.10580  0.43191  0.92202  1.0000 -0.1911117412
C   C68       1.0  0.89420  0.93191  0.57798  1.0000 -0.1911117412
C   C69       1.0  0.88420  0.62942  0.08189  1.0000 0.1126655661
C   C70       1.0  0.11580  0.12942  0.41811  1.0000 0.1126655661
C   C71       1.0  0.11580  0.37058  0.91811  1.0000 0.1126655661
C   C72       1.0  0.88420  0.87058  0.58189  1.0000 0.1126655661
C   C73       1.0  0.66300  0.56719  0.01865  1.0000 -0.1979327018
C   C74       1.0  0.33700  0.06719  0.48135  1.0000 -0.1979327018
C   C75       1.0  0.33700  0.43281  0.98135  1.0000 -0.1979327018
C   C76       1.0  0.66300  0.93281  0.51865  1.0000 -0.1979327018
C   C77       1.0  0.66090  0.62818  0.02541  1.0000 0.0909617037
C   C78       1.0  0.33910  0.12818  0.47459  1.0000 0.0909617037
C   C79       1.0  0.33910  0.37182  0.97459  1.0000 0.0909617037
C   C80       1.0  0.66090  0.87182  0.52541  1.0000 0.0909617037
N   N1        1.0  0.82200  0.16172  0.00943  1.0000 -0.2275640222
N   N2        1.0  0.17800  0.66172  0.49057  1.0000 -0.2275640222
N   N3        1.0  0.17800  0.83828  0.99057  1.0000 -0.2275640222
N   N4        1.0  0.82200  0.33828  0.50943  1.0000 -0.2275640222
N   N5        1.0  0.77630  0.84763  0.04236  1.0000 -0.2275640222
N   N6        1.0  0.22370  0.34763  0.45764  1.0000 -0.2225841465
N   N7        1.0  0.22370  0.15237  0.95764  1.0000 -0.2275640222
N   N8        1.0  0.77630  0.65237  0.54236  1.0000 -0.2275640222
N   N9        1.0  0.82750  0.34654  0.01542  1.0000 -0.2275640222
N   N10       1.0  0.17250  0.84654  0.48458  1.0000 -0.2275640222
N   N11       1.0  0.17250  0.65346  0.98458  1.0000 -0.2275640222
N   N12       1.0  0.82750  0.15346  0.51542  1.0000 -0.2275640222
N   N13       1.0  0.77080  0.65988  0.05542  1.0000 -0.2225841465
N   N14       1.0  0.22920  0.15988  0.44458  1.0000 -0.2225841465
N   N15       1.0  0.22920  0.34012  0.94458  1.0000 -0.2225841465
N   N16       1.0  0.77080  0.84012  0.55542  1.0000 -0.2225841465
O   O1        1.0  0.54980  0.17275  0.13291  1.0000 -0.7227912846
O   O2        1.0  0.45020  0.67275  0.36709  1.0000 -0.7227912846
O   O3        1.0  0.45020  0.82725  0.86709  1.0000 -0.7227912846
O   O4        1.0  0.54980  0.32725  0.63291  1.0000 -0.7227912846
O   O5        1.0  0.54310  0.33107  0.13793  1.0000 -0.7227912846
O   O6        1.0  0.45690  0.83107  0.36207  1.0000 -0.7227912846
O   O7        1.0  0.45690  0.66893  0.86207  1.0000 -0.7227912846
O   O8        1.0  0.54310  0.16893  0.63793  1.0000 -0.7227912846
O   O9        1.0  0.91760  0.17500  0.25652  1.0000 -0.729674876
O   O10       1.0  0.08240  0.67500  0.24348  1.0000 -0.729674876
O   O11       1.0  0.08240  0.82500  0.74348  1.0000 -0.729674876
O   O12       1.0  0.91760  0.32500  0.75652  1.0000 -0.729674876
O   O13       1.0  0.89510  0.33277  0.27064  1.0000 -0.7388031933
O   O14       1.0  0.10490  0.83277  0.22936  1.0000 -0.7388031933
O   O15       1.0  0.10490  0.66723  0.72936  1.0000 -0.7388031933
O   O16       1.0  0.89510  0.16723  0.77064  1.0000 -0.7388031933
O   O17       1.0  0.10418  0.26310  0.17558  1.0000 -0.7388031933
O   O18       1.0  0.89582  0.76310  0.32442  1.0000 -0.7388031933
O   O19       1.0  0.89582  0.73690  0.82442  1.0000 -0.7388031933
O   O20       1.0  0.10418  0.23690  0.67558  1.0000 -0.7388031933
O   O21       1.0  0.41320  0.24069  0.88577  1.0000 -0.6282868239
O   O22       1.0  0.58680  0.74069  0.61423  1.0000 -0.6282868239
O   O23       1.0  0.58680  0.75931  0.11423  1.0000 -0.6282868239
O   O24       1.0  0.41320  0.25931  0.38577  1.0000 -0.6282868239
F   F1        1.0  0.66016  0.24943  0.25826  1.0000 -0.647871718
F   F2        1.0  0.33984  0.74943  0.24174  1.0000 -0.647871718
F   F3        1.0  0.33984  0.75057  0.74174  1.0000 -0.647871718
F   F4        1.0  0.66016  0.25057  0.75826  1.0000 -0.647871718
F   F5        1.0  0.34523  0.25125  0.05660  1.0000 -0.6006166044
F   F6        1.0  0.65477  0.75125  0.44340  1.0000 -0.6006166044
F   F7        1.0  0.65477  0.74875  0.94340  1.0000 -0.6006166044
F   F8        1.0  0.34523  0.24875  0.55660  1.0000 -0.6006166044
F   F9        1.0  0.61807  0.25616  0.00711  1.0000 -0.6006166044
F   F10       1.0  0.38193  0.75616  0.49289  1.0000 -0.6006166044
F   F11       1.0  0.38193  0.74384  0.99289  1.0000 -0.6006166044
F   F12       1.0  0.61807  0.24384  0.50711  1.0000 -0.6006166044
F   F13       1.0  0.80602  0.25452  0.13317  1.0000 -0.6896364244
F   F14       1.0  0.19398  0.75452  0.36683  1.0000 -0.6896364244
F   F15       1.0  0.19398  0.74548  0.86683  1.0000 -0.6896364244
F   F16       1.0  0.80602  0.24548  0.63317  1.0000 -0.6896364244
F   F17       1.0  0.37049  0.24765  0.22418  1.0000 -0.5875017199
F   F18       1.0  0.62951  0.74765  0.27582  1.0000 -0.5875017199
F   F19       1.0  0.62951  0.75235  0.77582  1.0000 -0.5875017199
F   F20       1.0  0.37049  0.25235  0.72418  1.0000 -0.5875017199
F   F21       1.0  0.10487  0.25561  0.34305  1.0000 -0.6006166044
F   F22       1.0  0.89513  0.75561  0.15695  1.0000 -0.6006166044
F   F23       1.0  0.89513  0.74439  0.65695  1.0000 -0.6006166044
F   F24       1.0  0.10487  0.24439  0.84305  1.0000 -0.6006166044
F   F25       1.0  0.82802  0.24166  0.38775  1.0000 -0.5768193158
F   F26       1.0  0.17198  0.74166  0.11225  1.0000 -0.5768193158
F   F27       1.0  0.17198  0.75834  0.61225  1.0000 -0.5768193158
F   F28       1.0  0.82802  0.25834  0.88775  1.0000 -0.5768193158
F   F29       1.0  0.05136  0.25234  0.02158  1.0000 -0.5768193158
F   F30       1.0  0.94864  0.75234  0.47842  1.0000 -0.5768193158
F   F31       1.0  0.94864  0.74766  0.97842  1.0000 -0.5768193158
F   F32       1.0  0.05136  0.24766  0.52158  1.0000 -0.5768193158
