# DDEC6 charges by PACMAN v1.1 (https://github.com/mtap-research/PACMAN-charge/)
data_2005[Co][dia]3[FSR]3
_chemical_formula_sum              "Co12 H24 C24 O48"
_cell_length_a       11.2539
_cell_length_b       9.8321
_cell_length_c       18.108
_cell_angle_alpha    90
_cell_angle_beta     127.222
_cell_angle_gamma    90

_symmetry_space_group_name_H-M    "P 1"
_symmetry_Int_Tables_number       1

loop_
  _symmetry_equiv_pos_as_xyz
  'x, y, z'

loop_
  _atom_site_type_symbol
  _atom_site_label
  _atom_site_symmetry_multiplicity
  _atom_site_fract_x
  _atom_site_fract_y
  _atom_site_fract_z
  _atom_site_occupancy
  _atom_site_charge
Co  Co1       1.0  0.37793  0.42056  0.63307  1.0000 0.9599970429
Co  Co2       1.0  0.62207  0.92056  0.86693  1.0000 0.9599970429
Co  Co3       1.0  0.62207  0.57944  0.36693  1.0000 0.9599970429
Co  Co4       1.0  0.37793  0.07944  0.13307  1.0000 0.9599970429
Co  Co5       1.0  0.42931  0.11028  0.68910  1.0000 0.9420460014
Co  Co6       1.0  0.57069  0.61028  0.81090  1.0000 0.9420460014
Co  Co7       1.0  0.57069  0.88972  0.31090  1.0000 0.9420460014
Co  Co8       1.0  0.42931  0.38972  0.18910  1.0000 0.9420460014
Co  Co9       1.0  0.50000  0.50000  0.50000  1.0000 0.9872113764
Co  Co10      1.0  0.50000  0.00000  0.00000  1.0000 0.9872113764
Co  Co11      1.0  0.00000  0.50000  0.50000  1.0000 0.9872113764
Co  Co12      1.0  0.00000  0.00000  0.00000  1.0000 0.9872113764
H   H1        1.0  0.49200  0.75800  0.63100  1.0000 0.0958844274
H   H2        1.0  0.50800  0.25800  0.86900  1.0000 0.0958844274
H   H3        1.0  0.50800  0.24200  0.36900  1.0000 0.0958844274
H   H4        1.0  0.49200  0.74200  0.13100  1.0000 0.0958844274
H   H5        1.0  0.21400  0.03800  0.73900  1.0000 0.1206790096
H   H6        1.0  0.78600  0.53800  0.76100  1.0000 0.1206790096
H   H7        1.0  0.78600  0.96200  0.26100  1.0000 0.1206790096
H   H8        1.0  0.21400  0.46200  0.23900  1.0000 0.1206790096
H   H9        1.0  0.51900  0.87900  0.46400  1.0000 0.1063638701
H   H10       1.0  0.48100  0.37900  0.03600  1.0000 0.1063638701
H   H11       1.0  0.48100  0.12100  0.53600  1.0000 0.1063638701
H   H12       1.0  0.51900  0.62100  0.96400  1.0000 0.1063638701
H   H13       1.0  0.01800  0.21200  0.50900  1.0000 0.1063638701
H   H14       1.0  0.98200  0.71200  0.99100  1.0000 0.1063638701
H   H15       1.0  0.98200  0.78800  0.49100  1.0000 0.1063638701
H   H16       1.0  0.01800  0.28800  0.00900  1.0000 0.1063638701
H   H17       1.0  0.77200  0.34200  0.57100  1.0000 0.1063638701
H   H18       1.0  0.22800  0.84200  0.92900  1.0000 0.1063638701
H   H19       1.0  0.22800  0.65800  0.42900  1.0000 0.1063638701
H   H20       1.0  0.77200  0.15800  0.07100  1.0000 0.1063638701
H   H21       1.0  0.24900  0.69800  0.73300  1.0000 0.0787562932
H   H22       1.0  0.75100  0.19800  0.76700  1.0000 0.0787562932
H   H23       1.0  0.75100  0.30200  0.26700  1.0000 0.0787562932
H   H24       1.0  0.24900  0.80200  0.23300  1.0000 0.0787562932
C   C1        1.0  0.50070  0.82840  0.66990  1.0000 0.4838771223
C   C2        1.0  0.49930  0.32840  0.83010  1.0000 0.4838771223
C   C3        1.0  0.49930  0.17160  0.33010  1.0000 0.4838771223
C   C4        1.0  0.50070  0.67160  0.16990  1.0000 0.4838771223
C   C5        1.0  0.30500  0.01350  0.78800  1.0000 0.468921475
C   C6        1.0  0.69500  0.51350  0.71200  1.0000 0.468921475
C   C7        1.0  0.69500  0.98650  0.21200  1.0000 0.468921475
C   C8        1.0  0.30500  0.48650  0.28800  1.0000 0.468921475
C   C9        1.0  0.52860  0.78810  0.45280  1.0000 0.468921475
C   C10       1.0  0.47140  0.28810  0.04720  1.0000 0.468921475
C   C11       1.0  0.47140  0.21190  0.54720  1.0000 0.468921475
C   C12       1.0  0.52860  0.71190  0.95280  1.0000 0.468921475
C   C13       1.0  0.23220  0.62860  0.68740  1.0000 0.4647099077
C   C14       1.0  0.76780  0.12860  0.81260  1.0000 0.4647099077
C   C15       1.0  0.76780  0.37140  0.31260  1.0000 0.4647099077
C   C16       1.0  0.23220  0.87140  0.18740  1.0000 0.4647099077
C   C17       1.0  0.77360  0.39310  0.53010  1.0000 0.4902463555
C   C18       1.0  0.22640  0.89310  0.96990  1.0000 0.4902463555
C   C19       1.0  0.22640  0.60690  0.46990  1.0000 0.4902463555
C   C20       1.0  0.77360  0.10690  0.03010  1.0000 0.4902463555
C   C21       1.0  0.12150  0.22120  0.54950  1.0000 0.4902463555
C   C22       1.0  0.87850  0.72120  0.95050  1.0000 0.4902463555
C   C23       1.0  0.87850  0.77880  0.45050  1.0000 0.4902463555
C   C24       1.0  0.12150  0.27880  0.04950  1.0000 0.4902463555
O   O1        1.0  0.56320  0.80017  0.75453  1.0000 -0.5590441019
O   O2        1.0  0.43680  0.30017  0.74547  1.0000 -0.5590441019
O   O3        1.0  0.43680  0.19983  0.24547  1.0000 -0.5590441019
O   O4        1.0  0.56320  0.69983  0.25453  1.0000 -0.5590441019
O   O5        1.0  0.44790  0.93970  0.63173  1.0000 -0.5015501783
O   O6        1.0  0.55210  0.43970  0.86827  1.0000 -0.5015501783
O   O7        1.0  0.55210  0.06030  0.36827  1.0000 -0.5015501783
O   O8        1.0  0.44790  0.56030  0.13173  1.0000 -0.5015501783
O   O9        1.0  0.40920  0.00485  0.78046  1.0000 -0.5590441019
O   O10       1.0  0.59080  0.50485  0.71954  1.0000 -0.5590441019
O   O11       1.0  0.59080  0.99515  0.21954  1.0000 -0.5590441019
O   O12       1.0  0.40920  0.49515  0.28046  1.0000 -0.5590441019
O   O13       1.0  0.31650  0.99560  0.85953  1.0000 -0.5015501783
O   O14       1.0  0.68350  0.49560  0.64047  1.0000 -0.5015501783
O   O15       1.0  0.68350  0.00440  0.14047  1.0000 -0.5015501783
O   O16       1.0  0.31650  0.50440  0.35953  1.0000 -0.5015501783
O   O17       1.0  0.45550  0.24287  0.60850  1.0000 -0.5590441019
O   O18       1.0  0.54450  0.74287  0.89150  1.0000 -0.5590441019
O   O19       1.0  0.54450  0.75713  0.39150  1.0000 -0.5590441019
O   O20       1.0  0.45550  0.25713  0.10850  1.0000 -0.5590441019
O   O21       1.0  0.52010  0.70890  0.50228  1.0000 -0.5015501783
O   O22       1.0  0.47990  0.20890  0.99772  1.0000 -0.5015501783
O   O23       1.0  0.47990  0.29110  0.49772  1.0000 -0.5015501783
O   O24       1.0  0.52010  0.79110  0.00228  1.0000 -0.5015501783
O   O25       1.0  0.34490  0.58356  0.69522  1.0000 -0.5590441019
O   O26       1.0  0.65510  0.08356  0.80478  1.0000 -0.5590441019
O   O27       1.0  0.65510  0.41644  0.30478  1.0000 -0.5590441019
O   O28       1.0  0.34490  0.91644  0.19522  1.0000 -0.5590441019
O   O29       1.0  0.10050  0.60430  0.62383  1.0000 -0.4911369012
O   O30       1.0  0.89950  0.10430  0.87617  1.0000 -0.4911369012
O   O31       1.0  0.89950  0.39570  0.37617  1.0000 -0.4911369012
O   O32       1.0  0.10050  0.89570  0.12383  1.0000 -0.4911369012
O   O33       1.0  0.66110  0.47260  0.47657  1.0000 -0.5764801503
O   O34       1.0  0.33890  0.97260  0.02343  1.0000 -0.5764801503
O   O35       1.0  0.33890  0.52740  0.52343  1.0000 -0.5764801503
O   O36       1.0  0.66110  0.02740  0.97657  1.0000 -0.5764801503
O   O37       1.0  0.88450  0.38470  0.53335  1.0000 -0.5015501783
O   O38       1.0  0.11550  0.88470  0.96665  1.0000 -0.5015501783
O   O39       1.0  0.11550  0.61530  0.46665  1.0000 -0.5015501783
O   O40       1.0  0.88450  0.11530  0.03335  1.0000 -0.5015501783
O   O41       1.0  0.16280  0.34520  0.56006  1.0000 -0.5590441019
O   O42       1.0  0.83720  0.84520  0.93994  1.0000 -0.5590441019
O   O43       1.0  0.83720  0.65480  0.43994  1.0000 -0.5590441019
O   O44       1.0  0.16280  0.15480  0.06006  1.0000 -0.5590441019
O   O45       1.0  0.20370  0.12208  0.59039  1.0000 -0.5015501783
O   O46       1.0  0.79630  0.62208  0.90961  1.0000 -0.5015501783
O   O47       1.0  0.79630  0.87792  0.40961  1.0000 -0.5015501783
O   O48       1.0  0.20370  0.37792  0.09039  1.0000 -0.5015501783
