# DDEC6 charges by PACMAN v1.1 (https://github.com/mtap-research/PACMAN-charge/)
data_2005[Cu][eta]3[FSR]1
_chemical_formula_sum              "Cu6 H78 C42 N12 Cl6 O18"
_cell_length_a       15.915
_cell_length_b       15.915
_cell_length_c       8.6777
_cell_angle_alpha    90
_cell_angle_beta     90
_cell_angle_gamma    120

_symmetry_space_group_name_H-M    "P 1"
_symmetry_Int_Tables_number       1

loop_
  _symmetry_equiv_pos_as_xyz
  'x, y, z'

loop_
  _atom_site_type_symbol
  _atom_site_label
  _atom_site_symmetry_multiplicity
  _atom_site_fract_x
  _atom_site_fract_y
  _atom_site_fract_z
  _atom_site_occupancy
  _atom_site_charge
Cu  Cu1       1.0  0.61859  0.20954  0.11000  1.0000 0.7783285356
Cu  Cu2       1.0  0.79046  0.40905  0.77667  1.0000 0.7783285356
Cu  Cu3       1.0  0.59095  0.38141  0.44333  1.0000 0.7783285356
Cu  Cu4       1.0  0.38141  0.79046  0.11000  1.0000 0.7783285356
Cu  Cu5       1.0  0.20954  0.59095  0.77667  1.0000 0.7783285356
Cu  Cu6       1.0  0.40905  0.61859  0.44333  1.0000 0.7783285356
H   H1        1.0  0.12580  0.22130  0.41160  1.0000 0.131451371
H   H2        1.0  0.77870  0.90450  0.07827  1.0000 0.131451371
H   H3        1.0  0.09550  0.87420  0.74493  1.0000 0.131451371
H   H4        1.0  0.87420  0.77870  0.41160  1.0000 0.131451371
H   H5        1.0  0.22130  0.09550  0.07827  1.0000 0.131451371
H   H6        1.0  0.90450  0.12580  0.74493  1.0000 0.131451371
H   H7        1.0  0.14720  0.32870  0.41970  1.0000 0.1462983292
H   H8        1.0  0.67130  0.81850  0.08637  1.0000 0.1462983292
H   H9        1.0  0.18150  0.85280  0.75303  1.0000 0.1462983292
H   H10       1.0  0.85280  0.67130  0.41970  1.0000 0.1462983292
H   H11       1.0  0.32870  0.18150  0.08637  1.0000 0.1462983292
H   H12       1.0  0.81850  0.14720  0.75303  1.0000 0.1462983292
H   H13       1.0  0.15200  0.27630  0.56970  1.0000 0.131451371
H   H14       1.0  0.72370  0.87570  0.23637  1.0000 0.131451371
H   H15       1.0  0.12430  0.84800  0.90303  1.0000 0.131451371
H   H16       1.0  0.84800  0.72370  0.56970  1.0000 0.131451371
H   H17       1.0  0.27630  0.12430  0.23637  1.0000 0.131451371
H   H18       1.0  0.87570  0.15200  0.90303  1.0000 0.131451371
H   H19       1.0  0.48140  0.25040  0.83470  1.0000 0.1607918302
H   H20       1.0  0.74960  0.23100  0.50137  1.0000 0.1607918302
H   H21       1.0  0.76900  0.51860  0.16803  1.0000 0.1607918302
H   H22       1.0  0.51860  0.74960  0.83470  1.0000 0.1607918302
H   H23       1.0  0.25040  0.76900  0.50137  1.0000 0.1607918302
H   H24       1.0  0.23100  0.48140  0.16803  1.0000 0.1607918302
H   H25       1.0  0.39480  0.27020  0.81670  1.0000 0.1462983292
H   H26       1.0  0.72980  0.12460  0.48337  1.0000 0.1462983292
H   H27       1.0  0.87540  0.60520  0.15003  1.0000 0.1462983292
H   H28       1.0  0.60520  0.72980  0.81670  1.0000 0.1462983292
H   H29       1.0  0.27020  0.87540  0.48337  1.0000 0.1462983292
H   H30       1.0  0.12460  0.39480  0.15003  1.0000 0.1462983292
H   H31       1.0  0.49840  0.34680  0.75790  1.0000 0.1607918302
H   H32       1.0  0.65320  0.15160  0.42457  1.0000 0.1607918302
H   H33       1.0  0.84840  0.50160  0.09123  1.0000 0.1607918302
H   H34       1.0  0.50160  0.65320  0.75790  1.0000 0.1607918302
H   H35       1.0  0.34680  0.84840  0.42457  1.0000 0.1607918302
H   H36       1.0  0.15160  0.49840  0.09123  1.0000 0.1607918302
H   H37       1.0  0.38500  0.08980  0.68520  1.0000 0.1607918302
H   H38       1.0  0.91020  0.29520  0.35187  1.0000 0.1607918302
H   H39       1.0  0.70480  0.61500  0.01853  1.0000 0.1607918302
H   H40       1.0  0.61500  0.91020  0.68520  1.0000 0.1607918302
H   H41       1.0  0.08980  0.70480  0.35187  1.0000 0.1607918302
H   H42       1.0  0.29520  0.38500  0.01853  1.0000 0.1607918302
H   H43       1.0  0.34960  0.09230  0.51760  1.0000 0.1462983292
H   H44       1.0  0.90770  0.25730  0.18427  1.0000 0.1462983292
H   H45       1.0  0.74270  0.65040  0.85093  1.0000 0.1462983292
H   H46       1.0  0.65040  0.90770  0.51760  1.0000 0.1462983292
H   H47       1.0  0.09230  0.74270  0.18427  1.0000 0.1462983292
H   H48       1.0  0.25730  0.34960  0.85093  1.0000 0.1462983292
H   H49       1.0  0.29780  0.10780  0.65940  1.0000 0.131451371
H   H50       1.0  0.89220  0.19000  0.32607  1.0000 0.131451371
H   H51       1.0  0.81000  0.70220  0.99273  1.0000 0.131451371
H   H52       1.0  0.70220  0.89220  0.65940  1.0000 0.131451371
H   H53       1.0  0.10780  0.81000  0.32607  1.0000 0.131451371
H   H54       1.0  0.19000  0.29780  0.99273  1.0000 0.131451371
H   H55       1.0  0.26700  0.19800  0.58200  1.0000 0.2805498343
H   H56       1.0  0.80200  0.06900  0.24867  1.0000 0.2805498343
H   H57       1.0  0.93100  0.73300  0.91533  1.0000 0.2805498343
H   H58       1.0  0.73300  0.80200  0.58200  1.0000 0.2805498343
H   H59       1.0  0.19800  0.93100  0.24867  1.0000 0.2805498343
H   H60       1.0  0.06900  0.26700  0.91533  1.0000 0.2805498343
H   H61       1.0  0.28100  0.32100  0.33000  1.0000 0.1164801396
H   H62       1.0  0.67900  0.96000  0.99667  1.0000 0.1164801396
H   H63       1.0  0.04000  0.71900  0.66333  1.0000 0.1164801396
H   H64       1.0  0.71900  0.67900  0.33000  1.0000 0.1164801396
H   H65       1.0  0.32100  0.04000  0.99667  1.0000 0.1164801396
H   H66       1.0  0.96000  0.28100  0.66333  1.0000 0.1164801396
H   H67       1.0  0.55670  0.23480  0.59860  1.0000 0.3174271561
H   H68       1.0  0.76520  0.32190  0.26527  1.0000 0.3174271561
H   H69       1.0  0.67810  0.44330  0.93193  1.0000 0.3174271561
H   H70       1.0  0.44330  0.76520  0.59860  1.0000 0.3174271561
H   H71       1.0  0.23480  0.67810  0.26527  1.0000 0.3174271561
H   H72       1.0  0.32190  0.55670  0.93193  1.0000 0.3174271561
H   H73       1.0  0.49310  0.22370  0.44100  1.0000 0.2805498343
H   H74       1.0  0.77630  0.26940  0.10767  1.0000 0.2805498343
H   H75       1.0  0.73060  0.50690  0.77433  1.0000 0.2805498343
H   H76       1.0  0.50690  0.77630  0.44100  1.0000 0.2805498343
H   H77       1.0  0.22370  0.73060  0.10767  1.0000 0.2805498343
H   H78       1.0  0.26940  0.49310  0.77433  1.0000 0.2805498343
C   C1        1.0  0.66870  0.57530  0.48230  1.0000 0.5542181111
C   C2        1.0  0.42470  0.09340  0.14897  1.0000 0.5542181111
C   C3        1.0  0.90660  0.33130  0.81563  1.0000 0.5542181111
C   C4        1.0  0.33130  0.42470  0.48230  1.0000 0.5542181111
C   C5        1.0  0.57530  0.90660  0.14897  1.0000 0.5542181111
C   C6        1.0  0.09340  0.66870  0.81563  1.0000 0.5542181111
C   C7        1.0  0.72830  0.68020  0.43100  1.0000 0.0454969085
C   C8        1.0  0.31980  0.04810  0.09767  1.0000 0.0454969085
C   C9        1.0  0.95190  0.27170  0.76433  1.0000 0.0454969085
C   C10       1.0  0.27170  0.31980  0.43100  1.0000 0.0454969085
C   C11       1.0  0.68020  0.95190  0.09767  1.0000 0.0454969085
C   C12       1.0  0.04810  0.72830  0.76433  1.0000 0.0454969085
C   C13       1.0  0.16420  0.28310  0.46080  1.0000 -0.4365067952
C   C14       1.0  0.71690  0.88110  0.12747  1.0000 -0.4365067952
C   C15       1.0  0.11890  0.83580  0.79413  1.0000 -0.4365067952
C   C16       1.0  0.83580  0.71690  0.46080  1.0000 -0.4365067952
C   C17       1.0  0.28310  0.11890  0.12747  1.0000 -0.4365067952
C   C18       1.0  0.88110  0.16420  0.79413  1.0000 -0.4365067952
C   C19       1.0  0.60550  0.71690  0.51140  1.0000 0.4104620096
C   C20       1.0  0.28310  0.88860  0.17807  1.0000 0.4104620096
C   C21       1.0  0.11140  0.39450  0.84473  1.0000 0.4104620096
C   C22       1.0  0.39450  0.28310  0.51140  1.0000 0.4104620096
C   C23       1.0  0.71690  0.11140  0.17807  1.0000 0.4104620096
C   C24       1.0  0.88860  0.60550  0.84473  1.0000 0.4104620096
C   C25       1.0  0.42960  0.22920  0.61140  1.0000 0.2481405712
C   C26       1.0  0.77080  0.20040  0.27807  1.0000 0.2481405712
C   C27       1.0  0.79960  0.57040  0.94473  1.0000 0.2481405712
C   C28       1.0  0.57040  0.77080  0.61140  1.0000 0.2481405712
C   C29       1.0  0.22920  0.79960  0.27807  1.0000 0.2481405712
C   C30       1.0  0.20040  0.42960  0.94473  1.0000 0.2481405712
C   C31       1.0  0.45330  0.27880  0.77010  1.0000 -0.4852444553
C   C32       1.0  0.72120  0.17450  0.43677  1.0000 -0.4852444553
C   C33       1.0  0.82550  0.54670  0.10343  1.0000 -0.4852444553
C   C34       1.0  0.54670  0.72120  0.77010  1.0000 -0.4852444553
C   C35       1.0  0.27880  0.82550  0.43677  1.0000 -0.4849558794
C   C36       1.0  0.17450  0.45330  0.10343  1.0000 -0.4852444553
C   C37       1.0  0.35890  0.11950  0.61910  1.0000 -0.5008131289
C   C38       1.0  0.88050  0.23940  0.28577  1.0000 -0.5008131289
C   C39       1.0  0.76060  0.64110  0.95243  1.0000 -0.5008131289
C   C40       1.0  0.64110  0.88050  0.61910  1.0000 -0.5008131289
C   C41       1.0  0.11950  0.76060  0.28577  1.0000 -0.5008131289
C   C42       1.0  0.23940  0.35890  0.95243  1.0000 -0.5008131289
N   N1        1.0  0.52370  0.25060  0.53790  1.0000 -0.5999675416
N   N2        1.0  0.74940  0.27310  0.20457  1.0000 -0.5999675416
N   N3        1.0  0.72690  0.47630  0.87123  1.0000 -0.5999675416
N   N4        1.0  0.47630  0.74940  0.53790  1.0000 -0.5999675416
N   N5        1.0  0.25060  0.72690  0.20457  1.0000 -0.5999675416
N   N6        1.0  0.27310  0.52370  0.87123  1.0000 -0.5999675416
N   N7        1.0  0.69740  0.74060  0.51570  1.0000 -0.3335097157
N   N8        1.0  0.25940  0.95680  0.18237  1.0000 -0.3360490325
N   N9        1.0  0.04320  0.30260  0.84903  1.0000 -0.3360490325
N   N10       1.0  0.30260  0.25940  0.51570  1.0000 -0.3360490325
N   N11       1.0  0.74060  0.04320  0.18237  1.0000 -0.3335097157
N   N12       1.0  0.95680  0.69740  0.84903  1.0000 -0.3335097157
Cl  Cl1       1.0  0.58493  0.33156  0.15540  1.0000 -0.537875893
Cl  Cl2       1.0  0.66844  0.25337  0.82207  1.0000 -0.537875893
Cl  Cl3       1.0  0.74663  0.41507  0.48873  1.0000 -0.537875893
Cl  Cl4       1.0  0.41507  0.66844  0.15540  1.0000 -0.537875893
Cl  Cl5       1.0  0.33156  0.74663  0.82207  1.0000 -0.537875893
Cl  Cl6       1.0  0.25337  0.58493  0.48873  1.0000 -0.537875893
O   O1        1.0  0.64110  0.51330  0.37100  1.0000 -0.5055764638
O   O2        1.0  0.48670  0.12780  0.03767  1.0000 -0.5055764638
O   O3        1.0  0.87220  0.35890  0.70433  1.0000 -0.5055764638
O   O4        1.0  0.35890  0.48670  0.37100  1.0000 -0.5055764638
O   O5        1.0  0.51330  0.87220  0.03767  1.0000 -0.5055764638
O   O6        1.0  0.12780  0.64110  0.70433  1.0000 -0.5055764638
O   O7        1.0  0.54640  0.64630  0.43340  1.0000 -0.4168868287
O   O8        1.0  0.35370  0.90010  0.10007  1.0000 -0.4168868287
O   O9        1.0  0.09990  0.45360  0.76673  1.0000 -0.4168868287
O   O10       1.0  0.45360  0.35370  0.43340  1.0000 -0.4168868287
O   O11       1.0  0.64630  0.09990  0.10007  1.0000 -0.4168868287
O   O12       1.0  0.90010  0.54640  0.76673  1.0000 -0.4168868287
O   O13       1.0  0.65410  0.55450  0.62020  1.0000 -0.5296753072
O   O14       1.0  0.44550  0.09960  0.28687  1.0000 -0.5296753072
O   O15       1.0  0.90040  0.34590  0.95353  1.0000 -0.5296753072
O   O16       1.0  0.34590  0.44550  0.62020  1.0000 -0.5296753072
O   O17       1.0  0.55450  0.90040  0.28687  1.0000 -0.5296753072
O   O18       1.0  0.09960  0.65410  0.95353  1.0000 -0.5296753072
