# DDEC6 charges by PACMAN v1.1 (https://github.com/mtap-research/PACMAN-charge/)
data_2005[Ni][cds]3[FSR]1
_chemical_formula_sum              "Ni2 H24 C24 N4 O10"
_cell_length_a       11.3167
_cell_length_b       11.3167
_cell_length_c       8.1266
_cell_angle_alpha    84.187
_cell_angle_beta     95.813
_cell_angle_gamma    55.1746

_symmetry_space_group_name_H-M    "P 1"
_symmetry_Int_Tables_number       1

loop_
  _symmetry_equiv_pos_as_xyz
  'x, y, z'

loop_
  _atom_site_type_symbol
  _atom_site_label
  _atom_site_symmetry_multiplicity
  _atom_site_fract_x
  _atom_site_fract_y
  _atom_site_fract_z
  _atom_site_occupancy
  _atom_site_charge
Ni  Ni1       1.0  0.80407  0.68815  0.48977  1.0000 0.7848214477
Ni  Ni2       1.0  0.31185  0.19593  0.98977  1.0000 0.7848214477
H   H1        1.0  0.63710  0.57310  0.60000  1.0000 0.119879958
H   H2        1.0  0.42690  0.36290  0.10000  1.0000 0.119879958
H   H3        1.0  0.99130  0.38130  0.41500  1.0000 0.1001920782
H   H4        1.0  0.61870  0.00870  0.91500  1.0000 0.1001920782
H   H5        1.0  0.62640  0.37440  0.60600  1.0000 0.1294241866
H   H6        1.0  0.62560  0.37360  0.10600  1.0000 0.1294241866
H   H7        1.0  0.99370  0.17890  0.40080  1.0000 0.119879958
H   H8        1.0  0.82110  0.00630  0.90080  1.0000 0.119879958
H   H9        1.0  0.58880  0.22080  0.52800  1.0000 0.1294241866
H   H10       1.0  0.77920  0.41120  0.02800  1.0000 0.1294241866
H   H11       1.0  0.00410  0.98610  0.41800  1.0000 0.1294241866
H   H12       1.0  0.01390  0.99590  0.91800  1.0000 0.1294241866
H   H13       1.0  0.61050  0.99450  0.55500  1.0000 0.1001920782
H   H14       1.0  0.00550  0.38950  0.05500  1.0000 0.1001920782
H   H15       1.0  0.00600  0.77600  0.42500  1.0000 0.0921664171
H   H16       1.0  0.22400  0.99400  0.92500  1.0000 0.0921664171
H   H17       1.0  0.05930  0.38130  0.70900  1.0000 0.0267855384
H   H18       1.0  0.61870  0.94070  0.20900  1.0000 0.0267855384
H   H19       1.0  0.86240  0.69840  0.85200  1.0000 0.0421280738
H   H20       1.0  0.30160  0.13760  0.35200  1.0000 0.0421280738
H   H21       1.0  0.82700  0.67500  0.16200  1.0000 0.3783505976
H   H22       1.0  0.32500  0.17300  0.66200  1.0000 0.3783505976
H   H23       1.0  0.97340  0.63340  0.25500  1.0000 0.4017569989
H   H24       1.0  0.36660  0.02660  0.75500  1.0000 0.4017569989
C   C1        1.0  0.70385  0.49285  0.54740  1.0000 0.0921664171
C   C2        1.0  0.50715  0.29615  0.04740  1.0000 0.0921664171
C   C3        1.0  0.91329  0.38129  0.44330  1.0000 0.0622719198
C   C4        1.0  0.61871  0.08671  0.94330  1.0000 0.0622719198
C   C5        1.0  0.69788  0.37388  0.54390  1.0000 -0.1983447272
C   C6        1.0  0.62612  0.30212  0.04390  1.0000 -0.1983447272
C   C7        1.0  0.91745  0.25805  0.43820  1.0000 -0.1983447272
C   C8        1.0  0.74195  0.08255  0.93820  1.0000 -0.1983447272
C   C9        1.0  0.80658  0.25258  0.48950  1.0000 0.1001920782
C   C10       1.0  0.74742  0.19342  0.98950  1.0000 0.1001920782
C   C11       1.0  0.80387  0.12307  0.48370  1.0000 0.1001920782
C   C12       1.0  0.87693  0.19613  0.98370  1.0000 0.1001920782
C   C13       1.0  0.68407  0.12527  0.51730  1.0000 -0.1983447272
C   C14       1.0  0.87473  0.31593  0.01730  1.0000 -0.1983447272
C   C15       1.0  0.91994  0.99354  0.44560  1.0000 -0.1983447272
C   C16       1.0  0.00646  0.08006  0.94560  1.0000 -0.1983447272
C   C17       1.0  0.68799  0.00139  0.51720  1.0000 0.0524548262
C   C18       1.0  0.99861  0.31201  0.01720  1.0000 0.0524548262
C   C19       1.0  0.91395  0.87555  0.44550  1.0000 0.0921664171
C   C20       1.0  0.12445  0.08605  0.94550  1.0000 0.0921664171
C   C21       1.0  0.08780  0.45460  0.72760  1.0000 0.4577686161
C   C22       1.0  0.54540  0.91220  0.22760  1.0000 0.4577686161
C   C23       1.0  0.76197  0.71077  0.84750  1.0000 0.4390934676
C   C24       1.0  0.28923  0.23803  0.34750  1.0000 0.4390934676
N   N1        1.0  0.80917  0.49877  0.49570  1.0000 -0.2197572842
N   N2        1.0  0.50123  0.19083  0.99570  1.0000 -0.2197572842
N   N3        1.0  0.80160  0.87540  0.48190  1.0000 -0.2419486448
N   N4        1.0  0.12460  0.19840  0.98190  1.0000 -0.2419486448
O   O1        1.0  0.01229  0.58053  0.63810  1.0000 -0.5100868374
O   O2        1.0  0.41947  0.98771  0.13810  1.0000 -0.5100868374
O   O3        1.0  0.19517  0.40619  0.84320  1.0000 -0.4706399173
O   O4        1.0  0.59381  0.80483  0.34320  1.0000 -0.4706399173
O   O5        1.0  0.70427  0.72831  0.69820  1.0000 -0.5032386213
O   O6        1.0  0.27169  0.29573  0.19820  1.0000 -0.5032386213
O   O7        1.0  0.71053  0.71453  0.97320  1.0000 -0.4837595254
O   O8        1.0  0.28547  0.28947  0.47320  1.0000 -0.4837595254
O   O9        1.0  0.88556  0.65116  0.26950  1.0000 -0.7279217869
O   O10       1.0  0.34884  0.11444  0.76950  1.0000 -0.7279217869
