# DDEC6 charges by PACMAN v1.1 (https://github.com/mtap-research/PACMAN-charge/)
data_2005[Cd][cds]3[FSR]1
_chemical_formula_sum              "Cd4 H76 C84 N8 O24"
_cell_length_a       11.9669
_cell_length_b       11.9669
_cell_length_c       19.0262
_cell_angle_alpha    77.5522
_cell_angle_beta     102.448
_cell_angle_gamma    88.2913

_symmetry_space_group_name_H-M    "P 1"
_symmetry_Int_Tables_number       1

loop_
  _symmetry_equiv_pos_as_xyz
  'x, y, z'

loop_
  _atom_site_type_symbol
  _atom_site_label
  _atom_site_symmetry_multiplicity
  _atom_site_fract_x
  _atom_site_fract_y
  _atom_site_fract_z
  _atom_site_occupancy
  _atom_site_charge
Cd  Cd1       1.0  0.02739  0.77207  0.05640  1.0000 0.8678935846
Cd  Cd2       1.0  0.22793  0.97261  0.55640  1.0000 0.8678935846
Cd  Cd3       1.0  0.77207  0.02739  0.44360  1.0000 0.8678935846
Cd  Cd4       1.0  0.97261  0.22793  0.94360  1.0000 0.8678935846
H   H1        1.0  0.11760  0.90120  0.29530  1.0000 0.1293209088
H   H2        1.0  0.09880  0.88240  0.79530  1.0000 0.1293209088
H   H3        1.0  0.34140  0.14120  0.33360  1.0000 0.1198228063
H   H4        1.0  0.85880  0.65860  0.83360  1.0000 0.1198228063
H   H5        1.0  0.27930  0.05290  0.13570  1.0000 0.1511099666
H   H6        1.0  0.94710  0.72070  0.63570  1.0000 0.1511099666
H   H7        1.0  0.28520  0.79420  0.03330  1.0000 0.1293209088
H   H8        1.0  0.20580  0.71480  0.53330  1.0000 0.1293209088
H   H9        1.0  0.45820  0.69660  0.05130  1.0000 0.1511099666
H   H10       1.0  0.30340  0.54180  0.55130  1.0000 0.1511099666
H   H11       1.0  0.57950  0.51870  0.08130  1.0000 0.1198228063
H   H12       1.0  0.48130  0.42050  0.58130  1.0000 0.1198228063
H   H13       1.0  0.51390  0.40350  0.08950  1.0000 0.1293209088
H   H14       1.0  0.59650  0.48610  0.58950  1.0000 0.1293209088
H   H15       1.0  0.60190  0.50450  0.21080  1.0000 0.100250154
H   H16       1.0  0.49550  0.39810  0.71080  1.0000 0.100250154
H   H17       1.0  0.54520  0.38420  0.21700  1.0000 0.0878864084
H   H18       1.0  0.61580  0.45480  0.71700  1.0000 0.0878864084
H   H19       1.0  0.70330  0.31170  0.16970  1.0000 0.1198228063
H   H20       1.0  0.68830  0.29670  0.66970  1.0000 0.1198228063
H   H21       1.0  0.74510  0.33730  0.25020  1.0000 0.1198228063
H   H22       1.0  0.66270  0.25490  0.75020  1.0000 0.1198228063
H   H23       1.0  0.83540  0.51720  0.25620  1.0000 0.1408466031
H   H24       1.0  0.48280  0.16460  0.75620  1.0000 0.1408466031
H   H25       1.0  0.95150  0.65650  0.21100  1.0000 0.1198228063
H   H26       1.0  0.34350  0.04850  0.71100  1.0000 0.1198228063
H   H27       1.0  0.89990  0.54450  0.02680  1.0000 0.1138525908
H   H28       1.0  0.45550  0.10010  0.52680  1.0000 0.1138525908
H   H29       1.0  0.78440  0.41480  0.07120  1.0000 0.1408466031
H   H30       1.0  0.58520  0.21560  0.57120  1.0000 0.1408466031
H   H31       1.0  0.32880  0.41140  0.14450  1.0000 0.1408466031
H   H32       1.0  0.58860  0.67120  0.64450  1.0000 0.1408466031
H   H33       1.0  0.16060  0.52160  0.12730  1.0000 0.100250154
H   H34       1.0  0.47840  0.83940  0.62730  1.0000 0.100250154
H   H35       1.0  0.87130  0.96050  0.98840  1.0000 0.3871463169
H   H36       1.0  0.03950  0.12870  0.48840  1.0000 0.3871463169
H   H37       1.0  0.42290  0.21790  0.24420  1.0000 0.336856999
H   H38       1.0  0.78210  0.57710  0.74420  1.0000 0.336856999
H   H39       1.0  0.90120  0.11760  0.20470  1.0000 0.1293209088
H   H40       1.0  0.88240  0.09880  0.70470  1.0000 0.1293209088
H   H41       1.0  0.14120  0.34140  0.16640  1.0000 0.1198228063
H   H42       1.0  0.65860  0.85880  0.66640  1.0000 0.1198228063
H   H43       1.0  0.05290  0.27930  0.36430  1.0000 0.1511099666
H   H44       1.0  0.72070  0.94710  0.86430  1.0000 0.1511099666
H   H45       1.0  0.79420  0.28520  0.46670  1.0000 0.1293209088
H   H46       1.0  0.71480  0.20580  0.96670  1.0000 0.1293209088
H   H47       1.0  0.69660  0.45820  0.44870  1.0000 0.1511099666
H   H48       1.0  0.54180  0.30340  0.94870  1.0000 0.1511099666
H   H49       1.0  0.51870  0.57950  0.41870  1.0000 0.1198228063
H   H50       1.0  0.42050  0.48130  0.91870  1.0000 0.1198228063
H   H51       1.0  0.40350  0.51390  0.41050  1.0000 0.1293209088
H   H52       1.0  0.48610  0.59650  0.91050  1.0000 0.1293209088
H   H53       1.0  0.50450  0.60190  0.28920  1.0000 0.100250154
H   H54       1.0  0.39810  0.49550  0.78920  1.0000 0.100250154
H   H55       1.0  0.38420  0.54520  0.28300  1.0000 0.0878864084
H   H56       1.0  0.45480  0.61580  0.78300  1.0000 0.0878864084
H   H57       1.0  0.31170  0.70330  0.33030  1.0000 0.1198228063
H   H58       1.0  0.29670  0.68830  0.83030  1.0000 0.1198228063
H   H59       1.0  0.33730  0.74510  0.24980  1.0000 0.1198228063
H   H60       1.0  0.25490  0.66270  0.74980  1.0000 0.1198228063
H   H61       1.0  0.51720  0.83540  0.24380  1.0000 0.1408466031
H   H62       1.0  0.16460  0.48280  0.74380  1.0000 0.1408466031
H   H63       1.0  0.65650  0.95150  0.28900  1.0000 0.1198228063
H   H64       1.0  0.04850  0.34350  0.78900  1.0000 0.1198228063
H   H65       1.0  0.54450  0.89990  0.47320  1.0000 0.1138525908
H   H66       1.0  0.10010  0.45550  0.97320  1.0000 0.1138525908
H   H67       1.0  0.41480  0.78440  0.42880  1.0000 0.1408466031
H   H68       1.0  0.21560  0.58520  0.92880  1.0000 0.1408466031
H   H69       1.0  0.41140  0.32880  0.35550  1.0000 0.1408466031
H   H70       1.0  0.67120  0.58860  0.85550  1.0000 0.1408466031
H   H71       1.0  0.52160  0.16060  0.37270  1.0000 0.100250154
H   H72       1.0  0.83940  0.47840  0.87270  1.0000 0.100250154
H   H73       1.0  0.96050  0.87130  0.51160  1.0000 0.3871463169
H   H74       1.0  0.12870  0.03950  0.01160  1.0000 0.3871463169
H   H75       1.0  0.21790  0.42290  0.25580  1.0000 0.336856999
H   H76       1.0  0.57710  0.78210  0.75580  1.0000 0.336856999
C   C1        1.0  0.12430  0.90230  0.15580  1.0000 0.5466681798
C   C2        1.0  0.09770  0.87570  0.65580  1.0000 0.5466681798
C   C3        1.0  0.21660  0.00040  0.40520  1.0000 0.5230484833
C   C4        1.0  0.99960  0.78340  0.90520  1.0000 0.5230484833
C   C5        1.0  0.18730  0.96730  0.20730  1.0000 -0.0097085633
C   C6        1.0  0.03270  0.81270  0.70730  1.0000 -0.0097085633
C   C7        1.0  0.17020  0.95320  0.27910  1.0000 -0.1367262522
C   C8        1.0  0.04680  0.82980  0.77910  1.0000 -0.1367262522
C   C9        1.0  0.23070  0.01550  0.32700  1.0000 0.0225656317
C   C10       1.0  0.98450  0.76930  0.82700  1.0000 0.0225656317
C   C11       1.0  0.30400  0.09540  0.30200  1.0000 -0.2750121276
C   C12       1.0  0.90460  0.69600  0.80200  1.0000 -0.2745678345
C   C13       1.0  0.32270  0.10810  0.23160  1.0000 0.2897199174
C   C14       1.0  0.89190  0.67730  0.73160  1.0000 0.2897199174
C   C15       1.0  0.26560  0.04440  0.18390  1.0000 -0.2210403006
C   C16       1.0  0.95560  0.73440  0.68390  1.0000 -0.2210403006
C   C17       1.0  0.29430  0.71530  0.05760  1.0000 0.0878864084
C   C18       1.0  0.28470  0.70570  0.55760  1.0000 0.0878864084
C   C19       1.0  0.39760  0.65680  0.06750  1.0000 -0.2109930436
C   C20       1.0  0.34320  0.60240  0.56750  1.0000 -0.2109930436
C   C21       1.0  0.41670  0.54330  0.09980  1.0000 0.176491939
C   C22       1.0  0.45670  0.58330  0.59980  1.0000 0.176491939
C   C23       1.0  0.52970  0.47250  0.10970  1.0000 -0.2486996869
C   C24       1.0  0.52750  0.47030  0.60970  1.0000 -0.2486996869
C   C25       1.0  0.59180  0.43620  0.18930  1.0000 -0.1325106839
C   C26       1.0  0.56380  0.40820  0.68930  1.0000 -0.1325106839
C   C27       1.0  0.71210  0.37310  0.19750  1.0000 -0.235791042
C   C28       1.0  0.62690  0.28790  0.69750  1.0000 -0.235791042
C   C29       1.0  0.79250  0.45730  0.16820  1.0000 0.1511099666
C   C30       1.0  0.54270  0.20750  0.66820  1.0000 0.1511099666
C   C31       1.0  0.84490  0.52450  0.20710  1.0000 -0.1960230838
C   C32       1.0  0.47550  0.15510  0.70710  1.0000 -0.1960230838
C   C33       1.0  0.91600  0.60880  0.18010  1.0000 0.100250154
C   C34       1.0  0.39120  0.08400  0.68010  1.0000 0.100250154
C   C35       1.0  0.88490  0.54370  0.07390  1.0000 0.0471022046
C   C36       1.0  0.45630  0.11510  0.57390  1.0000 0.0471022046
C   C37       1.0  0.81680  0.46580  0.10060  1.0000 -0.2109930436
C   C38       1.0  0.53420  0.18320  0.60060  1.0000 -0.2109930436
C   C39       1.0  0.32320  0.49100  0.12220  1.0000 -0.2210403006
C   C40       1.0  0.50900  0.67680  0.62220  1.0000 -0.2210403006
C   C41       1.0  0.22310  0.55810  0.11110  1.0000 0.0471022046
C   C42       1.0  0.44190  0.77690  0.61110  1.0000 0.0471022046
C   C43       1.0  0.90230  0.12430  0.34420  1.0000 0.5466681798
C   C44       1.0  0.87570  0.09770  0.84420  1.0000 0.5466681798
C   C45       1.0  0.00040  0.21660  0.09480  1.0000 0.5230484833
C   C46       1.0  0.78340  0.99960  0.59480  1.0000 0.5230484833
C   C47       1.0  0.96730  0.18730  0.29270  1.0000 -0.0097085633
C   C48       1.0  0.81270  0.03270  0.79270  1.0000 -0.0097085633
C   C49       1.0  0.95320  0.17020  0.22090  1.0000 -0.1367262522
C   C50       1.0  0.82980  0.04680  0.72090  1.0000 -0.1367262522
C   C51       1.0  0.01550  0.23070  0.17300  1.0000 0.0225656317
C   C52       1.0  0.76930  0.98450  0.67300  1.0000 0.0225656317
C   C53       1.0  0.09540  0.30400  0.19800  1.0000 -0.2750121276
C   C54       1.0  0.69600  0.90460  0.69800  1.0000 -0.2745678345
C   C55       1.0  0.10810  0.32270  0.26840  1.0000 0.2897199174
C   C56       1.0  0.67730  0.89190  0.76840  1.0000 0.2897199174
C   C57       1.0  0.04440  0.26560  0.31610  1.0000 -0.2210403006
C   C58       1.0  0.73440  0.95560  0.81610  1.0000 -0.2210403006
C   C59       1.0  0.71530  0.29430  0.44240  1.0000 0.0878864084
C   C60       1.0  0.70570  0.28470  0.94240  1.0000 0.0878864084
C   C61       1.0  0.65680  0.39760  0.43250  1.0000 -0.2109930436
C   C62       1.0  0.60240  0.34320  0.93250  1.0000 -0.2109930436
C   C63       1.0  0.54330  0.41670  0.40020  1.0000 0.176491939
C   C64       1.0  0.58330  0.45670  0.90020  1.0000 0.176491939
C   C65       1.0  0.47250  0.52970  0.39030  1.0000 -0.2486996869
C   C66       1.0  0.47030  0.52750  0.89030  1.0000 -0.2486996869
C   C67       1.0  0.43620  0.59180  0.31070  1.0000 -0.1325106839
C   C68       1.0  0.40820  0.56380  0.81070  1.0000 -0.1325106839
C   C69       1.0  0.37310  0.71210  0.30250  1.0000 -0.235791042
C   C70       1.0  0.28790  0.62690  0.80250  1.0000 -0.235791042
C   C71       1.0  0.45730  0.79250  0.33180  1.0000 0.1511099666
C   C72       1.0  0.20750  0.54270  0.83180  1.0000 0.1511099666
C   C73       1.0  0.52450  0.84490  0.29290  1.0000 -0.1960230838
C   C74       1.0  0.15510  0.47550  0.79290  1.0000 -0.1960230838
C   C75       1.0  0.60880  0.91600  0.31990  1.0000 0.100250154
C   C76       1.0  0.08400  0.39120  0.81990  1.0000 0.100250154
C   C77       1.0  0.54370  0.88490  0.42610  1.0000 0.0471022046
C   C78       1.0  0.11510  0.45630  0.92610  1.0000 0.0471022046
C   C79       1.0  0.46580  0.81680  0.39940  1.0000 -0.2109930436
C   C80       1.0  0.18320  0.53420  0.89940  1.0000 -0.2109930436
C   C81       1.0  0.49100  0.32320  0.37780  1.0000 -0.2210403006
C   C82       1.0  0.67680  0.50900  0.87780  1.0000 -0.2210403006
C   C83       1.0  0.55810  0.22310  0.38890  1.0000 0.0471022046
C   C84       1.0  0.77690  0.44190  0.88890  1.0000 0.0471022046
N   N1        1.0  0.20590  0.66870  0.07990  1.0000 -0.2305182288
N   N2        1.0  0.33130  0.79410  0.57990  1.0000 -0.2305182288
N   N3        1.0  0.93380  0.62220  0.11200  1.0000 -0.2305182288
N   N4        1.0  0.37780  0.06620  0.61200  1.0000 -0.2305182288
N   N5        1.0  0.66870  0.20590  0.42010  1.0000 -0.2305182288
N   N6        1.0  0.79410  0.33130  0.92010  1.0000 -0.2305182288
N   N7        1.0  0.62220  0.93380  0.38800  1.0000 -0.2305182288
N   N8        1.0  0.06620  0.37780  0.88800  1.0000 -0.2305182288
O   O1        1.0  0.14080  0.91700  0.09140  1.0000 -0.5102265621
O   O2        1.0  0.08300  0.85920  0.59140  1.0000 -0.5102265621
O   O3        1.0  0.86690  0.90970  0.02560  1.0000 -0.6563446443
O   O4        1.0  0.09030  0.13310  0.52560  1.0000 -0.6563446443
O   O5        1.0  0.05570  0.83230  0.17740  1.0000 -0.534165136
O   O6        1.0  0.16770  0.94430  0.67740  1.0000 -0.534165136
O   O7        1.0  0.06960  0.85180  0.92640  1.0000 -0.4989916901
O   O8        1.0  0.14820  0.93040  0.42640  1.0000 -0.4989916901
O   O9        1.0  0.94680  0.72600  0.94710  1.0000 -0.5102265621
O   O10       1.0  0.27400  0.05320  0.44710  1.0000 -0.5102265621
O   O11       1.0  0.39580  0.18640  0.20950  1.0000 -0.4286107639
O   O12       1.0  0.81360  0.60420  0.70950  1.0000 -0.4286107639
O   O13       1.0  0.91700  0.14080  0.40860  1.0000 -0.5102265621
O   O14       1.0  0.85920  0.08300  0.90860  1.0000 -0.5102265621
O   O15       1.0  0.90970  0.86690  0.47440  1.0000 -0.6563446443
O   O16       1.0  0.13310  0.09030  0.97440  1.0000 -0.6563446443
O   O17       1.0  0.83230  0.05570  0.32260  1.0000 -0.534165136
O   O18       1.0  0.94430  0.16770  0.82260  1.0000 -0.534165136
O   O19       1.0  0.85180  0.06960  0.57360  1.0000 -0.4989916901
O   O20       1.0  0.93040  0.14820  0.07360  1.0000 -0.4989916901
O   O21       1.0  0.72600  0.94680  0.55290  1.0000 -0.5102265621
O   O22       1.0  0.05320  0.27400  0.05290  1.0000 -0.5102265621
O   O23       1.0  0.18640  0.39580  0.29050  1.0000 -0.4286107639
O   O24       1.0  0.60420  0.81360  0.79050  1.0000 -0.4286107639
