# DDEC6 charges by PACMAN v1.1 (https://github.com/mtap-research/PACMAN-charge/)
data_2005[Zn][pcu]3[FSR]5
_chemical_formula_sum              "Zn8 H24 C48 O26"
_cell_length_a       18.3013
_cell_length_b       18.3013
_cell_length_c       18.3013
_cell_angle_alpha    60
_cell_angle_beta     60
_cell_angle_gamma    60

_symmetry_space_group_name_H-M    "P 1"
_symmetry_Int_Tables_number       1

loop_
  _symmetry_equiv_pos_as_xyz
  'x, y, z'

loop_
  _atom_site_type_symbol
  _atom_site_label
  _atom_site_symmetry_multiplicity
  _atom_site_fract_x
  _atom_site_fract_y
  _atom_site_fract_z
  _atom_site_occupancy
  _atom_site_charge
Zn  Zn1       1.0  0.20658  0.20658  0.38026  1.0000 0.9485349916
Zn  Zn2       1.0  0.38026  0.20658  0.20658  1.0000 0.9485349916
Zn  Zn3       1.0  0.20658  0.38026  0.20658  1.0000 0.9485349916
Zn  Zn4       1.0  0.79342  0.79342  0.79342  1.0000 0.9485349916
Zn  Zn5       1.0  0.61974  0.79342  0.79342  1.0000 0.9485349916
Zn  Zn6       1.0  0.79342  0.61974  0.79342  1.0000 0.9485349916
Zn  Zn7       1.0  0.79342  0.79342  0.61974  1.0000 0.9485349916
Zn  Zn8       1.0  0.20658  0.20658  0.20658  1.0000 0.9485349916
H   H1        1.0  0.34420  0.04540  0.56500  1.0000 0.1240106374
H   H2        1.0  0.56500  0.34420  0.04540  1.0000 0.1256166585
H   H3        1.0  0.04540  0.56500  0.34420  1.0000 0.1240106374
H   H4        1.0  0.65580  0.95460  0.95460  1.0000 0.1256166585
H   H5        1.0  0.43500  0.95460  0.95460  1.0000 0.1240106374
H   H6        1.0  0.95460  0.43500  0.65580  1.0000 0.1256166585
H   H7        1.0  0.43500  0.65580  0.95460  1.0000 0.1240106374
H   H8        1.0  0.95460  0.95460  0.43500  1.0000 0.1240106374
H   H9        1.0  0.95460  0.95460  0.65580  1.0000 0.1256166585
H   H10       1.0  0.95460  0.43500  0.95460  1.0000 0.1240106374
H   H11       1.0  0.65580  0.95460  0.43500  1.0000 0.1240106374
H   H12       1.0  0.95460  0.65580  0.95460  1.0000 0.1240106374
H   H13       1.0  0.04540  0.34420  0.04540  1.0000 0.1256166585
H   H14       1.0  0.56500  0.04540  0.34420  1.0000 0.1240106374
H   H15       1.0  0.04540  0.56500  0.04540  1.0000 0.1240106374
H   H16       1.0  0.04540  0.04540  0.34420  1.0000 0.1240106374
H   H17       1.0  0.34420  0.56500  0.04540  1.0000 0.1240106374
H   H18       1.0  0.04540  0.04540  0.56500  1.0000 0.1256166585
H   H19       1.0  0.34420  0.04540  0.04540  1.0000 0.1240106374
H   H20       1.0  0.04540  0.34420  0.56500  1.0000 0.1256166585
H   H21       1.0  0.56500  0.04540  0.04540  1.0000 0.1256166585
H   H22       1.0  0.95460  0.65580  0.43500  1.0000 0.1240106374
H   H23       1.0  0.65580  0.43500  0.95460  1.0000 0.1240106374
H   H24       1.0  0.43500  0.95460  0.65580  1.0000 0.1240106374
C   C1        1.0  0.38840  0.11160  0.38840  1.0000 0.5979331471
C   C2        1.0  0.38840  0.38840  0.11160  1.0000 0.5979331471
C   C3        1.0  0.11160  0.38840  0.38840  1.0000 0.5979331471
C   C4        1.0  0.61160  0.88840  0.88840  1.0000 0.5979331471
C   C5        1.0  0.88840  0.61160  0.61160  1.0000 0.5979331471
C   C6        1.0  0.61160  0.61160  0.88840  1.0000 0.5979331471
C   C7        1.0  0.88840  0.88840  0.61160  1.0000 0.5979331471
C   C8        1.0  0.88840  0.61160  0.88840  1.0000 0.5979331471
C   C9        1.0  0.61160  0.88840  0.61160  1.0000 0.5979331471
C   C10       1.0  0.11160  0.38840  0.11160  1.0000 0.5979331471
C   C11       1.0  0.11160  0.11160  0.38840  1.0000 0.5979331471
C   C12       1.0  0.38840  0.11160  0.11160  1.0000 0.5979331471
C   C13       1.0  0.44650  0.05350  0.44650  1.0000 -0.0301468397
C   C14       1.0  0.44650  0.44650  0.05350  1.0000 -0.0301468397
C   C15       1.0  0.05350  0.44650  0.44650  1.0000 -0.0301468397
C   C16       1.0  0.55350  0.94650  0.94650  1.0000 -0.0301468397
C   C17       1.0  0.94650  0.55350  0.55350  1.0000 -0.0301468397
C   C18       1.0  0.55350  0.55350  0.94650  1.0000 -0.0301468397
C   C19       1.0  0.94650  0.94650  0.55350  1.0000 -0.0301468397
C   C20       1.0  0.94650  0.55350  0.94650  1.0000 -0.0301468397
C   C21       1.0  0.55350  0.94650  0.55350  1.0000 -0.0301468397
C   C22       1.0  0.05350  0.44650  0.05350  1.0000 -0.0301468397
C   C23       1.0  0.05350  0.05350  0.44650  1.0000 -0.0301468397
C   C24       1.0  0.44650  0.05350  0.05350  1.0000 -0.0301468397
C   C25       1.0  0.40762  0.02698  0.53842  1.0000 -0.0943719009
C   C26       1.0  0.53842  0.40762  0.02698  1.0000 -0.0958723193
C   C27       1.0  0.02698  0.53842  0.40762  1.0000 -0.0958723193
C   C28       1.0  0.59238  0.97302  0.97302  1.0000 -0.0943719009
C   C29       1.0  0.46158  0.97302  0.97302  1.0000 -0.0958723193
C   C30       1.0  0.97302  0.46158  0.59238  1.0000 -0.0943719009
C   C31       1.0  0.46158  0.59238  0.97302  1.0000 -0.0958723193
C   C32       1.0  0.97302  0.97302  0.46158  1.0000 -0.0958723193
C   C33       1.0  0.97302  0.97302  0.59238  1.0000 -0.0943719009
C   C34       1.0  0.97302  0.46158  0.97302  1.0000 -0.0943719009
C   C35       1.0  0.59238  0.97302  0.46158  1.0000 -0.0958723193
C   C36       1.0  0.97302  0.59238  0.97302  1.0000 -0.0958723193
C   C37       1.0  0.02698  0.40762  0.02698  1.0000 -0.0958723193
C   C38       1.0  0.53842  0.02698  0.40762  1.0000 -0.0958723193
C   C39       1.0  0.02698  0.53842  0.02698  1.0000 -0.0958723193
C   C40       1.0  0.02698  0.02698  0.40762  1.0000 -0.0958723193
C   C41       1.0  0.40762  0.53842  0.02698  1.0000 -0.0958723193
C   C42       1.0  0.02698  0.02698  0.53842  1.0000 -0.0943719009
C   C43       1.0  0.40762  0.02698  0.02698  1.0000 -0.0958723193
C   C44       1.0  0.02698  0.40762  0.53842  1.0000 -0.0958723193
C   C45       1.0  0.53842  0.02698  0.02698  1.0000 -0.0943719009
C   C46       1.0  0.97302  0.59238  0.46158  1.0000 -0.0958723193
C   C47       1.0  0.59238  0.46158  0.97302  1.0000 -0.0943719009
C   C48       1.0  0.46158  0.97302  0.59238  1.0000 -0.0958723193
O   O1        1.0  0.25000  0.25000  0.25000  1.0000 -1.0410522185
O   O2        1.0  0.75000  0.75000  0.75000  1.0000 -1.0410522185
O   O3        1.0  0.30520  0.13370  0.42740  1.0000 -0.5424909306
O   O4        1.0  0.42740  0.30520  0.13370  1.0000 -0.5424909306
O   O5        1.0  0.13370  0.42740  0.30520  1.0000 -0.5424909306
O   O6        1.0  0.69480  0.86630  0.86630  1.0000 -0.5424909306
O   O7        1.0  0.57260  0.86630  0.86630  1.0000 -0.5424909306
O   O8        1.0  0.86630  0.57260  0.69480  1.0000 -0.5424909306
O   O9        1.0  0.57260  0.69480  0.86630  1.0000 -0.5424909306
O   O10       1.0  0.86630  0.86630  0.57260  1.0000 -0.5424909306
O   O11       1.0  0.86630  0.86630  0.69480  1.0000 -0.5424909306
O   O12       1.0  0.86630  0.57260  0.86630  1.0000 -0.5424909306
O   O13       1.0  0.69480  0.86630  0.57260  1.0000 -0.5424909306
O   O14       1.0  0.86630  0.69480  0.86630  1.0000 -0.5424909306
O   O15       1.0  0.13370  0.30520  0.13370  1.0000 -0.5424909306
O   O16       1.0  0.42740  0.13370  0.30520  1.0000 -0.5424909306
O   O17       1.0  0.13370  0.42740  0.13370  1.0000 -0.5424909306
O   O18       1.0  0.13370  0.13370  0.30520  1.0000 -0.5424909306
O   O19       1.0  0.30520  0.42740  0.13370  1.0000 -0.5424909306
O   O20       1.0  0.13370  0.13370  0.42740  1.0000 -0.5424909306
O   O21       1.0  0.30520  0.13370  0.13370  1.0000 -0.5424909306
O   O22       1.0  0.13370  0.30520  0.42740  1.0000 -0.5424909306
O   O23       1.0  0.42740  0.13370  0.13370  1.0000 -0.5424909306
O   O24       1.0  0.86630  0.69480  0.57260  1.0000 -0.5424909306
O   O25       1.0  0.69480  0.57260  0.86630  1.0000 -0.5424909306
O   O26       1.0  0.57260  0.86630  0.69480  1.0000 -0.5424909306
