# DDEC6 charges by PACMAN v1.1 (https://github.com/mtap-research/PACMAN-charge/)
data_2005[Cu][nbo]3[FSR]1
_chemical_formula_sum              "Cu6 H48 C30 N24 O24"
_cell_length_a       14.5166
_cell_length_b       14.5166
_cell_length_c       14.5166
_cell_angle_alpha    114.829
_cell_angle_beta     114.829
_cell_angle_gamma    114.829

_symmetry_space_group_name_H-M    "P 1"
_symmetry_Int_Tables_number       1

loop_
  _symmetry_equiv_pos_as_xyz
  'x, y, z'

loop_
  _atom_site_type_symbol
  _atom_site_label
  _atom_site_symmetry_multiplicity
  _atom_site_fract_x
  _atom_site_fract_y
  _atom_site_fract_z
  _atom_site_occupancy
  _atom_site_charge
Cu  Cu1       1.0  0.61745  0.06810  0.50505  1.0000 0.7339436463
Cu  Cu2       1.0  0.06810  0.50505  0.61745  1.0000 0.7339436463
Cu  Cu3       1.0  0.50505  0.61745  0.06810  1.0000 0.7339436463
Cu  Cu4       1.0  0.38255  0.93190  0.49495  1.0000 0.7339436463
Cu  Cu5       1.0  0.93190  0.49495  0.38255  1.0000 0.7339436463
Cu  Cu6       1.0  0.49495  0.38255  0.93190  1.0000 0.7339436463
H   H1        1.0  0.52620  0.83450  0.25120  1.0000 0.0927181655
H   H2        1.0  0.83450  0.25120  0.52620  1.0000 0.0927181655
H   H3        1.0  0.25120  0.52620  0.83450  1.0000 0.0927181655
H   H4        1.0  0.47380  0.16550  0.74880  1.0000 0.0927181655
H   H5        1.0  0.16550  0.74880  0.47380  1.0000 0.0927181655
H   H6        1.0  0.74880  0.47380  0.16550  1.0000 0.0927181655
H   H7        1.0  0.96850  0.03650  0.62690  1.0000 0.163622295
H   H8        1.0  0.03650  0.62690  0.96850  1.0000 0.163622295
H   H9        1.0  0.62690  0.96850  0.03650  1.0000 0.163622295
H   H10       1.0  0.03150  0.96350  0.37310  1.0000 0.163622295
H   H11       1.0  0.96350  0.37310  0.03150  1.0000 0.163622295
H   H12       1.0  0.37310  0.03150  0.96350  1.0000 0.163622295
H   H13       1.0  0.89440  0.14610  0.67330  1.0000 0.1101664281
H   H14       1.0  0.14610  0.67330  0.89440  1.0000 0.1101664281
H   H15       1.0  0.67330  0.89440  0.14610  1.0000 0.1101664281
H   H16       1.0  0.10560  0.85390  0.32670  1.0000 0.1101664281
H   H17       1.0  0.85390  0.32670  0.10560  1.0000 0.1101664281
H   H18       1.0  0.32670  0.10560  0.85390  1.0000 0.1101664281
H   H19       1.0  0.90960  0.83410  0.44420  1.0000 0.3109888336
H   H20       1.0  0.83410  0.44420  0.90960  1.0000 0.3109888336
H   H21       1.0  0.44420  0.90960  0.83410  1.0000 0.3109888336
H   H22       1.0  0.09040  0.16590  0.55580  1.0000 0.3109888336
H   H23       1.0  0.16590  0.55580  0.09040  1.0000 0.3109888336
H   H24       1.0  0.55580  0.09040  0.16590  1.0000 0.3109888336
H   H25       1.0  0.75560  0.70830  0.26860  1.0000 0.3109888336
H   H26       1.0  0.70830  0.26860  0.75560  1.0000 0.3109888336
H   H27       1.0  0.26860  0.75560  0.70830  1.0000 0.3109888336
H   H28       1.0  0.24440  0.29170  0.73140  1.0000 0.3109888336
H   H29       1.0  0.29170  0.73140  0.24440  1.0000 0.3109888336
H   H30       1.0  0.73140  0.24440  0.29170  1.0000 0.3109888336
H   H31       1.0  0.37300  0.08200  0.39240  1.0000 0.1101664281
H   H32       1.0  0.08200  0.39240  0.37300  1.0000 0.1101664281
H   H33       1.0  0.39240  0.37300  0.08200  1.0000 0.1101664281
H   H34       1.0  0.62700  0.91800  0.60760  1.0000 0.1101664281
H   H35       1.0  0.91800  0.60760  0.62700  1.0000 0.1101664281
H   H36       1.0  0.60760  0.62700  0.91800  1.0000 0.1101664281
H   H37       1.0  0.54820  0.23450  0.50960  1.0000 0.1208471322
H   H38       1.0  0.23450  0.50960  0.54820  1.0000 0.1208471322
H   H39       1.0  0.50960  0.54820  0.23450  1.0000 0.1208471322
H   H40       1.0  0.45180  0.76550  0.49040  1.0000 0.1208471322
H   H41       1.0  0.76550  0.49040  0.45180  1.0000 0.1208471322
H   H42       1.0  0.49040  0.45180  0.76550  1.0000 0.1208471322
H   H43       1.0  0.46720  0.20950  0.55860  1.0000 0.1208471322
H   H44       1.0  0.20950  0.55860  0.46720  1.0000 0.1208471322
H   H45       1.0  0.55860  0.46720  0.20950  1.0000 0.1208471322
H   H46       1.0  0.53280  0.79050  0.44140  1.0000 0.1208471322
H   H47       1.0  0.79050  0.44140  0.53280  1.0000 0.1208471322
H   H48       1.0  0.44140  0.53280  0.79050  1.0000 0.1208471322
C   C1        1.0  0.87700  0.99500  0.54870  1.0000 -0.2698792516
C   C2        1.0  0.99500  0.54870  0.87700  1.0000 -0.2698792516
C   C3        1.0  0.54870  0.87700  0.99500  1.0000 -0.2698792516
C   C4        1.0  0.12300  0.00500  0.45130  1.0000 -0.2698792516
C   C5        1.0  0.00500  0.45130  0.12300  1.0000 -0.2698792516
C   C6        1.0  0.45130  0.12300  0.00500  1.0000 -0.2698792516
C   C7        1.0  0.61810  0.87620  0.32880  1.0000 0.2272824274
C   C8        1.0  0.87620  0.32880  0.61810  1.0000 0.2272824274
C   C9        1.0  0.32880  0.61810  0.87620  1.0000 0.2272824274
C   C10       1.0  0.38190  0.12380  0.67120  1.0000 0.2272824274
C   C11       1.0  0.12380  0.67120  0.38190  1.0000 0.2272824274
C   C12       1.0  0.67120  0.38190  0.12380  1.0000 0.2272824274
C   C13       1.0  0.83300  0.05880  0.57510  1.0000 0.0927181655
C   C14       1.0  0.05880  0.57510  0.83300  1.0000 0.0927181655
C   C15       1.0  0.57510  0.83300  0.05880  1.0000 0.0927181655
C   C16       1.0  0.16700  0.94120  0.42490  1.0000 0.0927181655
C   C17       1.0  0.94120  0.42490  0.16700  1.0000 0.0927181655
C   C18       1.0  0.42490  0.16700  0.94120  1.0000 0.0927181655
C   C19       1.0  0.78320  0.86320  0.40110  1.0000 0.4783056727
C   C20       1.0  0.86320  0.40110  0.78320  1.0000 0.4783056727
C   C21       1.0  0.40110  0.78320  0.86320  1.0000 0.4783056727
C   C22       1.0  0.21680  0.13680  0.59890  1.0000 0.4783056727
C   C23       1.0  0.13680  0.59890  0.21680  1.0000 0.4783056727
C   C24       1.0  0.59890  0.21680  0.13680  1.0000 0.4783056727
C   C25       1.0  0.47740  0.16650  0.50140  1.0000 -0.209074065
C   C26       1.0  0.16650  0.50140  0.47740  1.0000 -0.209074065
C   C27       1.0  0.50140  0.47740  0.16650  1.0000 -0.209074065
C   C28       1.0  0.52260  0.83350  0.49860  1.0000 -0.209074065
C   C29       1.0  0.83350  0.49860  0.52260  1.0000 -0.209074065
C   C30       1.0  0.49860  0.52260  0.83350  1.0000 -0.209074065
N   N1        1.0  0.70030  0.99970  0.46420  1.0000 -0.3111191838
N   N2        1.0  0.99970  0.46420  0.70030  1.0000 -0.3111191838
N   N3        1.0  0.46420  0.70030  0.99970  1.0000 -0.3111191838
N   N4        1.0  0.29970  0.00030  0.53580  1.0000 -0.3111191838
N   N5        1.0  0.00030  0.53580  0.29970  1.0000 -0.3111191838
N   N6        1.0  0.53580  0.29970  0.00030  1.0000 -0.3111191838
N   N7        1.0  0.65170  0.80580  0.29060  1.0000 -0.3925808319
N   N8        1.0  0.80580  0.29060  0.65170  1.0000 -0.3925808319
N   N9        1.0  0.29060  0.65170  0.80580  1.0000 -0.3925808319
N   N10       1.0  0.34830  0.19420  0.70940  1.0000 -0.3925808319
N   N11       1.0  0.19420  0.70940  0.34830  1.0000 -0.3925808319
N   N12       1.0  0.70940  0.34830  0.19420  1.0000 -0.3925808319
N   N13       1.0  0.81920  0.79550  0.36800  1.0000 -0.5787355948
N   N14       1.0  0.79550  0.36800  0.81920  1.0000 -0.5787355948
N   N15       1.0  0.36800  0.81920  0.79550  1.0000 -0.5787355948
N   N16       1.0  0.18080  0.20450  0.63200  1.0000 -0.5787355948
N   N17       1.0  0.20450  0.63200  0.18080  1.0000 -0.5787355948
N   N18       1.0  0.63200  0.18080  0.20450  1.0000 -0.5787355948
N   N19       1.0  0.42040  0.94460  0.19920  1.0000 0.6911414018
N   N20       1.0  0.94460  0.19920  0.42040  1.0000 0.6911414018
N   N21       1.0  0.19920  0.42040  0.94460  1.0000 0.6911414018
N   N22       1.0  0.57960  0.05540  0.80080  1.0000 0.6911414018
N   N23       1.0  0.05540  0.80080  0.57960  1.0000 0.6911414018
N   N24       1.0  0.80080  0.57960  0.05540  1.0000 0.6911414018
O   O1        1.0  0.51240  0.09940  0.53410  1.0000 -0.4757331082
O   O2        1.0  0.09940  0.53410  0.51240  1.0000 -0.4757331082
O   O3        1.0  0.53410  0.51240  0.09940  1.0000 -0.4757331082
O   O4        1.0  0.48760  0.90060  0.46590  1.0000 -0.4731822985
O   O5        1.0  0.90060  0.46590  0.48760  1.0000 -0.4757331082
O   O6        1.0  0.46590  0.48760  0.90060  1.0000 -0.4757331082
O   O7        1.0  0.55200  0.05960  0.32400  1.0000 -0.4731822985
O   O8        1.0  0.05960  0.32400  0.55200  1.0000 -0.4731822985
O   O9        1.0  0.32400  0.55200  0.05960  1.0000 -0.4731822985
O   O10       1.0  0.44800  0.94040  0.67600  1.0000 -0.4731822985
O   O11       1.0  0.94040  0.67600  0.44800  1.0000 -0.4731822985
O   O12       1.0  0.67600  0.44800  0.94040  1.0000 -0.4731822985
O   O13       1.0  0.33500  0.85120  0.18390  1.0000 -0.4269286815
O   O14       1.0  0.85120  0.18390  0.33500  1.0000 -0.4269286815
O   O15       1.0  0.18390  0.33500  0.85120  1.0000 -0.4269286815
O   O16       1.0  0.66500  0.14880  0.81610  1.0000 -0.4269286815
O   O17       1.0  0.14880  0.81610  0.66500  1.0000 -0.4269286815
O   O18       1.0  0.81610  0.66500  0.14880  1.0000 -0.4269286815
O   O19       1.0  0.37950  0.92610  0.09270  1.0000 -0.4269286815
O   O20       1.0  0.92610  0.09270  0.37950  1.0000 -0.4269286815
O   O21       1.0  0.09270  0.37950  0.92610  1.0000 -0.4269286815
O   O22       1.0  0.62050  0.07390  0.90730  1.0000 -0.4269286815
O   O23       1.0  0.07390  0.90730  0.62050  1.0000 -0.4269286815
O   O24       1.0  0.90730  0.62050  0.07390  1.0000 -0.4269286815
