# DDEC6 charges by PACMAN v1.1 (https://github.com/mtap-research/PACMAN-charge/)
data_2005[Cd][nan]3[FSR]2
_chemical_formula_sum              "Cd6 H88 C40 N16 O32"
_cell_length_a       12.959
_cell_length_b       12.959
_cell_length_c       14.735
_cell_angle_alpha    85.7066
_cell_angle_beta     94.2934
_cell_angle_gamma    121.597

_symmetry_space_group_name_H-M    "P 1"
_symmetry_Int_Tables_number       1

loop_
  _symmetry_equiv_pos_as_xyz
  'x, y, z'

loop_
  _atom_site_type_symbol
  _atom_site_label
  _atom_site_symmetry_multiplicity
  _atom_site_fract_x
  _atom_site_fract_y
  _atom_site_fract_z
  _atom_site_occupancy
  _atom_site_charge
Cd  Cd1       1.0  0.83005  0.33883  0.24659  1.0000 0.8888366932
Cd  Cd2       1.0  0.33883  0.83005  0.25341  1.0000 0.8888366932
Cd  Cd3       1.0  0.16995  0.66117  0.75341  1.0000 0.8888366932
Cd  Cd4       1.0  0.66117  0.16995  0.74659  1.0000 0.8888366932
Cd  Cd5       1.0  0.83209  0.83209  0.25000  1.0000 0.8526902909
Cd  Cd6       1.0  0.16791  0.16791  0.75000  1.0000 0.8526902909
H   H1        1.0  0.80610  0.06690  0.29700  1.0000 0.1025104335
H   H2        1.0  0.06690  0.80610  0.20300  1.0000 0.1025104335
H   H3        1.0  0.19390  0.93310  0.70300  1.0000 0.1025104335
H   H4        1.0  0.93310  0.19390  0.79700  1.0000 0.1025104335
H   H5        1.0  0.88390  0.11390  0.21010  1.0000 0.0808425498
H   H6        1.0  0.11390  0.88390  0.28990  1.0000 0.0808425498
H   H7        1.0  0.11610  0.88610  0.78990  1.0000 0.0808425498
H   H8        1.0  0.88610  0.11610  0.71010  1.0000 0.0808425498
H   H9        1.0  0.56960  0.10420  0.20760  1.0000 0.1025104335
H   H10       1.0  0.10420  0.56960  0.29240  1.0000 0.1025104335
H   H11       1.0  0.43040  0.89580  0.79240  1.0000 0.1025104335
H   H12       1.0  0.89580  0.43040  0.70760  1.0000 0.1025104335
H   H13       1.0  0.61400  0.05900  0.29470  1.0000 0.1025104335
H   H14       1.0  0.05900  0.61400  0.20530  1.0000 0.1025104335
H   H15       1.0  0.38600  0.94100  0.70530  1.0000 0.1025104335
H   H16       1.0  0.94100  0.38600  0.79470  1.0000 0.1025104335
H   H17       1.0  0.81420  0.18380  0.07240  1.0000 0.0808425498
H   H18       1.0  0.18380  0.81420  0.42760  1.0000 0.0808425498
H   H19       1.0  0.18580  0.81620  0.92760  1.0000 0.0808425498
H   H20       1.0  0.81620  0.18580  0.57240  1.0000 0.0808425498
H   H21       1.0  0.69020  0.17820  0.07170  1.0000 0.1086603256
H   H22       1.0  0.17820  0.69020  0.42830  1.0000 0.1086603256
H   H23       1.0  0.30980  0.82180  0.92830  1.0000 0.1086603256
H   H24       1.0  0.82180  0.30980  0.57170  1.0000 0.1086603256
H   H25       1.0  0.69150  0.87510  0.07470  1.0000 0.1025104335
H   H26       1.0  0.87510  0.69150  0.42530  1.0000 0.1025104335
H   H27       1.0  0.30850  0.12490  0.92530  1.0000 0.1025104335
H   H28       1.0  0.12490  0.30850  0.57470  1.0000 0.1025104335
H   H29       1.0  0.81290  0.00130  0.07550  1.0000 0.0910154347
H   H30       1.0  0.00130  0.81290  0.42450  1.0000 0.0910154347
H   H31       1.0  0.18710  0.99870  0.92450  1.0000 0.0910154347
H   H32       1.0  0.99870  0.18710  0.57550  1.0000 0.0910154347
H   H33       1.0  0.61260  0.87360  0.29630  1.0000 0.0910154347
H   H34       1.0  0.87360  0.61260  0.20370  1.0000 0.0910154347
H   H35       1.0  0.38740  0.12640  0.70370  1.0000 0.0910154347
H   H36       1.0  0.12640  0.38740  0.79630  1.0000 0.0910154347
H   H37       1.0  0.56860  0.79800  0.20810  1.0000 0.0910154347
H   H38       1.0  0.79800  0.56860  0.29190  1.0000 0.0910154347
H   H39       1.0  0.43140  0.20200  0.79190  1.0000 0.0910154347
H   H40       1.0  0.20200  0.43140  0.70810  1.0000 0.0910154347
H   H41       1.0  0.50610  0.99330  0.07360  1.0000 0.0808425498
H   H42       1.0  0.99330  0.50610  0.42640  1.0000 0.0808425498
H   H43       1.0  0.49390  0.00670  0.92640  1.0000 0.0808425498
H   H44       1.0  0.00670  0.49390  0.57360  1.0000 0.0808425498
H   H45       1.0  0.49870  0.86950  0.07200  1.0000 0.1086603256
H   H46       1.0  0.86950  0.49870  0.42800  1.0000 0.1086603256
H   H47       1.0  0.50130  0.13050  0.92800  1.0000 0.1086603256
H   H48       1.0  0.13050  0.50130  0.57200  1.0000 0.1086603256
H   H49       1.0  0.45360  0.28840  0.51160  1.0000 0.1025104335
H   H50       1.0  0.28840  0.45360  0.98840  1.0000 0.1025104335
H   H51       1.0  0.54640  0.71160  0.48840  1.0000 0.1025104335
H   H52       1.0  0.71160  0.54640  0.01160  1.0000 0.1025104335
H   H53       1.0  0.47280  0.28580  0.36510  1.0000 0.1280788148
H   H54       1.0  0.28580  0.47280  0.13490  1.0000 0.1280788148
H   H55       1.0  0.52720  0.71420  0.63490  1.0000 0.1280788148
H   H56       1.0  0.71420  0.52720  0.86510  1.0000 0.1280788148
H   H57       1.0  0.02590  0.34690  0.34950  1.0000 0.3840904349
H   H58       1.0  0.34690  0.02590  0.15050  1.0000 0.3840904349
H   H59       1.0  0.97410  0.65310  0.65050  1.0000 0.3840904349
H   H60       1.0  0.65310  0.97410  0.84950  1.0000 0.3840904349
H   H61       1.0  0.92410  0.30810  0.41850  1.0000 0.3625585029
H   H62       1.0  0.30810  0.92410  0.08150  1.0000 0.3625585029
H   H63       1.0  0.07590  0.69190  0.58150  1.0000 0.3625585029
H   H64       1.0  0.69190  0.07590  0.91850  1.0000 0.3625585029
H   H65       1.0  0.97950  0.30370  0.13830  1.0000 0.3692327107
H   H66       1.0  0.30370  0.97950  0.36170  1.0000 0.3692327107
H   H67       1.0  0.02050  0.69630  0.86170  1.0000 0.3692327107
H   H68       1.0  0.69630  0.02050  0.63830  1.0000 0.3692327107
H   H69       1.0  0.02250  0.44150  0.12510  1.0000 0.3982208187
H   H70       1.0  0.44150  0.02250  0.37490  1.0000 0.3982208187
H   H71       1.0  0.97750  0.55850  0.87490  1.0000 0.3982208187
H   H72       1.0  0.55850  0.97750  0.62510  1.0000 0.3982208187
H   H73       1.0  0.62720  0.64040  0.17250  1.0000 0.3692327107
H   H74       1.0  0.64040  0.62720  0.32750  1.0000 0.3692327107
H   H75       1.0  0.37280  0.35960  0.82750  1.0000 0.3692327107
H   H76       1.0  0.35960  0.37280  0.67250  1.0000 0.3692327107
H   H77       1.0  0.73820  0.63540  0.14290  1.0000 0.3482552657
H   H78       1.0  0.63540  0.73820  0.35710  1.0000 0.3482552657
H   H79       1.0  0.26180  0.36460  0.85710  1.0000 0.3482552657
H   H80       1.0  0.36460  0.26180  0.64290  1.0000 0.3482552657
H   H81       1.0  0.03680  0.98900  0.15450  1.0000 0.3025869096
H   H82       1.0  0.98900  0.03680  0.34550  1.0000 0.3025869096
H   H83       1.0  0.96320  0.01100  0.84550  1.0000 0.3025869096
H   H84       1.0  0.01100  0.96320  0.65450  1.0000 0.3025869096
H   H85       1.0  0.95720  0.89600  0.09200  1.0000 0.3025869096
H   H86       1.0  0.89600  0.95720  0.40800  1.0000 0.3025869096
H   H87       1.0  0.04280  0.10400  0.90800  1.0000 0.3025869096
H   H88       1.0  0.10400  0.04280  0.59200  1.0000 0.3025869096
C   C1        1.0  0.80160  0.07040  0.23090  1.0000 -0.038913854
C   C2        1.0  0.07040  0.80160  0.26910  1.0000 -0.038913854
C   C3        1.0  0.19840  0.92960  0.76910  1.0000 -0.038913854
C   C4        1.0  0.92960  0.19840  0.73090  1.0000 -0.038913854
C   C5        1.0  0.61230  0.06330  0.22870  1.0000 -0.038913854
C   C6        1.0  0.06330  0.61230  0.27130  1.0000 -0.038913854
C   C7        1.0  0.38770  0.93670  0.77130  1.0000 -0.038913854
C   C8        1.0  0.93670  0.38770  0.72870  1.0000 -0.038913854
C   C9        1.0  0.73300  0.13820  0.09520  1.0000 -0.038913854
C   C10       1.0  0.13820  0.73300  0.40480  1.0000 -0.038913854
C   C11       1.0  0.26700  0.86180  0.90480  1.0000 -0.038913854
C   C12       1.0  0.86180  0.26700  0.59520  1.0000 -0.038913854
C   C13       1.0  0.73120  0.95620  0.09740  1.0000 -0.021763104
C   C14       1.0  0.95620  0.73120  0.40260  1.0000 -0.021763104
C   C15       1.0  0.26880  0.04380  0.90260  1.0000 -0.021763104
C   C16       1.0  0.04380  0.26880  0.59740  1.0000 -0.021763104
C   C17       1.0  0.61100  0.87960  0.23020  1.0000 -0.0457630146
C   C18       1.0  0.87960  0.61100  0.26980  1.0000 -0.0457630146
C   C19       1.0  0.38900  0.12040  0.76980  1.0000 -0.0457630146
C   C20       1.0  0.12040  0.38900  0.73020  1.0000 -0.0457630146
C   C21       1.0  0.54540  0.95040  0.09530  1.0000 -0.0334121327
C   C22       1.0  0.95040  0.54540  0.40470  1.0000 -0.0334121327
C   C23       1.0  0.45460  0.04960  0.90470  1.0000 -0.0334121327
C   C24       1.0  0.04960  0.45460  0.59530  1.0000 -0.0334121327
C   C25       1.0  0.61010  0.29190  0.56670  1.0000 0.6139746869
C   C26       1.0  0.29190  0.61010  0.93330  1.0000 0.6139746869
C   C27       1.0  0.38990  0.70810  0.43330  1.0000 0.6139746869
C   C28       1.0  0.70810  0.38990  0.06670  1.0000 0.6139746869
C   C29       1.0  0.52090  0.28870  0.49350  1.0000 -0.1992272919
C   C30       1.0  0.28870  0.52090  0.00650  1.0000 -0.1992272919
C   C31       1.0  0.47910  0.71130  0.50650  1.0000 -0.1992272919
C   C32       1.0  0.71130  0.47910  0.99350  1.0000 -0.1992272919
C   C33       1.0  0.53170  0.28630  0.40550  1.0000 -0.2215940093
C   C34       1.0  0.28630  0.53170  0.09450  1.0000 -0.2215940093
C   C35       1.0  0.46830  0.71370  0.59450  1.0000 -0.2215940093
C   C36       1.0  0.71370  0.46830  0.90550  1.0000 -0.2215940093
C   C37       1.0  0.63640  0.28440  0.36730  1.0000 0.5640284682
C   C38       1.0  0.28440  0.63640  0.13270  1.0000 0.5640284682
C   C39       1.0  0.36360  0.71560  0.63270  1.0000 0.5640284682
C   C40       1.0  0.71560  0.36360  0.86730  1.0000 0.5640284682
N   N1        1.0  0.73820  0.94760  0.19870  1.0000 -0.2315398639
N   N2        1.0  0.94760  0.73820  0.30130  1.0000 -0.2315398639
N   N3        1.0  0.26180  0.05240  0.80130  1.0000 -0.2315398639
N   N4        1.0  0.05240  0.26180  0.69870  1.0000 -0.2315398639
N   N5        1.0  0.74075  0.13825  0.19810  1.0000 -0.1934215313
N   N6        1.0  0.13825  0.74075  0.30190  1.0000 -0.1992272919
N   N7        1.0  0.25925  0.86175  0.80190  1.0000 -0.1992272919
N   N8        1.0  0.86175  0.25925  0.69810  1.0000 -0.1934215313
N   N9        1.0  0.66870  0.01230  0.06150  1.0000 -0.1780647708
N   N10       1.0  0.01230  0.66870  0.43850  1.0000 -0.1780647708
N   N11       1.0  0.33130  0.98770  0.93850  1.0000 -0.1780647708
N   N12       1.0  0.98770  0.33130  0.56150  1.0000 -0.1780647708
N   N13       1.0  0.54554  0.94166  0.19670  1.0000 -0.1934215313
N   N14       1.0  0.94166  0.54554  0.30330  1.0000 -0.1934215313
N   N15       1.0  0.45446  0.05834  0.80330  1.0000 -0.1934215313
N   N16       1.0  0.05834  0.45446  0.69670  1.0000 -0.1934215313
O   O1        1.0  0.66679  0.33681  0.28760  1.0000 -0.5755307412
O   O2        1.0  0.33681  0.66679  0.21240  1.0000 -0.5755307412
O   O3        1.0  0.33321  0.66319  0.71240  1.0000 -0.5755307412
O   O4        1.0  0.66319  0.33321  0.78760  1.0000 -0.5755307412
O   O5        1.0  0.68738  0.23882  0.40830  1.0000 -0.5491453296
O   O6        1.0  0.23882  0.68738  0.09170  1.0000 -0.5491453296
O   O7        1.0  0.31262  0.76118  0.59170  1.0000 -0.5491453296
O   O8        1.0  0.76118  0.31262  0.90830  1.0000 -0.5491453296
O   O9        1.0  0.70597  0.38923  0.58210  1.0000 -0.5983192807
O   O10       1.0  0.38923  0.70597  0.91790  1.0000 -0.5983192807
O   O11       1.0  0.29403  0.61077  0.41790  1.0000 -0.5983192807
O   O12       1.0  0.61077  0.29403  0.08210  1.0000 -0.5983192807
O   O13       1.0  0.57507  0.18973  0.61070  1.0000 -0.6285192257
O   O14       1.0  0.18973  0.57507  0.88930  1.0000 -0.6285192257
O   O15       1.0  0.42493  0.81027  0.38930  1.0000 -0.6285192257
O   O16       1.0  0.81027  0.42493  0.11070  1.0000 -0.6285192257
O   O17       1.0  0.94097  0.29483  0.35950  1.0000 -0.7392014747
O   O18       1.0  0.29483  0.94097  0.14050  1.0000 -0.7392014747
O   O19       1.0  0.05903  0.70517  0.64050  1.0000 -0.7392014747
O   O20       1.0  0.70517  0.05903  0.85950  1.0000 -0.7392014747
O   O21       1.0  0.99988  0.37532  0.16900  1.0000 -0.7392014747
O   O22       1.0  0.37532  0.99988  0.33100  1.0000 -0.7392014747
O   O23       1.0  0.00012  0.62468  0.83100  1.0000 -0.7392014747
O   O24       1.0  0.62468  0.00012  0.66900  1.0000 -0.7392014747
O   O25       1.0  0.70690  0.68710  0.14870  1.0000 -0.7392014747
O   O26       1.0  0.68710  0.70690  0.35130  1.0000 -0.7392014747
O   O27       1.0  0.29310  0.31290  0.85130  1.0000 -0.7392014747
O   O28       1.0  0.31290  0.29310  0.64870  1.0000 -0.7392014747
O   O29       1.0  0.96540  0.93240  0.14010  1.0000 -0.6965041494
O   O30       1.0  0.93240  0.96540  0.35990  1.0000 -0.6965041494
O   O31       1.0  0.03460  0.06760  0.85990  1.0000 -0.6965041494
O   O32       1.0  0.06760  0.03460  0.64010  1.0000 -0.6965041494
