# DDEC6 charges by PACMAN v1.1 (https://github.com/mtap-research/PACMAN-charge/)
data_2005[Co][nan]3[FSR]6
_chemical_formula_sum              "Co3 H2 C8 O10"
_cell_length_a       7.93566
_cell_length_b       7.93566
_cell_length_c       5.4998
_cell_angle_alpha    89.6878
_cell_angle_beta     90.3122
_cell_angle_gamma    71.7117

_symmetry_space_group_name_H-M    "P 1"
_symmetry_Int_Tables_number       1

loop_
  _symmetry_equiv_pos_as_xyz
  'x, y, z'

loop_
  _atom_site_type_symbol
  _atom_site_label
  _atom_site_symmetry_multiplicity
  _atom_site_fract_x
  _atom_site_fract_y
  _atom_site_fract_z
  _atom_site_occupancy
  _atom_site_charge
Co  Co1       1.0  0.00000  0.00000  0.50000  1.0000 0.9794722925
Co  Co2       1.0  0.12014  0.12014  0.00000  1.0000 0.9901615511
Co  Co3       1.0  0.87986  0.87986  0.00000  1.0000 0.9901615511
H   H1        1.0  0.18200  0.81800  0.84400  1.0000 0.3941989969
H   H2        1.0  0.81800  0.18200  0.15600  1.0000 0.3941989969
C   C1        1.0  0.43270  0.05230  0.65850  1.0000 0.177829815
C   C2        1.0  0.05230  0.43270  0.34150  1.0000 0.177829815
C   C3        1.0  0.56730  0.94770  0.34150  1.0000 0.177829815
C   C4        1.0  0.94770  0.56730  0.65850  1.0000 0.177829815
C   C5        1.0  0.38400  0.99180  0.42460  1.0000 0.1719370614
C   C6        1.0  0.99180  0.38400  0.57540  1.0000 0.1719370614
C   C7        1.0  0.61600  0.00820  0.57540  1.0000 0.1719370614
C   C8        1.0  0.00820  0.61600  0.42460  1.0000 0.1719370614
O   O1        1.0  0.35666  0.11806  0.84920  1.0000 -0.4077709784
O   O2        1.0  0.11806  0.35666  0.15080  1.0000 -0.4077709784
O   O3        1.0  0.64334  0.88194  0.15080  1.0000 -0.4077709784
O   O4        1.0  0.88194  0.64334  0.84920  1.0000 -0.4077709784
O   O5        1.0  0.10210  0.89790  0.82610  1.0000 -0.8290361632
O   O6        1.0  0.89790  0.10210  0.17390  1.0000 -0.8290361632
O   O7        1.0  0.24310  0.98070  0.32850  1.0000 -0.4645261635
O   O8        1.0  0.98070  0.24310  0.67150  1.0000 -0.4645261635
O   O9        1.0  0.75690  0.01930  0.67150  1.0000 -0.4645261635
O   O10       1.0  0.01930  0.75690  0.32850  1.0000 -0.4645261635
