# DDEC6 charges by PACMAN v1.1 (https://github.com/mtap-research/PACMAN-charge/)
data_2005[In][bpq]3[FSR]1
_chemical_formula_sum              "In16 H80 C128 O80"
_cell_length_a       18.228
_cell_length_b       11.9701
_cell_length_c       34.0612
_cell_angle_alpha    90
_cell_angle_beta     122.353
_cell_angle_gamma    90

_symmetry_space_group_name_H-M    "P 1"
_symmetry_Int_Tables_number       1

loop_
  _symmetry_equiv_pos_as_xyz
  'x, y, z'

loop_
  _atom_site_type_symbol
  _atom_site_label
  _atom_site_symmetry_multiplicity
  _atom_site_fract_x
  _atom_site_fract_y
  _atom_site_fract_z
  _atom_site_occupancy
  _atom_site_charge
In  In1       1.0  0.87562  0.99447  0.87534  1.0000 1.5182955733
In  In2       1.0  0.12438  0.49447  0.62466  1.0000 1.5182955733
In  In3       1.0  0.12438  0.00553  0.12466  1.0000 1.5182955733
In  In4       1.0  0.87562  0.50553  0.37534  1.0000 1.5182955733
In  In5       1.0  0.75018  0.99281  0.74968  1.0000 1.4792921117
In  In6       1.0  0.24982  0.49281  0.75032  1.0000 1.4792921117
In  In7       1.0  0.24982  0.00719  0.25032  1.0000 1.4792921117
In  In8       1.0  0.75018  0.50719  0.24968  1.0000 1.4792921117
In  In9       1.0  0.50000  0.50000  0.00000  1.0000 1.5090794733
In  In10      1.0  0.50000  0.00000  0.50000  1.0000 1.5090794733
In  In11      1.0  0.37444  0.49530  0.87486  1.0000 1.4960784486
In  In12      1.0  0.62556  0.99530  0.62514  1.0000 1.4960784486
In  In13      1.0  0.62556  0.50470  0.12514  1.0000 1.4960784486
In  In14      1.0  0.37444  0.00470  0.37486  1.0000 1.4960784486
In  In15      1.0  0.00000  0.00000  0.00000  1.0000 1.5090794733
In  In16      1.0  0.00000  0.50000  0.50000  1.0000 1.5090794733
H   H1        1.0  0.18110  0.24490  0.00590  1.0000 0.1233471524
H   H2        1.0  0.81890  0.74490  0.49410  1.0000 0.1233471524
H   H3        1.0  0.81890  0.75510  0.99410  1.0000 0.1233471524
H   H4        1.0  0.18110  0.25510  0.50590  1.0000 0.1233471524
H   H5        1.0  0.29260  0.33360  0.00690  1.0000 0.1233471524
H   H6        1.0  0.70740  0.83360  0.49310  1.0000 0.1233471524
H   H7        1.0  0.70740  0.66640  0.99310  1.0000 0.1233471524
H   H8        1.0  0.29260  0.16640  0.50690  1.0000 0.1233471524
H   H9        1.0  0.17160  0.30000  0.86900  1.0000 0.1233471524
H   H10       1.0  0.82840  0.80000  0.63100  1.0000 0.1233471524
H   H11       1.0  0.82840  0.70000  0.13100  1.0000 0.1233471524
H   H12       1.0  0.17160  0.20000  0.36900  1.0000 0.1233471524
H   H13       1.0  0.05890  0.20320  0.86790  1.0000 0.1254715047
H   H14       1.0  0.94110  0.70320  0.63210  1.0000 0.1233471524
H   H15       1.0  0.94110  0.79680  0.13210  1.0000 0.1254715047
H   H16       1.0  0.05890  0.29680  0.36790  1.0000 0.1254715047
H   H17       1.0  0.05600  0.70900  0.74310  1.0000 0.1233471524
H   H18       1.0  0.94400  0.20900  0.75690  1.0000 0.1233471524
H   H19       1.0  0.94400  0.29100  0.25690  1.0000 0.1233471524
H   H20       1.0  0.05600  0.79100  0.24310  1.0000 0.1233471524
H   H21       1.0  0.94540  0.81010  0.74260  1.0000 0.1254715047
H   H22       1.0  0.05460  0.31010  0.75740  1.0000 0.1254715047
H   H23       1.0  0.05460  0.18990  0.25740  1.0000 0.1254715047
H   H24       1.0  0.94540  0.68990  0.24260  1.0000 0.1254715047
H   H25       1.0  0.09300  0.82450  0.88230  1.0000 0.1233471524
H   H26       1.0  0.90700  0.32450  0.61770  1.0000 0.1233471524
H   H27       1.0  0.90700  0.17550  0.11770  1.0000 0.1233471524
H   H28       1.0  0.09300  0.67550  0.38230  1.0000 0.1233471524
H   H29       1.0  0.20250  0.73190  0.88160  1.0000 0.1254715047
H   H30       1.0  0.79750  0.23190  0.61840  1.0000 0.1254715047
H   H31       1.0  0.79750  0.26810  0.11840  1.0000 0.1254715047
H   H32       1.0  0.20250  0.76810  0.38160  1.0000 0.1254715047
H   H33       1.0  0.80830  0.19950  0.00610  1.0000 0.1233471524
H   H34       1.0  0.19170  0.69950  0.49390  1.0000 0.1233471524
H   H35       1.0  0.19170  0.80050  0.99390  1.0000 0.1233471524
H   H36       1.0  0.80830  0.30050  0.50610  1.0000 0.1233471524
H   H37       1.0  0.69880  0.28690  0.00720  1.0000 0.1254715047
H   H38       1.0  0.30120  0.78690  0.49280  1.0000 0.1254715047
H   H39       1.0  0.30120  0.71310  0.99280  1.0000 0.1254715047
H   H40       1.0  0.69880  0.21310  0.50720  1.0000 0.1254715047
H   H41       1.0  0.54710  0.26300  0.86860  1.0000 0.1233471524
H   H42       1.0  0.45290  0.76300  0.63140  1.0000 0.1233471524
H   H43       1.0  0.45290  0.73700  0.13140  1.0000 0.1233471524
H   H44       1.0  0.54710  0.23700  0.36860  1.0000 0.1233471524
H   H45       1.0  0.65720  0.16460  0.86830  1.0000 0.1254715047
H   H46       1.0  0.34280  0.66460  0.63170  1.0000 0.1254715047
H   H47       1.0  0.34280  0.83540  0.13170  1.0000 0.1254715047
H   H48       1.0  0.65720  0.33540  0.36830  1.0000 0.1254715047
H   H49       1.0  0.44770  0.67340  0.74270  1.0000 0.1254715047
H   H50       1.0  0.55230  0.17340  0.75730  1.0000 0.1254715047
H   H51       1.0  0.55230  0.32660  0.25730  1.0000 0.1254715047
H   H52       1.0  0.44770  0.82660  0.24270  1.0000 0.1254715047
H   H53       1.0  0.55810  0.77460  0.74300  1.0000 0.1233471524
H   H54       1.0  0.44190  0.27460  0.75700  1.0000 0.1233471524
H   H55       1.0  0.44190  0.22540  0.25700  1.0000 0.1233471524
H   H56       1.0  0.55810  0.72540  0.24300  1.0000 0.1233471524
H   H57       1.0  0.69300  0.77810  0.88250  1.0000 0.1254715047
H   H58       1.0  0.30700  0.27810  0.61750  1.0000 0.1254715047
H   H59       1.0  0.30700  0.22190  0.11750  1.0000 0.1254715047
H   H60       1.0  0.69300  0.72190  0.38250  1.0000 0.1254715047
H   H61       1.0  0.58280  0.68750  0.88200  1.0000 0.1233471524
H   H62       1.0  0.41720  0.18750  0.61800  1.0000 0.1233471524
H   H63       1.0  0.41720  0.31250  0.11800  1.0000 0.1233471524
H   H64       1.0  0.58280  0.81250  0.38200  1.0000 0.1233471524
H   H65       1.0  0.79400  0.14200  0.80000  1.0000 0.391014023
H   H66       1.0  0.20600  0.64200  0.70000  1.0000 0.391014023
H   H67       1.0  0.20600  0.85800  0.20000  1.0000 0.391014023
H   H68       1.0  0.79400  0.35800  0.30000  1.0000 0.391014023
H   H69       1.0  0.95700  0.84080  0.94000  1.0000 0.391014023
H   H70       1.0  0.04300  0.34080  0.56000  1.0000 0.391014023
H   H71       1.0  0.04300  0.15920  0.06000  1.0000 0.391014023
H   H72       1.0  0.95700  0.65920  0.44000  1.0000 0.391014023
H   H73       1.0  0.32200  0.33900  0.81700  1.0000 0.391014023
H   H74       1.0  0.67800  0.83900  0.68300  1.0000 0.391014023
H   H75       1.0  0.67800  0.66100  0.18300  1.0000 0.391014023
H   H76       1.0  0.32200  0.16100  0.31700  1.0000 0.391014023
H   H77       1.0  0.46100  0.65000  0.93600  1.0000 0.391014023
H   H78       1.0  0.53900  0.15000  0.56400  1.0000 0.391014023
H   H79       1.0  0.53900  0.35000  0.06400  1.0000 0.391014023
H   H80       1.0  0.46100  0.85000  0.43600  1.0000 0.391014023
C   C1        1.0  0.03994  0.14630  0.93657  1.0000 0.6094416662
C   C2        1.0  0.96006  0.64630  0.56343  1.0000 0.6094416662
C   C3        1.0  0.96006  0.85370  0.06343  1.0000 0.6094416662
C   C4        1.0  0.03994  0.35370  0.43657  1.0000 0.6094416662
C   C5        1.0  0.10992  0.21320  0.93691  1.0000 -0.0209865612
C   C6        1.0  0.89008  0.71320  0.56309  1.0000 -0.0209865612
C   C7        1.0  0.89008  0.78680  0.06309  1.0000 -0.0209865612
C   C8        1.0  0.10992  0.28680  0.43691  1.0000 -0.0209865612
C   C9        1.0  0.17960  0.25430  0.97840  1.0000 -0.102687387
C   C10       1.0  0.82040  0.75430  0.52160  1.0000 -0.102687387
C   C11       1.0  0.82040  0.74570  0.02160  1.0000 -0.102687387
C   C12       1.0  0.17960  0.24570  0.47840  1.0000 -0.102687387
C   C13       1.0  0.24548  0.30810  0.97884  1.0000 -0.1075687313
C   C14       1.0  0.75452  0.80810  0.52116  1.0000 -0.1075687313
C   C15       1.0  0.75452  0.69190  0.02116  1.0000 -0.1075687313
C   C16       1.0  0.24548  0.19190  0.47884  1.0000 -0.1075687313
C   C17       1.0  0.24350  0.32590  0.93755  1.0000 -0.0270904515
C   C18       1.0  0.75650  0.82590  0.56245  1.0000 -0.0270904515
C   C19       1.0  0.75650  0.67410  0.06245  1.0000 -0.0270904515
C   C20       1.0  0.24350  0.17410  0.43755  1.0000 -0.0270904515
C   C21       1.0  0.17400  0.28760  0.89660  1.0000 -0.102687387
C   C22       1.0  0.82600  0.78760  0.60340  1.0000 -0.102687387
C   C23       1.0  0.82600  0.71240  0.10340  1.0000 -0.102687387
C   C24       1.0  0.17400  0.21240  0.39660  1.0000 -0.102687387
C   C25       1.0  0.10588  0.22980  0.89579  1.0000 -0.1075687313
C   C26       1.0  0.89412  0.72980  0.60421  1.0000 -0.1075687313
C   C27       1.0  0.89412  0.77020  0.10421  1.0000 -0.1075687313
C   C28       1.0  0.10588  0.27020  0.39579  1.0000 -0.1075687313
C   C29       1.0  0.31700  0.38400  0.93850  1.0000 0.6094416662
C   C30       1.0  0.68300  0.88400  0.56150  1.0000 0.6094416662
C   C31       1.0  0.68300  0.61600  0.06150  1.0000 0.6094416662
C   C32       1.0  0.31700  0.11600  0.43850  1.0000 0.6094416662
C   C33       1.0  0.20998  0.64430  0.81224  1.0000 0.6094416662
C   C34       1.0  0.79002  0.14430  0.68776  1.0000 0.6094416662
C   C35       1.0  0.79002  0.35570  0.18776  1.0000 0.6094416662
C   C36       1.0  0.20998  0.85570  0.31224  1.0000 0.6094416662
C   C37       1.0  0.13996  0.71240  0.81193  1.0000 -0.0209865612
C   C38       1.0  0.86004  0.21240  0.68807  1.0000 -0.0209865612
C   C39       1.0  0.86004  0.28760  0.18807  1.0000 -0.0209865612
C   C40       1.0  0.13996  0.78760  0.31193  1.0000 -0.0209865612
C   C41       1.0  0.06352  0.73370  0.77091  1.0000 -0.102687387
C   C42       1.0  0.93648  0.23370  0.72909  1.0000 -0.102687387
C   C43       1.0  0.93648  0.26630  0.22909  1.0000 -0.102687387
C   C44       1.0  0.06352  0.76630  0.27091  1.0000 -0.102687387
C   C45       1.0  0.99640  0.79270  0.77060  1.0000 -0.1075687313
C   C46       1.0  0.00360  0.29270  0.72940  1.0000 -0.1075687313
C   C47       1.0  0.00360  0.20730  0.22940  1.0000 -0.1075687313
C   C48       1.0  0.99640  0.70730  0.27060  1.0000 -0.102687387
C   C49       1.0  0.00726  0.82410  0.81223  1.0000 -0.0209865612
C   C50       1.0  0.99274  0.32410  0.68777  1.0000 -0.0209865612
C   C51       1.0  0.99274  0.17590  0.18777  1.0000 -0.0209865612
C   C52       1.0  0.00726  0.67590  0.31223  1.0000 -0.0209865612
C   C53       1.0  0.08558  0.80180  0.85429  1.0000 -0.1075687313
C   C54       1.0  0.91442  0.30180  0.64571  1.0000 -0.1075687313
C   C55       1.0  0.91442  0.19820  0.14571  1.0000 -0.1075687313
C   C56       1.0  0.08558  0.69820  0.35429  1.0000 -0.1075687313
C   C57       1.0  0.15058  0.74670  0.85374  1.0000 -0.1075687313
C   C58       1.0  0.84942  0.24670  0.64626  1.0000 -0.1075687313
C   C59       1.0  0.84942  0.25330  0.14626  1.0000 -0.1075687313
C   C60       1.0  0.15058  0.75330  0.35374  1.0000 -0.1075687313
C   C61       1.0  0.93470  0.88190  0.81300  1.0000 0.6094416662
C   C62       1.0  0.06530  0.38190  0.68700  1.0000 0.6094416662
C   C63       1.0  0.06530  0.11810  0.18700  1.0000 0.6094416662
C   C64       1.0  0.93470  0.61810  0.31300  1.0000 0.6094416662
C   C65       1.0  0.81602  0.11280  0.93666  1.0000 0.6094416662
C   C66       1.0  0.18398  0.61280  0.56334  1.0000 0.6094416662
C   C67       1.0  0.18398  0.88720  0.06334  1.0000 0.6094416662
C   C68       1.0  0.81602  0.38720  0.43666  1.0000 0.6094416662
C   C69       1.0  0.74364  0.17250  0.93667  1.0000 -0.0209865612
C   C70       1.0  0.25636  0.67250  0.56333  1.0000 -0.0209865612
C   C71       1.0  0.25636  0.82750  0.06333  1.0000 -0.0209865612
C   C72       1.0  0.74364  0.32750  0.43667  1.0000 -0.0209865612
C   C73       1.0  0.75534  0.21080  0.97842  1.0000 -0.1075687313
C   C74       1.0  0.24466  0.71080  0.52158  1.0000 -0.1075687313
C   C75       1.0  0.24466  0.78920  0.02158  1.0000 -0.1075687313
C   C76       1.0  0.75534  0.28920  0.47842  1.0000 -0.1075687313
C   C77       1.0  0.69062  0.26420  0.97901  1.0000 -0.102687387
C   C78       1.0  0.30938  0.76420  0.52099  1.0000 -0.102687387
C   C79       1.0  0.30938  0.73580  0.02099  1.0000 -0.102687387
C   C80       1.0  0.69062  0.23580  0.47901  1.0000 -0.102687387
C   C81       1.0  0.61194  0.28560  0.93787  1.0000 -0.0270904515
C   C82       1.0  0.38806  0.78560  0.56213  1.0000 -0.0270904515
C   C83       1.0  0.38806  0.71440  0.06213  1.0000 -0.0270904515
C   C84       1.0  0.61194  0.21440  0.43787  1.0000 -0.0270904515
C   C85       1.0  0.59944  0.24910  0.89637  1.0000 -0.102687387
C   C86       1.0  0.40056  0.74910  0.60363  1.0000 -0.102687387
C   C87       1.0  0.40056  0.75090  0.10363  1.0000 -0.102687387
C   C88       1.0  0.59944  0.25090  0.39637  1.0000 -0.102687387
C   C89       1.0  0.66600  0.19090  0.89620  1.0000 -0.102687387
C   C90       1.0  0.33400  0.69090  0.60380  1.0000 -0.102687387
C   C91       1.0  0.33400  0.80910  0.10380  1.0000 -0.102687387
C   C92       1.0  0.66600  0.30910  0.39620  1.0000 -0.102687387
C   C93       1.0  0.54212  0.35060  0.93786  1.0000 0.6094416662
C   C94       1.0  0.45788  0.85060  0.56214  1.0000 0.6094416662
C   C95       1.0  0.45788  0.64940  0.06214  1.0000 0.6094416662
C   C96       1.0  0.54212  0.14940  0.43786  1.0000 0.6094416662
C   C97       1.0  0.43182  0.61110  0.81221  1.0000 0.6094416662
C   C98       1.0  0.56818  0.11110  0.68779  1.0000 0.6094416662
C   C99       1.0  0.56818  0.38890  0.18779  1.0000 0.6094416662
C   C100      1.0  0.43182  0.88890  0.31221  1.0000 0.6094416662
C   C101      1.0  0.50358  0.67180  0.81184  1.0000 -0.0209865612
C   C102      1.0  0.49642  0.17180  0.68816  1.0000 -0.0209865612
C   C103      1.0  0.49642  0.32820  0.18816  1.0000 -0.0209865612
C   C104      1.0  0.50358  0.82820  0.31184  1.0000 -0.0209865612
C   C105      1.0  0.49648  0.69590  0.77064  1.0000 -0.102687387
C   C106      1.0  0.50352  0.19590  0.72936  1.0000 -0.102687387
C   C107      1.0  0.50352  0.30410  0.22936  1.0000 -0.102687387
C   C108      1.0  0.49648  0.80410  0.27064  1.0000 -0.102687387
C   C109      1.0  0.56362  0.75500  0.77091  1.0000 -0.1075687313
C   C110      1.0  0.43638  0.25500  0.72909  1.0000 -0.1075687313
C   C111      1.0  0.43638  0.24500  0.22909  1.0000 -0.1075687313
C   C112      1.0  0.56362  0.74500  0.27091  1.0000 -0.1075687313
C   C113      1.0  0.63758  0.78370  0.81264  1.0000 -0.0209865612
C   C114      1.0  0.36242  0.28370  0.68736  1.0000 -0.0209865612
C   C115      1.0  0.36242  0.21630  0.18736  1.0000 -0.0209865612
C   C116      1.0  0.63758  0.71630  0.31264  1.0000 -0.0209865612
C   C117      1.0  0.64360  0.75780  0.85435  1.0000 -0.102687387
C   C118      1.0  0.35640  0.25780  0.64565  1.0000 -0.1075687313
C   C119      1.0  0.35640  0.24220  0.14565  1.0000 -0.102687387
C   C120      1.0  0.64360  0.74220  0.35435  1.0000 -0.1075687313
C   C121      1.0  0.57820  0.70370  0.85405  1.0000 -0.1075687313
C   C122      1.0  0.42180  0.20370  0.64595  1.0000 -0.1075687313
C   C123      1.0  0.42180  0.29630  0.14595  1.0000 -0.1075687313
C   C124      1.0  0.57820  0.79630  0.35405  1.0000 -0.1075687313
C   C125      1.0  0.70870  0.84760  0.81250  1.0000 0.6094416662
C   C126      1.0  0.29130  0.34760  0.68750  1.0000 0.6094416662
C   C127      1.0  0.29130  0.15240  0.18750  1.0000 0.6094416662
C   C128      1.0  0.70870  0.65240  0.31250  1.0000 0.6094416662
O   O1        1.0  0.80450  0.07890  0.81230  1.0000 -0.847349252
O   O2        1.0  0.19550  0.57890  0.68770  1.0000 -0.847349252
O   O3        1.0  0.19550  0.92110  0.18770  1.0000 -0.847349252
O   O4        1.0  0.80450  0.42110  0.31230  1.0000 -0.847349252
O   O5        1.0  0.94544  0.90990  0.93832  1.0000 -0.8665939102
O   O6        1.0  0.05456  0.40990  0.56168  1.0000 -0.8665939102
O   O7        1.0  0.05456  0.09010  0.06168  1.0000 -0.8665939102
O   O8        1.0  0.94544  0.59010  0.43832  1.0000 -0.8665939102
O   O9        1.0  0.30538  0.40590  0.81289  1.0000 -0.8440802523
O   O10       1.0  0.69462  0.90590  0.68711  1.0000 -0.847349252
O   O11       1.0  0.69462  0.59410  0.18711  1.0000 -0.847349252
O   O12       1.0  0.30538  0.09410  0.31289  1.0000 -0.847349252
O   O13       1.0  0.44390  0.58390  0.93675  1.0000 -0.8619107881
O   O14       1.0  0.55610  0.08390  0.56325  1.0000 -0.8619107881
O   O15       1.0  0.55610  0.41610  0.06325  1.0000 -0.8619107881
O   O16       1.0  0.44390  0.91610  0.43675  1.0000 -0.8619107881
O   O17       1.0  0.05180  0.12290  0.97560  1.0000 -0.5782271559
O   O18       1.0  0.94820  0.62290  0.52440  1.0000 -0.5782271559
O   O19       1.0  0.94820  0.87710  0.02440  1.0000 -0.5782271559
O   O20       1.0  0.05180  0.37710  0.47560  1.0000 -0.5782271559
O   O21       1.0  0.97466  0.12010  0.89773  1.0000 -0.5699799196
O   O22       1.0  0.02534  0.62010  0.60227  1.0000 -0.5699799196
O   O23       1.0  0.02534  0.87990  0.10227  1.0000 -0.5699799196
O   O24       1.0  0.97466  0.37990  0.39773  1.0000 -0.5699799196
O   O25       1.0  0.38154  0.40980  0.97707  1.0000 -0.5699799196
O   O26       1.0  0.61846  0.90980  0.52293  1.0000 -0.5699799196
O   O27       1.0  0.61846  0.59020  0.02293  1.0000 -0.5699799196
O   O28       1.0  0.38154  0.09020  0.47707  1.0000 -0.5699799196
O   O29       1.0  0.30748  0.40210  0.89964  1.0000 -0.5699799196
O   O30       1.0  0.69252  0.90210  0.60036  1.0000 -0.5699799196
O   O31       1.0  0.69252  0.59790  0.10036  1.0000 -0.5699799196
O   O32       1.0  0.30748  0.09790  0.39964  1.0000 -0.5699799196
O   O33       1.0  0.27462  0.61860  0.85076  1.0000 -0.5597237924
O   O34       1.0  0.72538  0.11860  0.64924  1.0000 -0.5597237924
O   O35       1.0  0.72538  0.38140  0.14924  1.0000 -0.5597237924
O   O36       1.0  0.27462  0.88140  0.35076  1.0000 -0.5597237924
O   O37       1.0  0.19588  0.61740  0.77319  1.0000 -0.5782271559
O   O38       1.0  0.80412  0.11740  0.72681  1.0000 -0.5782271559
O   O39       1.0  0.80412  0.38260  0.22681  1.0000 -0.5782271559
O   O40       1.0  0.19588  0.88260  0.27319  1.0000 -0.5782271559
O   O41       1.0  0.86734  0.90060  0.77417  1.0000 -0.5699799196
O   O42       1.0  0.13266  0.40060  0.72583  1.0000 -0.5699799196
O   O43       1.0  0.13266  0.09940  0.22583  1.0000 -0.5699799196
O   O44       1.0  0.86734  0.59940  0.27417  1.0000 -0.5699799196
O   O45       1.0  0.94660  0.90470  0.85150  1.0000 -0.5699799196
O   O46       1.0  0.05340  0.40470  0.64850  1.0000 -0.5699799196
O   O47       1.0  0.05340  0.09530  0.14850  1.0000 -0.5699799196
O   O48       1.0  0.94660  0.59530  0.35150  1.0000 -0.5699799196
O   O49       1.0  0.80316  0.08800  0.89728  1.0000 -0.5699799196
O   O50       1.0  0.19684  0.58800  0.60272  1.0000 -0.5699799196
O   O51       1.0  0.19684  0.91200  0.10272  1.0000 -0.5699799196
O   O52       1.0  0.80316  0.41200  0.39728  1.0000 -0.5699799196
O   O53       1.0  0.88300  0.09340  0.97540  1.0000 -0.5699799196
O   O54       1.0  0.11700  0.59340  0.52460  1.0000 -0.5699799196
O   O55       1.0  0.11700  0.90660  0.02460  1.0000 -0.5782271559
O   O56       1.0  0.88300  0.40660  0.47540  1.0000 -0.5699799196
O   O57       1.0  0.47602  0.37370  0.89906  1.0000 -0.5782271559
O   O58       1.0  0.52398  0.87370  0.60094  1.0000 -0.5782271559
O   O59       1.0  0.52398  0.62630  0.10094  1.0000 -0.5782271559
O   O60       1.0  0.47602  0.12630  0.39906  1.0000 -0.5782271559
O   O61       1.0  0.55336  0.37470  0.97683  1.0000 -0.5699799196
O   O62       1.0  0.44664  0.87470  0.52317  1.0000 -0.5699799196
O   O63       1.0  0.44664  0.62530  0.02317  1.0000 -0.5699799196
O   O64       1.0  0.55336  0.12530  0.47683  1.0000 -0.5699799196
O   O65       1.0  0.44268  0.58980  0.85054  1.0000 -0.5699799196
O   O66       1.0  0.55732  0.08980  0.64946  1.0000 -0.5699799196
O   O67       1.0  0.55732  0.41020  0.14946  1.0000 -0.5699799196
O   O68       1.0  0.44268  0.91020  0.35054  1.0000 -0.5699799196
O   O69       1.0  0.36570  0.58790  0.77320  1.0000 -0.5782271559
O   O70       1.0  0.63430  0.08790  0.72680  1.0000 -0.5782271559
O   O71       1.0  0.63430  0.41210  0.22680  1.0000 -0.5782271559
O   O72       1.0  0.36570  0.91210  0.27320  1.0000 -0.5782271559
O   O73       1.0  0.69620  0.87130  0.77385  1.0000 -0.5699799196
O   O74       1.0  0.30380  0.37130  0.72615  1.0000 -0.5699799196
O   O75       1.0  0.30380  0.12870  0.22615  1.0000 -0.5699799196
O   O76       1.0  0.69620  0.62870  0.27385  1.0000 -0.5699799196
O   O77       1.0  0.77432  0.87100  0.85136  1.0000 -0.5699799196
O   O78       1.0  0.22568  0.37100  0.64864  1.0000 -0.5699799196
O   O79       1.0  0.22568  0.12900  0.14864  1.0000 -0.5699799196
O   O80       1.0  0.77432  0.62900  0.35136  1.0000 -0.5699799196
