# DDEC6 charges by PACMAN v1.1 (https://github.com/mtap-research/PACMAN-charge/)
data_2005[Zn][nan]3[FSR]4
_chemical_formula_sum              "Zn3 H26 C40 N10 O8"
_cell_length_a       11.558
_cell_length_b       11.617
_cell_length_c       11.841
_cell_angle_alpha    64.11
_cell_angle_beta     81.057
_cell_angle_gamma    72.69

_symmetry_space_group_name_H-M    "P 1"
_symmetry_Int_Tables_number       1

loop_
  _symmetry_equiv_pos_as_xyz
  'x, y, z'

loop_
  _atom_site_type_symbol
  _atom_site_label
  _atom_site_symmetry_multiplicity
  _atom_site_fract_x
  _atom_site_fract_y
  _atom_site_fract_z
  _atom_site_occupancy
  _atom_site_charge
Zn  Zn1       1.0  0.00000  0.00000  0.50000  1.0000 0.8271756401
Zn  Zn2       1.0  0.00000  0.00000  0.00000  1.0000 0.6685179104
Zn  Zn3       1.0  0.00000  0.50000  0.50000  1.0000 0.6685179104
H   H1        1.0  0.21900  0.99940  0.31150  1.0000 0.1099351158
H   H2        1.0  0.78100  0.00060  0.68850  1.0000 0.1099351158
H   H3        1.0  0.36020  0.60120  0.63200  1.0000 0.1282344892
H   H4        1.0  0.63980  0.39880  0.36800  1.0000 0.1282344892
H   H5        1.0  0.16800  0.72330  0.63510  1.0000 0.122148626
H   H6        1.0  0.83200  0.27670  0.36490  1.0000 0.122148626
H   H7        1.0  0.41570  0.88590  0.30070  1.0000 0.1282344892
H   H8        1.0  0.58430  0.11410  0.69930  1.0000 0.1282344892
H   H9        1.0  0.64300  0.80880  0.02850  1.0000 0.1282344892
H   H10       1.0  0.35700  0.19120  0.97150  1.0000 0.1282344892
H   H11       1.0  0.55550  0.54720  0.65690  1.0000 0.1282344892
H   H12       1.0  0.44450  0.45280  0.34310  1.0000 0.1282344892
H   H13       1.0  0.46150  0.80530  0.04450  1.0000 0.1282344892
H   H14       1.0  0.53850  0.19470  0.95550  1.0000 0.1282344892
H   H15       1.0  0.58360  0.73540  0.28350  1.0000 0.122148626
H   H16       1.0  0.41640  0.26460  0.71650  1.0000 0.1282344892
H   H17       1.0  0.16290  0.18080  0.98090  1.0000 0.1099351158
H   H18       1.0  0.83710  0.81920  0.01910  1.0000 0.1099351158
H   H19       1.0  0.26240  0.81010  0.04920  1.0000 0.1099351158
H   H20       1.0  0.73760  0.18990  0.95080  1.0000 0.1099351158
H   H21       1.0  0.04150  0.66610  0.18270  1.0000 0.1099351158
H   H22       1.0  0.95850  0.33390  0.81730  1.0000 0.1099351158
H   H23       1.0  0.78650  0.63760  0.29620  1.0000 0.1016021078
H   H24       1.0  0.21350  0.36240  0.70380  1.0000 0.1016021078
H   H25       1.0  0.76030  0.46190  0.65850  1.0000 0.1099351158
H   H26       1.0  0.23970  0.53810  0.34150  1.0000 0.1099351158
C   C1        1.0  0.03920  0.96740  0.76670  1.0000 0.5601129164
C   C2        1.0  0.96080  0.03260  0.23330  1.0000 0.5601129164
C   C3        1.0  0.98000  0.88790  0.26910  1.0000 -0.028585087
C   C4        1.0  0.02000  0.11210  0.73090  1.0000 -0.028585087
C   C5        1.0  0.24880  0.91870  0.37790  1.0000 0.0769706671
C   C6        1.0  0.75120  0.08130  0.62210  1.0000 0.0769706671
C   C7        1.0  0.54410  0.65930  0.46920  1.0000 0.1016021078
C   C8        1.0  0.45590  0.34070  0.53080  1.0000 0.1016021078
C   C9        1.0  0.41450  0.72820  0.46740  1.0000 0.1016021078
C   C10       1.0  0.58550  0.27180  0.53260  1.0000 0.1016021078
C   C11       1.0  0.33450  0.68330  0.56560  1.0000 -0.1991807292
C   C12       1.0  0.66550  0.31670  0.43440  1.0000 -0.1991807292
C   C13       1.0  0.21880  0.75700  0.56680  1.0000 0.0938746263
C   C14       1.0  0.78120  0.24300  0.43320  1.0000 0.0938746263
C   C15       1.0  0.36710  0.85050  0.37050  1.0000 -0.210379603
C   C16       1.0  0.63290  0.14950  0.62950  1.0000 -0.210379603
C   C17       1.0  0.65910  0.88820  0.01350  1.0000 -0.210379603
C   C18       1.0  0.34090  0.11180  0.98650  1.0000 -0.210379603
C   C19       1.0  0.60090  0.57090  0.58200  1.0000 -0.1991807292
C   C20       1.0  0.39910  0.42910  0.41800  1.0000 -0.1991807292
C   C21       1.0  0.56460  0.00110  0.99690  1.0000 0.1016021078
C   C22       1.0  0.43540  0.99890  0.00310  1.0000 0.1016021078
C   C23       1.0  0.40240  0.88440  0.02920  1.0000 -0.210379603
C   C24       1.0  0.59760  0.11560  0.97080  1.0000 -0.210379603
C   C25       1.0  0.61740  0.68110  0.36180  1.0000 -0.210379603
C   C26       1.0  0.38260  0.31890  0.63820  1.0000 -0.210379603
C   C27       1.0  0.77540  0.89580  0.00740  1.0000 0.063503359
C   C28       1.0  0.22460  0.10420  0.99260  1.0000 0.063503359
C   C29       1.0  0.28220  0.88810  0.03270  1.0000 0.0730368872
C   C30       1.0  0.71780  0.11190  0.96730  1.0000 0.0730368872
C   C31       1.0  0.02160  0.71900  0.22690  1.0000 0.1461000671
C   C32       1.0  0.97840  0.28100  0.77310  1.0000 0.1461000671
C   C33       1.0  0.97710  0.77810  0.37860  1.0000 -0.0162574258
C   C34       1.0  0.02290  0.22190  0.62140  1.0000 -0.0162574258
C   C35       1.0  0.94850  0.75390  0.51390  1.0000 0.5601129164
C   C36       1.0  0.05150  0.24610  0.48610  1.0000 0.5601129164
C   C37       1.0  0.73970  0.62280  0.37010  1.0000 0.063503359
C   C38       1.0  0.26030  0.37720  0.62990  1.0000 0.063503359
C   C39       1.0  0.72410  0.51920  0.58200  1.0000 0.0769706671
C   C40       1.0  0.27590  0.48080  0.41800  1.0000 0.0769706671
N   N1        1.0  0.00870  0.84710  0.17170  1.0000 -0.3166877921
N   N2        1.0  0.99130  0.15290  0.82830  1.0000 -0.3166877921
N   N3        1.0  0.17450  0.87460  0.47590  1.0000 -0.210379603
N   N4        1.0  0.82550  0.12540  0.52410  1.0000 -0.210379603
N   N5        1.0  0.80690  0.00380  0.98620  1.0000 -0.191737778
N   N6        1.0  0.19310  0.99620  0.01380  1.0000 -0.191737778
N   N7        1.0  0.00430  0.67040  0.35000  1.0000 -0.3166877921
N   N8        1.0  0.99570  0.32960  0.65000  1.0000 -0.3166877921
N   N9        1.0  0.79450  0.54630  0.47890  1.0000 -0.1991807292
N   N10       1.0  0.20550  0.45370  0.52110  1.0000 -0.1991807292
O   O1        1.0  0.03930  0.92240  0.68970  1.0000 -0.5232623587
O   O2        1.0  0.96070  0.07760  0.31030  1.0000 -0.5232623587
O   O3        1.0  0.05080  0.89550  0.88310  1.0000 -0.5420073042
O   O4        1.0  0.94920  0.10450  0.11690  1.0000 -0.5420073042
O   O5        1.0  0.91750  0.84750  0.54640  1.0000 -0.5232623587
O   O6        1.0  0.08250  0.15250  0.45360  1.0000 -0.5232623587
O   O7        1.0  0.95320  0.63610  0.58730  1.0000 -0.5329597364
O   O8        1.0  0.04680  0.36390  0.41270  1.0000 -0.5329597364
