# DDEC6 charges by PACMAN v1.1 (https://github.com/mtap-research/PACMAN-charge/)
data_2005[Co][nan]3[FSR]2
_chemical_formula_sum              "Co6 H16 C24 N36 O8"
_cell_length_a       15.1926
_cell_length_b       15.1926
_cell_length_c       17.4631
_cell_angle_alpha    86.4573
_cell_angle_beta     93.5427
_cell_angle_gamma    151.912

_symmetry_space_group_name_H-M    "P 1"
_symmetry_Int_Tables_number       1

loop_
  _symmetry_equiv_pos_as_xyz
  'x, y, z'

loop_
  _atom_site_type_symbol
  _atom_site_label
  _atom_site_symmetry_multiplicity
  _atom_site_fract_x
  _atom_site_fract_y
  _atom_site_fract_z
  _atom_site_occupancy
  _atom_site_charge
Co  Co1       1.0  0.89536  0.86206  0.84769  1.0000 1.0215173559
Co  Co2       1.0  0.86206  0.89536  0.65231  1.0000 1.0215173559
Co  Co3       1.0  0.10464  0.13794  0.15231  1.0000 1.0215173559
Co  Co4       1.0  0.13794  0.10464  0.34769  1.0000 1.0215173559
Co  Co5       1.0  0.50000  0.00000  0.00000  1.0000 1.0391211705
Co  Co6       1.0  0.00000  0.50000  0.50000  1.0000 1.0391211705
H   H1        1.0  0.56860  0.60880  0.76310  1.0000 0.3113672631
H   H2        1.0  0.60880  0.56860  0.73690  1.0000 0.3113672631
H   H3        1.0  0.43140  0.39120  0.23690  1.0000 0.3113672631
H   H4        1.0  0.39120  0.43140  0.26310  1.0000 0.3113672631
H   H5        1.0  0.11980  0.16140  0.76210  1.0000 0.3178790556
H   H6        1.0  0.16140  0.11980  0.73790  1.0000 0.3178790556
H   H7        1.0  0.88020  0.83860  0.23790  1.0000 0.3178790556
H   H8        1.0  0.83860  0.88020  0.26210  1.0000 0.3178790556
H   H9        1.0  0.82020  0.31740  0.93350  1.0000 0.4068259047
H   H10       1.0  0.31740  0.82020  0.56650  1.0000 0.4068259047
H   H11       1.0  0.17980  0.68260  0.06650  1.0000 0.4068259047
H   H12       1.0  0.68260  0.17980  0.43350  1.0000 0.4068259047
H   H13       1.0  0.80590  0.35330  0.01070  1.0000 0.3989937352
H   H14       1.0  0.35330  0.80590  0.48930  1.0000 0.3989937352
H   H15       1.0  0.19410  0.64670  0.98930  1.0000 0.3989937352
H   H16       1.0  0.64670  0.19410  0.51070  1.0000 0.3989937352
C   C1        1.0  0.72120  0.89900  0.86180  1.0000 0.4707829962
C   C2        1.0  0.89900  0.72120  0.63820  1.0000 0.4707829962
C   C3        1.0  0.27880  0.10100  0.13820  1.0000 0.4707829962
C   C4        1.0  0.10100  0.27880  0.36180  1.0000 0.4707829962
C   C5        1.0  0.59725  0.92095  0.89730  1.0000 0.4770555543
C   C6        1.0  0.92095  0.59725  0.60270  1.0000 0.4770555543
C   C7        1.0  0.40275  0.07905  0.10270  1.0000 0.4770555543
C   C8        1.0  0.07905  0.40275  0.39730  1.0000 0.4770555543
C   C9        1.0  0.57293  0.48367  0.94250  1.0000 0.4575702028
C   C10       1.0  0.48367  0.57293  0.55750  1.0000 0.4575702028
C   C11       1.0  0.42707  0.51633  0.05750  1.0000 0.4575702028
C   C12       1.0  0.51633  0.42707  0.44250  1.0000 0.4575702028
C   C13       1.0  0.26734  0.18306  0.94600  1.0000 0.4575702028
C   C14       1.0  0.18306  0.26734  0.55400  1.0000 0.4575702028
C   C15       1.0  0.73266  0.81694  0.05400  1.0000 0.4548476534
C   C16       1.0  0.81694  0.73266  0.44600  1.0000 0.4548476534
C   C17       1.0  0.05796  0.81524  0.81640  1.0000 0.4575702028
C   C18       1.0  0.81524  0.05796  0.68360  1.0000 0.4575702028
C   C19       1.0  0.94204  0.18476  0.18360  1.0000 0.4575702028
C   C20       1.0  0.18476  0.94204  0.31640  1.0000 0.4575702028
C   C21       1.0  0.24263  0.86717  0.86650  1.0000 0.4707829962
C   C22       1.0  0.86717  0.24263  0.63350  1.0000 0.4707829962
C   C23       1.0  0.75737  0.13283  0.13350  1.0000 0.4707829962
C   C24       1.0  0.13283  0.75737  0.36650  1.0000 0.4707829962
N   N1        1.0  0.80516  0.90884  0.86216  1.0000 -0.5270455061
N   N2        1.0  0.90884  0.80516  0.63784  1.0000 -0.5270455061
N   N3        1.0  0.19484  0.09116  0.13784  1.0000 -0.5270455061
N   N4        1.0  0.09116  0.19484  0.36216  1.0000 -0.5270455061
N   N5        1.0  0.62009  0.87971  0.85030  1.0000 -0.4129840983
N   N6        1.0  0.87971  0.62009  0.64970  1.0000 -0.4154870911
N   N7        1.0  0.37991  0.12029  0.14970  1.0000 -0.4129840983
N   N8        1.0  0.12029  0.37991  0.35030  1.0000 -0.4154870911
N   N9        1.0  0.56079  0.94761  0.93180  1.0000 -0.5408622427
N   N10       1.0  0.94761  0.56079  0.56820  1.0000 -0.5408622427
N   N11       1.0  0.43921  0.05239  0.06820  1.0000 -0.5408622427
N   N12       1.0  0.05239  0.43921  0.43180  1.0000 -0.5408622427
N   N13       1.0  0.70342  0.63438  0.91980  1.0000 -0.5122304165
N   N14       1.0  0.63438  0.70342  0.58020  1.0000 -0.5122304165
N   N15       1.0  0.29658  0.36562  0.08020  1.0000 -0.5122304165
N   N16       1.0  0.36562  0.29658  0.41980  1.0000 -0.5122304165
N   N17       1.0  0.43674  0.31686  0.97370  1.0000 -0.4029500215
N   N18       1.0  0.31686  0.43674  0.52630  1.0000 -0.4029500215
N   N19       1.0  0.56326  0.68314  0.02630  1.0000 -0.4029500215
N   N20       1.0  0.68314  0.56326  0.47370  1.0000 -0.4029500215
N   N21       1.0  0.11682  0.06038  0.92440  1.0000 -0.5122304165
N   N22       1.0  0.06038  0.11682  0.57560  1.0000 -0.5122304165
N   N23       1.0  0.88318  0.93962  0.07560  1.0000 -0.5122304165
N   N24       1.0  0.93962  0.88318  0.42440  1.0000 -0.5122304165
N   N25       1.0  0.98884  0.82296  0.81487  1.0000 -0.5270455061
N   N26       1.0  0.82296  0.98884  0.68513  1.0000 -0.5270455061
N   N27       1.0  0.01116  0.17704  0.18513  1.0000 -0.5270455061
N   N28       1.0  0.17704  0.01116  0.31487  1.0000 -0.5270455061
N   N29       1.0  0.12519  0.79561  0.81300  1.0000 -0.453580658
N   N30       1.0  0.79561  0.12519  0.68700  1.0000 -0.4582495494
N   N31       1.0  0.87481  0.20439  0.18700  1.0000 -0.453580658
N   N32       1.0  0.20439  0.87481  0.31300  1.0000 -0.453580658
N   N33       1.0  0.34529  0.92331  0.90860  1.0000 -0.5154935125
N   N34       1.0  0.92331  0.34529  0.59140  1.0000 -0.5154935125
N   N35       1.0  0.65471  0.07669  0.09140  1.0000 -0.5122304165
N   N36       1.0  0.07669  0.65471  0.40860  1.0000 -0.5154935125
O   O1        1.0  0.67300  0.67300  0.75000  1.0000 -0.6559317811
O   O2        1.0  0.32700  0.32700  0.25000  1.0000 -0.6559317811
O   O3        1.0  0.06830  0.06830  0.75000  1.0000 -0.6218510075
O   O4        1.0  0.93170  0.93170  0.25000  1.0000 -0.6218510075
O   O5        1.0  0.74645  0.28515  0.96366  1.0000 -0.7211980624
O   O6        1.0  0.28515  0.74645  0.53634  1.0000 -0.7211980624
O   O7        1.0  0.25355  0.71485  0.03634  1.0000 -0.7211980624
O   O8        1.0  0.71485  0.25355  0.46366  1.0000 -0.7211980624
