# DDEC6 charges by PACMAN v1.1 (https://github.com/mtap-research/PACMAN-charge/)
data_2005[LaNi][stp]3[FSR]1
_chemical_formula_sum              "La2 Ni3 H30 C24 N6 O24"
_cell_length_a       13.2539
_cell_length_b       13.2539
_cell_length_c       7.4881
_cell_angle_alpha    90
_cell_angle_beta     90
_cell_angle_gamma    120

_symmetry_space_group_name_H-M    "P 1"
_symmetry_Int_Tables_number       1

loop_
  _symmetry_equiv_pos_as_xyz
  'x, y, z'

loop_
  _atom_site_type_symbol
  _atom_site_label
  _atom_site_symmetry_multiplicity
  _atom_site_fract_x
  _atom_site_fract_y
  _atom_site_fract_z
  _atom_site_occupancy
  _atom_site_charge
La  La1       1.0  0.33333  0.66667  0.66949  1.0000 1.8551148943
La  La2       1.0  0.66667  0.33333  0.33051  1.0000 1.8551148943
Ni  Ni1       1.0  0.50000  0.00000  0.00000  1.0000 0.7154307536
Ni  Ni2       1.0  0.00000  0.50000  0.00000  1.0000 0.7154307536
Ni  Ni3       1.0  0.50000  0.50000  0.00000  1.0000 0.7154307536
H   H1        1.0  0.26880  0.82630  0.28530  1.0000 0.1505204561
H   H2        1.0  0.17370  0.44250  0.28530  1.0000 0.1505204561
H   H3        1.0  0.55750  0.73120  0.28530  1.0000 0.1505204561
H   H4        1.0  0.73120  0.17370  0.71470  1.0000 0.1505204561
H   H5        1.0  0.82630  0.55750  0.71470  1.0000 0.1505204561
H   H6        1.0  0.44250  0.26880  0.71470  1.0000 0.1505204561
H   H7        1.0  0.33350  0.94210  0.39480  1.0000 0.1505204561
H   H8        1.0  0.05790  0.39140  0.39480  1.0000 0.1505204561
H   H9        1.0  0.60860  0.66650  0.39480  1.0000 0.1505204561
H   H10       1.0  0.66650  0.05790  0.60520  1.0000 0.1505204561
H   H11       1.0  0.94210  0.60860  0.60520  1.0000 0.1505204561
H   H12       1.0  0.39140  0.33350  0.60520  1.0000 0.1505204561
H   H13       1.0  0.35450  0.03650  0.16110  1.0000 0.2500404886
H   H14       1.0  0.96350  0.31800  0.16110  1.0000 0.2500404886
H   H15       1.0  0.68200  0.64550  0.16110  1.0000 0.2500404886
H   H16       1.0  0.64550  0.96350  0.83890  1.0000 0.2500404886
H   H17       1.0  0.03650  0.68200  0.83890  1.0000 0.2500404886
H   H18       1.0  0.31800  0.35450  0.83890  1.0000 0.2500404886
H   H19       1.0  0.24430  0.96210  0.93370  1.0000 0.1387164391
H   H20       1.0  0.03790  0.28220  0.93370  1.0000 0.1387164391
H   H21       1.0  0.71780  0.75570  0.93370  1.0000 0.1387164391
H   H22       1.0  0.75570  0.03790  0.06630  1.0000 0.1387164391
H   H23       1.0  0.96210  0.71780  0.06630  1.0000 0.1387164391
H   H24       1.0  0.28220  0.24430  0.06630  1.0000 0.1387164391
H   H25       1.0  0.18370  0.85590  0.06490  1.0000 0.1387164391
H   H26       1.0  0.14410  0.32780  0.06490  1.0000 0.1387164391
H   H27       1.0  0.67220  0.81630  0.06490  1.0000 0.1387164391
H   H28       1.0  0.81630  0.14410  0.93510  1.0000 0.1387164391
H   H29       1.0  0.85590  0.67220  0.93510  1.0000 0.1387164391
H   H30       1.0  0.32780  0.18370  0.93510  1.0000 0.1387164391
C   C1        1.0  0.43960  0.87980  0.32340  1.0000 0.6392883233
C   C2        1.0  0.12020  0.55980  0.32340  1.0000 0.6392883233
C   C3        1.0  0.44020  0.56040  0.32340  1.0000 0.6392883233
C   C4        1.0  0.56040  0.12020  0.67660  1.0000 0.6392883233
C   C5        1.0  0.87980  0.44020  0.67660  1.0000 0.6392883233
C   C6        1.0  0.55980  0.43960  0.67660  1.0000 0.6392883233
C   C7        1.0  0.34010  0.90100  0.29240  1.0000 -0.2654298671
C   C8        1.0  0.09900  0.43910  0.29240  1.0000 -0.2654298671
C   C9        1.0  0.56090  0.65990  0.29240  1.0000 -0.2654298671
C   C10       1.0  0.65990  0.09900  0.70760  1.0000 -0.2654298671
C   C11       1.0  0.90100  0.56090  0.70760  1.0000 -0.2654298671
C   C12       1.0  0.43910  0.34010  0.70760  1.0000 -0.2654298671
C   C13       1.0  0.25550  0.90610  0.00150  1.0000 -0.2417753317
C   C14       1.0  0.09390  0.34940  0.00150  1.0000 -0.2417753317
C   C15       1.0  0.65060  0.74450  0.00150  1.0000 -0.2417753317
C   C16       1.0  0.74450  0.09390  0.99850  1.0000 -0.2417753317
C   C17       1.0  0.90610  0.65060  0.99850  1.0000 -0.2417753317
C   C18       1.0  0.34940  0.25550  0.99850  1.0000 -0.2417753317
C   C19       1.0  0.28220  0.83330  0.87420  1.0000 0.5990309886
C   C20       1.0  0.16670  0.44890  0.87420  1.0000 0.5990309886
C   C21       1.0  0.55110  0.71780  0.87420  1.0000 0.5990309886
C   C22       1.0  0.71780  0.16670  0.12580  1.0000 0.5990309886
C   C23       1.0  0.83330  0.55110  0.12580  1.0000 0.5990309886
C   C24       1.0  0.44890  0.28220  0.12580  1.0000 0.5990309886
N   N1        1.0  0.34986  0.96790  0.13050  1.0000 -0.2453444578
N   N2        1.0  0.03210  0.38196  0.13050  1.0000 -0.2453444578
N   N3        1.0  0.61804  0.65014  0.13050  1.0000 -0.2453444578
N   N4        1.0  0.65014  0.03210  0.86950  1.0000 -0.2453444578
N   N5        1.0  0.96790  0.61804  0.86950  1.0000 -0.2453444578
N   N6        1.0  0.38196  0.34986  0.86950  1.0000 -0.2453444578
O   O1        1.0  0.43420  0.82390  0.46050  1.0000 -0.6235573121
O   O2        1.0  0.17610  0.61030  0.46050  1.0000 -0.6235573121
O   O3        1.0  0.38970  0.56580  0.46050  1.0000 -0.6235573121
O   O4        1.0  0.56580  0.17610  0.53950  1.0000 -0.6235573121
O   O5        1.0  0.82390  0.38970  0.53950  1.0000 -0.6235573121
O   O6        1.0  0.61030  0.43420  0.53950  1.0000 -0.6235573121
O   O7        1.0  0.52356  0.91972  0.21490  1.0000 -0.5300481248
O   O8        1.0  0.08028  0.60384  0.21490  1.0000 -0.5300481248
O   O9        1.0  0.39616  0.47644  0.21490  1.0000 -0.5300481248
O   O10       1.0  0.47644  0.08028  0.78510  1.0000 -0.5300481248
O   O11       1.0  0.91972  0.39616  0.78510  1.0000 -0.5300481248
O   O12       1.0  0.60384  0.52356  0.78510  1.0000 -0.5300481248
O   O13       1.0  0.37973  0.83778  0.88950  1.0000 -0.5800853797
O   O14       1.0  0.16222  0.54195  0.88950  1.0000 -0.5800853797
O   O15       1.0  0.45805  0.62027  0.88950  1.0000 -0.5800853797
O   O16       1.0  0.62027  0.16222  0.11050  1.0000 -0.5800853797
O   O17       1.0  0.83778  0.45805  0.11050  1.0000 -0.5800853797
O   O18       1.0  0.54195  0.37973  0.11050  1.0000 -0.5800853797
O   O19       1.0  0.20988  0.77115  0.76060  1.0000 -0.5566801258
O   O20       1.0  0.22885  0.43873  0.76060  1.0000 -0.5566801258
O   O21       1.0  0.56127  0.79012  0.76060  1.0000 -0.5566801258
O   O22       1.0  0.79012  0.22885  0.23940  1.0000 -0.5566801258
O   O23       1.0  0.77115  0.56127  0.23940  1.0000 -0.5566801258
O   O24       1.0  0.43873  0.20988  0.23940  1.0000 -0.5566801258
