# DDEC6 charges by PACMAN v1.1 (https://github.com/mtap-research/PACMAN-charge/)
data_2005[Cd][nan]3[FSR]1
_chemical_formula_sum              "Cd6 H32 C64 O32"
_cell_length_a       11.4066
_cell_length_b       11.4066
_cell_length_c       14.906
_cell_angle_alpha    83.3855
_cell_angle_beta     96.6145
_cell_angle_gamma    73.7277

_symmetry_space_group_name_H-M    "P 1"
_symmetry_Int_Tables_number       1

loop_
  _symmetry_equiv_pos_as_xyz
  'x, y, z'

loop_
  _atom_site_type_symbol
  _atom_site_label
  _atom_site_symmetry_multiplicity
  _atom_site_fract_x
  _atom_site_fract_y
  _atom_site_fract_z
  _atom_site_occupancy
  _atom_site_charge
Cd  Cd1       1.0  0.55076  0.86830  0.42544  1.0000 1.0307284068
Cd  Cd2       1.0  0.86830  0.55076  0.07456  1.0000 1.0307284068
Cd  Cd3       1.0  0.44924  0.13170  0.57456  1.0000 1.0307284068
Cd  Cd4       1.0  0.13170  0.44924  0.92544  1.0000 1.0307284068
Cd  Cd5       1.0  0.32748  0.32748  0.75000  1.0000 1.1357731293
Cd  Cd6       1.0  0.67252  0.67252  0.25000  1.0000 1.1357731293
H   H1        1.0  0.17300  0.04500  0.56450  1.0000 0.1285891018
H   H2        1.0  0.04500  0.17300  0.93550  1.0000 0.1285891018
H   H3        1.0  0.82700  0.95500  0.43550  1.0000 0.1285891018
H   H4        1.0  0.95500  0.82700  0.06450  1.0000 0.1285891018
H   H5        1.0  0.36320  0.68600  0.65390  1.0000 0.1455421965
H   H6        1.0  0.68600  0.36320  0.84610  1.0000 0.1455421965
H   H7        1.0  0.63680  0.31400  0.34610  1.0000 0.1455421965
H   H8        1.0  0.31400  0.63680  0.15390  1.0000 0.1455421965
H   H9        1.0  0.02560  0.02780  0.65790  1.0000 0.1183045502
H   H10       1.0  0.02780  0.02560  0.84210  1.0000 0.1183045502
H   H11       1.0  0.97440  0.97220  0.34210  1.0000 0.1183045502
H   H12       1.0  0.97220  0.97440  0.15790  1.0000 0.1183045502
H   H13       1.0  0.04860  0.84060  0.75050  1.0000 0.1285891018
H   H14       1.0  0.84060  0.04860  0.74950  1.0000 0.1285891018
H   H15       1.0  0.95140  0.15940  0.24950  1.0000 0.1285891018
H   H16       1.0  0.15940  0.95140  0.25050  1.0000 0.1285891018
H   H17       1.0  0.58040  0.17320  0.92470  1.0000 0.1285891018
H   H18       1.0  0.17320  0.58040  0.57530  1.0000 0.1285891018
H   H19       1.0  0.41960  0.82680  0.07530  1.0000 0.1285891018
H   H20       1.0  0.82680  0.41960  0.42470  1.0000 0.1285891018
H   H21       1.0  0.76210  0.02930  0.00280  1.0000 0.1285891018
H   H22       1.0  0.02930  0.76210  0.49720  1.0000 0.1285891018
H   H23       1.0  0.23790  0.97070  0.99720  1.0000 0.1285891018
H   H24       1.0  0.97070  0.23790  0.50280  1.0000 0.1285891018
H   H25       1.0  0.40720  0.12020  0.14060  1.0000 0.1428608965
H   H26       1.0  0.12020  0.40720  0.35940  1.0000 0.1428608965
H   H27       1.0  0.59280  0.87980  0.85940  1.0000 0.1428608965
H   H28       1.0  0.87980  0.59280  0.64060  1.0000 0.1428608965
H   H29       1.0  0.76770  0.93150  0.15080  1.0000 0.1285891018
H   H30       1.0  0.93150  0.76770  0.34920  1.0000 0.1285891018
H   H31       1.0  0.23230  0.06850  0.84920  1.0000 0.1285891018
H   H32       1.0  0.06850  0.23230  0.65080  1.0000 0.1285891018
C   C1        1.0  0.38074  0.87674  0.54332  1.0000 0.5814059447
C   C2        1.0  0.87674  0.38074  0.95668  1.0000 0.5814059447
C   C3        1.0  0.61926  0.12326  0.45668  1.0000 0.5814059447
C   C4        1.0  0.12326  0.61926  0.04332  1.0000 0.5814059447
C   C5        1.0  0.28358  0.86758  0.60150  1.0000 0.0006617082
C   C6        1.0  0.86758  0.28358  0.89850  1.0000 0.0006617082
C   C7        1.0  0.71642  0.13242  0.39850  1.0000 0.0006617082
C   C8        1.0  0.13242  0.71642  0.10150  1.0000 0.0006617082
C   C9        1.0  0.18245  0.96865  0.60200  1.0000 -0.0940507934
C   C10       1.0  0.96865  0.18245  0.89800  1.0000 -0.0940507934
C   C11       1.0  0.81755  0.03135  0.39800  1.0000 -0.0940507934
C   C12       1.0  0.03135  0.81755  0.10200  1.0000 -0.0940507934
C   C13       1.0  0.29473  0.75573  0.65520  1.0000 -0.1000800373
C   C14       1.0  0.75573  0.29473  0.84480  1.0000 -0.1000800373
C   C15       1.0  0.70527  0.24427  0.34480  1.0000 -0.1000800373
C   C16       1.0  0.24427  0.70527  0.15520  1.0000 -0.1000800373
C   C17       1.0  0.09479  0.95839  0.65740  1.0000 -0.0940507934
C   C18       1.0  0.95839  0.09479  0.84260  1.0000 -0.0940507934
C   C19       1.0  0.90521  0.04161  0.34260  1.0000 -0.0940507934
C   C20       1.0  0.04161  0.90521  0.15740  1.0000 -0.0940507934
C   C21       1.0  0.10810  0.84670  0.71200  1.0000 -0.1000800373
C   C22       1.0  0.84670  0.10810  0.78800  1.0000 -0.1000800373
C   C23       1.0  0.89190  0.15330  0.28800  1.0000 -0.1000800373
C   C24       1.0  0.15330  0.89190  0.21200  1.0000 -0.1000800373
C   C25       1.0  0.20731  0.74431  0.71073  1.0000 -0.0125114128
C   C26       1.0  0.74431  0.20731  0.78927  1.0000 -0.0125114128
C   C27       1.0  0.79269  0.25569  0.28927  1.0000 -0.0125114128
C   C28       1.0  0.25569  0.79269  0.21073  1.0000 -0.0125114128
C   C29       1.0  0.21927  0.61907  0.76421  1.0000 0.5997743081
C   C30       1.0  0.61907  0.21927  0.73579  1.0000 0.5997743081
C   C31       1.0  0.78073  0.38093  0.23579  1.0000 0.5997743081
C   C32       1.0  0.38093  0.78073  0.26421  1.0000 0.5997743081
C   C33       1.0  0.35837  0.25557  0.97820  1.0000 0.5814059447
C   C34       1.0  0.25557  0.35837  0.52180  1.0000 0.5814059447
C   C35       1.0  0.64163  0.74443  0.02180  1.0000 0.5814059447
C   C36       1.0  0.74443  0.64163  0.47820  1.0000 0.5814059447
C   C37       1.0  0.58177  0.13317  0.98450  1.0000 -0.0805290923
C   C38       1.0  0.13317  0.58177  0.51550  1.0000 -0.0805290923
C   C39       1.0  0.41823  0.86683  0.01550  1.0000 -0.0805290923
C   C40       1.0  0.86683  0.41823  0.48450  1.0000 -0.0805290923
C   C41       1.0  0.47544  0.15984  0.02504  1.0000 -0.0014527277
C   C42       1.0  0.15984  0.47544  0.47496  1.0000 -0.0014527277
C   C43       1.0  0.52456  0.84016  0.97496  1.0000 -0.0014527277
C   C44       1.0  0.84016  0.52456  0.52504  1.0000 -0.0014527277
C   C45       1.0  0.68999  0.04819  0.03120  1.0000 -0.0805290923
C   C46       1.0  0.04819  0.68999  0.46880  1.0000 -0.0805290923
C   C47       1.0  0.31001  0.95181  0.96880  1.0000 -0.0805290923
C   C48       1.0  0.95181  0.31001  0.53120  1.0000 -0.0805290923
C   C49       1.0  0.47975  0.10255  0.11280  1.0000 -0.1000800373
C   C50       1.0  0.10255  0.47975  0.38720  1.0000 -0.1000800373
C   C51       1.0  0.52025  0.89745  0.88720  1.0000 -0.1000800373
C   C52       1.0  0.89745  0.52025  0.61280  1.0000 -0.1000800373
C   C53       1.0  0.69387  0.99047  0.11920  1.0000 -0.0940507934
C   C54       1.0  0.99047  0.69387  0.38080  1.0000 -0.0940507934
C   C55       1.0  0.30613  0.00953  0.88080  1.0000 -0.0940507934
C   C56       1.0  0.00953  0.30613  0.61920  1.0000 -0.0940507934
C   C57       1.0  0.58772  0.02012  0.16076  1.0000 -0.0235470165
C   C58       1.0  0.02012  0.58772  0.33924  1.0000 -0.0235470165
C   C59       1.0  0.41228  0.97988  0.83924  1.0000 -0.0235470165
C   C60       1.0  0.97988  0.41228  0.66076  1.0000 -0.0235470165
C   C61       1.0  0.58794  0.96594  0.25656  1.0000 0.5712646316
C   C62       1.0  0.96594  0.58794  0.24344  1.0000 0.5712646316
C   C63       1.0  0.41206  0.03406  0.74344  1.0000 0.5712646316
C   C64       1.0  0.03406  0.41206  0.75656  1.0000 0.5712646316
O   O1        1.0  0.37741  0.97999  0.50073  1.0000 -0.5398210515
O   O2        1.0  0.97999  0.37741  0.99927  1.0000 -0.5398210515
O   O3        1.0  0.62259  0.02001  0.49927  1.0000 -0.5398210515
O   O4        1.0  0.02001  0.62259  0.00073  1.0000 -0.5398210515
O   O5        1.0  0.46313  0.77859  0.53767  1.0000 -0.484744214
O   O6        1.0  0.77859  0.46313  0.96233  1.0000 -0.484744214
O   O7        1.0  0.53687  0.22141  0.46233  1.0000 -0.484744214
O   O8        1.0  0.22141  0.53687  0.03767  1.0000 -0.484744214
O   O9        1.0  0.26182  0.26804  0.01324  1.0000 -0.4877567817
O   O10       1.0  0.26804  0.26182  0.48676  1.0000 -0.4877567817
O   O11       1.0  0.73818  0.73196  0.98676  1.0000 -0.4877567817
O   O12       1.0  0.73196  0.73818  0.51324  1.0000 -0.4877567817
O   O13       1.0  0.36390  0.32556  0.90750  1.0000 -0.5736403097
O   O14       1.0  0.32556  0.36390  0.59250  1.0000 -0.5736403097
O   O15       1.0  0.63610  0.67444  0.09250  1.0000 -0.5736403097
O   O16       1.0  0.67444  0.63610  0.40750  1.0000 -0.5736403097
O   O17       1.0  0.28952  0.52950  0.73535  1.0000 -0.5485358168
O   O18       1.0  0.52950  0.28952  0.76465  1.0000 -0.5485358168
O   O19       1.0  0.71048  0.47050  0.26465  1.0000 -0.5485358168
O   O20       1.0  0.47050  0.71048  0.23535  1.0000 -0.5485358168
O   O21       1.0  0.16087  0.61409  0.82921  1.0000 -0.5215064217
O   O22       1.0  0.61409  0.16087  0.67079  1.0000 -0.5215064217
O   O23       1.0  0.83913  0.38591  0.17079  1.0000 -0.5215064217
O   O24       1.0  0.38591  0.83913  0.32921  1.0000 -0.5215064217
O   O25       1.0  0.66378  0.86170  0.29086  1.0000 -0.5810792376
O   O26       1.0  0.86170  0.66378  0.20914  1.0000 -0.5810792376
O   O27       1.0  0.33622  0.13830  0.70914  1.0000 -0.5810792376
O   O28       1.0  0.13830  0.33622  0.79086  1.0000 -0.5810792376
O   O29       1.0  0.51218  0.02580  0.30191  1.0000 -0.4647349943
O   O30       1.0  0.02580  0.51218  0.19809  1.0000 -0.4647349943
O   O31       1.0  0.48782  0.97420  0.69809  1.0000 -0.4647349943
O   O32       1.0  0.97420  0.48782  0.80191  1.0000 -0.4647349943
