# DDEC6 charges by PACMAN v1.1 (https://github.com/mtap-research/PACMAN-charge/)
data_2006[Ni][ins]3[FSR]1
_chemical_formula_sum              "Ni4 H36 C36 N8 O16"
_cell_length_a       6.5697
_cell_length_b       22.6167
_cell_length_c       10.2237
_cell_angle_alpha    90
_cell_angle_beta     129.832
_cell_angle_gamma    90

_symmetry_space_group_name_H-M    "P 1"
_symmetry_Int_Tables_number       1

loop_
  _symmetry_equiv_pos_as_xyz
  'x, y, z'

loop_
  _atom_site_type_symbol
  _atom_site_label
  _atom_site_symmetry_multiplicity
  _atom_site_fract_x
  _atom_site_fract_y
  _atom_site_fract_z
  _atom_site_occupancy
  _atom_site_charge
Ni  Ni1       1.0  0.94079  0.20982  0.39402  1.0000 0.7939751401
Ni  Ni2       1.0  0.05921  0.70982  0.10598  1.0000 0.7939751401
Ni  Ni3       1.0  0.05921  0.79018  0.60598  1.0000 0.7939751401
Ni  Ni4       1.0  0.94079  0.29018  0.89402  1.0000 0.7939751401
H   H1        1.0  0.82760  0.19370  0.95540  1.0000 0.2867551252
H   H2        1.0  0.17240  0.69370  0.54460  1.0000 0.2867551252
H   H3        1.0  0.17240  0.80630  0.04460  1.0000 0.2867551252
H   H4        1.0  0.82760  0.30630  0.45540  1.0000 0.2867551252
H   H5        1.0  0.60090  0.20990  0.78020  1.0000 0.296985279
H   H6        1.0  0.39910  0.70990  0.71980  1.0000 0.296985279
H   H7        1.0  0.39910  0.79010  0.21980  1.0000 0.296985279
H   H8        1.0  0.60090  0.29010  0.28020  1.0000 0.296985279
H   H9        1.0  0.28540  0.15880  0.32140  1.0000 0.1200774192
H   H10       1.0  0.71460  0.65880  0.17860  1.0000 0.1200774192
H   H11       1.0  0.71460  0.84120  0.67860  1.0000 0.1200774192
H   H12       1.0  0.28540  0.34120  0.82140  1.0000 0.1200774192
H   H13       1.0  0.51110  0.07460  0.35660  1.0000 0.1376040458
H   H14       1.0  0.48890  0.57460  0.14340  1.0000 0.1376040458
H   H15       1.0  0.48890  0.92540  0.64340  1.0000 0.1376040458
H   H16       1.0  0.51110  0.42540  0.85660  1.0000 0.1376040458
H   H17       1.0  0.76430  0.13850  0.72690  1.0000 0.0884748317
H   H18       1.0  0.23570  0.63850  0.77310  1.0000 0.0884748317
H   H19       1.0  0.23570  0.86150  0.27310  1.0000 0.0884748317
H   H20       1.0  0.76430  0.36150  0.22690  1.0000 0.0884748317
H   H21       1.0  0.29550  0.00390  0.61120  1.0000 0.130814503
H   H22       1.0  0.70450  0.50390  0.88880  1.0000 0.130814503
H   H23       1.0  0.70450  0.99610  0.38880  1.0000 0.130814503
H   H24       1.0  0.29550  0.49610  0.11120  1.0000 0.130814503
H   H25       1.0  0.06950  0.08900  0.56320  1.0000 0.1073962926
H   H26       1.0  0.93050  0.58900  0.93680  1.0000 0.1073962926
H   H27       1.0  0.93050  0.91100  0.43680  1.0000 0.1073962926
H   H28       1.0  0.06950  0.41100  0.06320  1.0000 0.1073962926
H   H29       1.0  0.12740  0.11710  0.99840  1.0000 0.130814503
H   H30       1.0  0.87260  0.61710  0.50160  1.0000 0.130814503
H   H31       1.0  0.87260  0.88290  0.00160  1.0000 0.130814503
H   H32       1.0  0.12740  0.38290  0.49840  1.0000 0.130814503
H   H33       1.0  0.23160  0.12760  0.89920  1.0000 0.1376040458
H   H34       1.0  0.76840  0.62760  0.60080  1.0000 0.1376040458
H   H35       1.0  0.76840  0.87240  0.10080  1.0000 0.1376040458
H   H36       1.0  0.23160  0.37240  0.39920  1.0000 0.1376040458
C   C1        1.0  0.91520  0.20823  0.67890  1.0000 0.5714596017
C   C2        1.0  0.08480  0.70823  0.82110  1.0000 0.5714596017
C   C3        1.0  0.08480  0.79177  0.32110  1.0000 0.5714596017
C   C4        1.0  0.91520  0.29177  0.17890  1.0000 0.5714596017
C   C5        1.0  0.28460  0.12695  0.37850  1.0000 0.1007868342
C   C6        1.0  0.71540  0.62695  0.12150  1.0000 0.1007868342
C   C7        1.0  0.71540  0.87305  0.62150  1.0000 0.1007868342
C   C8        1.0  0.28460  0.37305  0.87850  1.0000 0.1007868342
C   C9        1.0  0.42280  0.07627  0.40000  1.0000 -0.1919685499
C   C10       1.0  0.57720  0.57627  0.10000  1.0000 -0.1919685499
C   C11       1.0  0.57720  0.92373  0.60000  1.0000 -0.1919685499
C   C12       1.0  0.42280  0.42373  0.90000  1.0000 -0.1919685499
C   C13       1.0  0.42840  0.02794  0.48700  1.0000 0.1007868342
C   C14       1.0  0.57160  0.52794  0.01300  1.0000 0.1007868342
C   C15       1.0  0.57160  0.97206  0.51300  1.0000 0.1007868342
C   C16       1.0  0.42840  0.47206  0.98700  1.0000 0.1007868342
C   C17       1.0  0.88580  0.17153  0.79330  1.0000 0.0386541348
C   C18       1.0  0.11420  0.67153  0.70670  1.0000 0.0386541348
C   C19       1.0  0.11420  0.82847  0.20670  1.0000 0.0386541348
C   C20       1.0  0.88580  0.32847  0.29330  1.0000 0.0386541348
C   C21       1.0  0.35870  0.19184  0.07960  1.0000 0.6382098302
C   C22       1.0  0.64130  0.69184  0.42040  1.0000 0.6382098302
C   C23       1.0  0.64130  0.80816  0.92040  1.0000 0.6382098302
C   C24       1.0  0.35870  0.30816  0.57960  1.0000 0.6382098302
C   C25       1.0  0.29420  0.03446  0.54970  1.0000 -0.2108835996
C   C26       1.0  0.70580  0.53446  0.95030  1.0000 -0.2108835996
C   C27       1.0  0.70580  0.96554  0.45030  1.0000 -0.2108835996
C   C28       1.0  0.29420  0.46554  0.04970  1.0000 -0.2108835996
C   C29       1.0  0.15930  0.08610  0.52100  1.0000 0.0709702402
C   C30       1.0  0.84070  0.58610  0.97900  1.0000 0.0709702402
C   C31       1.0  0.84070  0.91390  0.47900  1.0000 0.0709702402
C   C32       1.0  0.15930  0.41390  0.02100  1.0000 0.0709702402
C   C33       1.0  0.15490  0.14706  0.94320  1.0000 -0.3841467396
C   C34       1.0  0.84510  0.64706  0.55680  1.0000 -0.3841467396
C   C35       1.0  0.84510  0.85294  0.05680  1.0000 -0.3841467396
C   C36       1.0  0.15490  0.35294  0.44320  1.0000 -0.3858224944
N   N1        1.0  0.77900  0.20830  0.85710  1.0000 -0.5702528552
N   N2        1.0  0.22100  0.70830  0.64290  1.0000 -0.5702528552
N   N3        1.0  0.22100  0.79170  0.14290  1.0000 -0.5702528552
N   N4        1.0  0.77900  0.29170  0.35710  1.0000 -0.5702528552
N   N5        1.0  0.15090  0.13234  0.43550  1.0000 -0.2108835996
N   N6        1.0  0.84910  0.63234  0.06450  1.0000 -0.2108835996
N   N7        1.0  0.84910  0.86766  0.56450  1.0000 -0.2108835996
N   N8        1.0  0.15090  0.36766  0.93550  1.0000 -0.2108835996
O   O1        1.0  0.91482  0.18020  0.57242  1.0000 -0.5525655047
O   O2        1.0  0.08518  0.68020  0.92758  1.0000 -0.5525655047
O   O3        1.0  0.08518  0.81980  0.42758  1.0000 -0.5525655047
O   O4        1.0  0.91482  0.31980  0.07242  1.0000 -0.5525655047
O   O5        1.0  0.57779  0.16868  0.19959  1.0000 -0.5702528552
O   O6        1.0  0.42221  0.66868  0.30041  1.0000 -0.5702528552
O   O7        1.0  0.42221  0.83132  0.80041  1.0000 -0.5702528552
O   O8        1.0  0.57779  0.33132  0.69959  1.0000 -0.5702528552
O   O9        1.0  0.93920  0.26308  0.70120  1.0000 -0.517667462
O   O10       1.0  0.06080  0.76308  0.79880  1.0000 -0.517667462
O   O11       1.0  0.06080  0.73692  0.29880  1.0000 -0.517667462
O   O12       1.0  0.93920  0.23692  0.20120  1.0000 -0.517667462
O   O13       1.0  0.30500  0.24599  0.06880  1.0000 -0.542328556
O   O14       1.0  0.69500  0.74599  0.43120  1.0000 -0.542328556
O   O15       1.0  0.69500  0.75401  0.93120  1.0000 -0.542328556
O   O16       1.0  0.30500  0.25401  0.56880  1.0000 -0.542328556
