# DDEC6 charges by PACMAN v1.1 (https://github.com/mtap-research/PACMAN-charge/)
data_2006[Ni][nan]3[FSR]3
_chemical_formula_sum              "Ni4 H28 C36 N4 O20"
_cell_length_a       10.883
_cell_length_b       9.3549
_cell_length_c       13.104
_cell_angle_alpha    90
_cell_angle_beta     113.08
_cell_angle_gamma    90

_symmetry_space_group_name_H-M    "P 1"
_symmetry_Int_Tables_number       1

loop_
  _symmetry_equiv_pos_as_xyz
  'x, y, z'

loop_
  _atom_site_type_symbol
  _atom_site_label
  _atom_site_symmetry_multiplicity
  _atom_site_fract_x
  _atom_site_fract_y
  _atom_site_fract_z
  _atom_site_occupancy
  _atom_site_charge
Ni  Ni1       1.0  0.80666  0.76161  0.57437  1.0000 0.9169838075
Ni  Ni2       1.0  0.69334  0.26161  0.42563  1.0000 0.9169838075
Ni  Ni3       1.0  0.19334  0.23839  0.42563  1.0000 0.9149750118
Ni  Ni4       1.0  0.30666  0.73839  0.57437  1.0000 0.9149750118
H   H1        1.0  0.50300  0.62030  0.35300  1.0000 0.1113434118
H   H2        1.0  0.99700  0.12030  0.64700  1.0000 0.1113434118
H   H3        1.0  0.49700  0.37970  0.64700  1.0000 0.1113434118
H   H4        1.0  0.00300  0.87970  0.35300  1.0000 0.1113434118
H   H5        1.0  0.49500  0.84410  0.28270  1.0000 0.1362855398
H   H6        1.0  0.00500  0.34410  0.71730  1.0000 0.1362855398
H   H7        1.0  0.50500  0.15590  0.71730  1.0000 0.1362855398
H   H8        1.0  0.99500  0.65590  0.28270  1.0000 0.1362855398
H   H9        1.0  0.41860  0.85380  0.36170  1.0000 0.1548487191
H   H10       1.0  0.08140  0.35380  0.63830  1.0000 0.1548487191
H   H11       1.0  0.58140  0.14620  0.63830  1.0000 0.1548487191
H   H12       1.0  0.91860  0.64620  0.36170  1.0000 0.1548487191
H   H13       1.0  0.70690  0.89370  0.73110  1.0000 0.1362855398
H   H14       1.0  0.79310  0.39370  0.26890  1.0000 0.1362855398
H   H15       1.0  0.29310  0.10630  0.26890  1.0000 0.1362855398
H   H16       1.0  0.20690  0.60630  0.73110  1.0000 0.1362855398
H   H17       1.0  0.77660  0.99180  0.90400  1.0000 0.1362855398
H   H18       1.0  0.72340  0.49180  0.09600  1.0000 0.1362855398
H   H19       1.0  0.22340  0.00820  0.09600  1.0000 0.1362855398
H   H20       1.0  0.27660  0.50820  0.90400  1.0000 0.1362855398
H   H21       1.0  0.15200  0.92650  0.93640  1.0000 0.1362855398
H   H22       1.0  0.34800  0.42650  0.06360  1.0000 0.1362855398
H   H23       1.0  0.84800  0.07350  0.06360  1.0000 0.1362855398
H   H24       1.0  0.65200  0.57350  0.93640  1.0000 0.1362855398
H   H25       1.0  0.07180  0.83570  0.75980  1.0000 0.1321116891
H   H26       1.0  0.42820  0.33570  0.24020  1.0000 0.1321116891
H   H27       1.0  0.92820  0.16430  0.24020  1.0000 0.1321116891
H   H28       1.0  0.57180  0.66430  0.75980  1.0000 0.1321116891
C   C1        1.0  0.54780  0.66800  0.51800  1.0000 0.5797737484
C   C2        1.0  0.95220  0.16800  0.48200  1.0000 0.5797737484
C   C3        1.0  0.45220  0.33200  0.48200  1.0000 0.5797737484
C   C4        1.0  0.04780  0.83200  0.51800  1.0000 0.5797737484
C   C5        1.0  0.55730  0.69250  0.40560  1.0000 0.0733730328
C   C6        1.0  0.94270  0.19250  0.59440  1.0000 0.0733730328
C   C7        1.0  0.44270  0.30750  0.59440  1.0000 0.0733730328
C   C8        1.0  0.05730  0.80750  0.40560  1.0000 0.0733730328
C   C9        1.0  0.50600  0.84060  0.35980  1.0000 -0.3869883026
C   C10       1.0  0.99400  0.34060  0.64020  1.0000 -0.3869883026
C   C11       1.0  0.49400  0.15940  0.64020  1.0000 -0.3869883026
C   C12       1.0  0.00600  0.65940  0.35980  1.0000 -0.3869883026
C   C13       1.0  0.59450  0.96360  0.42070  1.0000 0.6649838929
C   C14       1.0  0.90550  0.46360  0.57930  1.0000 0.6649838929
C   C15       1.0  0.40550  0.03640  0.57930  1.0000 0.6649838929
C   C16       1.0  0.09450  0.53640  0.42070  1.0000 0.6649838929
C   C17       1.0  0.79820  0.89960  0.77330  1.0000 0.1113434118
C   C18       1.0  0.70180  0.39960  0.22670  1.0000 0.1113434118
C   C19       1.0  0.20180  0.10040  0.22670  1.0000 0.1113434118
C   C20       1.0  0.29820  0.60040  0.77330  1.0000 0.1113434118
C   C21       1.0  0.83910  0.95870  0.87740  1.0000 -0.1978073324
C   C22       1.0  0.66090  0.45870  0.12260  1.0000 -0.1978073324
C   C23       1.0  0.16090  0.04130  0.12260  1.0000 -0.1978073324
C   C24       1.0  0.33910  0.54130  0.87740  1.0000 -0.1978073324
C   C25       1.0  0.97530  0.96840  0.94270  1.0000 0.1047120114
C   C26       1.0  0.52470  0.46840  0.05730  1.0000 0.1047120114
C   C27       1.0  0.02470  0.03160  0.05730  1.0000 0.1047120114
C   C28       1.0  0.47530  0.53160  0.94270  1.0000 0.1047120114
C   C29       1.0  0.06030  0.92100  0.89620  1.0000 -0.192046104
C   C30       1.0  0.43970  0.42100  0.10380  1.0000 -0.192046104
C   C31       1.0  0.93970  0.07900  0.10380  1.0000 -0.192046104
C   C32       1.0  0.56030  0.57900  0.89620  1.0000 -0.192046104
C   C33       1.0  0.01140  0.86470  0.79000  1.0000 0.0923563969
C   C34       1.0  0.48860  0.36470  0.21000  1.0000 0.0923563969
C   C35       1.0  0.98860  0.13530  0.21000  1.0000 0.0923563969
C   C36       1.0  0.51140  0.63530  0.79000  1.0000 0.0923563969
N   N1        1.0  0.88060  0.85060  0.72910  1.0000 -0.1828420702
N   N2        1.0  0.61940  0.35060  0.27090  1.0000 -0.1828420702
N   N3        1.0  0.11940  0.14940  0.27090  1.0000 -0.1828420702
N   N4        1.0  0.38060  0.64940  0.72910  1.0000 -0.1828420702
O   O1        1.0  0.65380  0.66900  0.60380  1.0000 -0.529892912
O   O2        1.0  0.84620  0.16900  0.39620  1.0000 -0.529892912
O   O3        1.0  0.34620  0.33100  0.39620  1.0000 -0.529892912
O   O4        1.0  0.15380  0.83100  0.60380  1.0000 -0.529892912
O   O5        1.0  0.43260  0.64550  0.51380  1.0000 -0.5087505932
O   O6        1.0  0.06740  0.14550  0.48620  1.0000 -0.5087505932
O   O7        1.0  0.56740  0.35450  0.48620  1.0000 -0.5087505932
O   O8        1.0  0.93260  0.85450  0.51380  1.0000 -0.5087505932
O   O9        1.0  0.69330  0.68090  0.41460  1.0000 -0.41660857
O   O10       1.0  0.80670  0.18090  0.58540  1.0000 -0.41660857
O   O11       1.0  0.30670  0.31910  0.58540  1.0000 -0.41660857
O   O12       1.0  0.19330  0.81910  0.41460  1.0000 -0.41660857
O   O13       1.0  0.68560  0.94240  0.51590  1.0000 -0.5037269946
O   O14       1.0  0.81440  0.44240  0.48410  1.0000 -0.5037269946
O   O15       1.0  0.31440  0.05760  0.48410  1.0000 -0.5037269946
O   O16       1.0  0.18560  0.55760  0.51590  1.0000 -0.5037269946
O   O17       1.0  0.57120  0.08440  0.37450  1.0000 -0.5673050041
O   O18       1.0  0.92880  0.58440  0.62550  1.0000 -0.5673050041
O   O19       1.0  0.42880  0.91560  0.62550  1.0000 -0.5673050041
O   O20       1.0  0.07120  0.41560  0.37450  1.0000 -0.5673050041
