# DDEC6 charges by PACMAN v1.1 (https://github.com/mtap-research/PACMAN-charge/)
data_2006[Mg][dia]3[FSR]7
_chemical_formula_sum              "Mg12 H24 C24 O48"
_cell_length_a       11.2888
_cell_length_b       9.8179
_cell_length_c       18.1588
_cell_angle_alpha    90
_cell_angle_beta     126.798
_cell_angle_gamma    90

_symmetry_space_group_name_H-M    "P 1"
_symmetry_Int_Tables_number       1

loop_
  _symmetry_equiv_pos_as_xyz
  'x, y, z'

loop_
  _atom_site_type_symbol
  _atom_site_label
  _atom_site_symmetry_multiplicity
  _atom_site_fract_x
  _atom_site_fract_y
  _atom_site_fract_z
  _atom_site_occupancy
  _atom_site_charge
Mg  Mg1       1.0  0.62114  0.41873  0.36503  1.0000 1.3128848719
Mg  Mg2       1.0  0.37886  0.91873  0.13497  1.0000 1.3128848719
Mg  Mg3       1.0  0.37886  0.58127  0.63497  1.0000 1.3128848719
Mg  Mg4       1.0  0.62114  0.08127  0.86503  1.0000 1.3128848719
Mg  Mg5       1.0  0.50000  0.50000  0.50000  1.0000 1.2990567135
Mg  Mg6       1.0  0.50000  0.00000  0.00000  1.0000 1.2990567135
Mg  Mg7       1.0  0.42919  0.60880  0.18958  1.0000 1.2812299179
Mg  Mg8       1.0  0.57081  0.10880  0.31042  1.0000 1.2812299179
Mg  Mg9       1.0  0.57081  0.39120  0.81042  1.0000 1.2812299179
Mg  Mg10      1.0  0.42919  0.89120  0.68958  1.0000 1.2812299179
Mg  Mg11      1.0  0.00000  0.50000  0.50000  1.0000 1.2990567135
Mg  Mg12      1.0  0.00000  0.00000  0.00000  1.0000 1.2990567135
H   H1        1.0  0.21180  0.53610  0.23630  1.0000 0.0814383477
H   H2        1.0  0.78820  0.03610  0.26370  1.0000 0.0814383477
H   H3        1.0  0.78820  0.46390  0.76370  1.0000 0.0814383477
H   H4        1.0  0.21180  0.96390  0.73630  1.0000 0.0814383477
H   H5        1.0  0.50890  0.11750  0.45430  1.0000 0.0738123311
H   H6        1.0  0.49110  0.61750  0.04570  1.0000 0.0738123311
H   H7        1.0  0.49110  0.88250  0.54570  1.0000 0.0738123311
H   H8        1.0  0.50890  0.38250  0.95430  1.0000 0.0738123311
H   H9        1.0  0.97900  0.20370  0.48660  1.0000 0.0814383477
H   H10       1.0  0.02100  0.70370  0.01340  1.0000 0.0814383477
H   H11       1.0  0.02100  0.79630  0.51340  1.0000 0.0814383477
H   H12       1.0  0.97900  0.29630  0.98660  1.0000 0.0814383477
H   H13       1.0  0.50000  0.25790  0.13250  1.0000 0.0814383477
H   H14       1.0  0.50000  0.75790  0.36750  1.0000 0.0814383477
H   H15       1.0  0.50000  0.74210  0.86750  1.0000 0.0814383477
H   H16       1.0  0.50000  0.24210  0.63250  1.0000 0.0814383477
H   H17       1.0  0.76490  0.65920  0.56900  1.0000 0.0738123311
H   H18       1.0  0.23510  0.15920  0.93100  1.0000 0.0738123311
H   H19       1.0  0.23510  0.34080  0.43100  1.0000 0.0738123311
H   H20       1.0  0.76490  0.84080  0.06900  1.0000 0.0738123311
H   H21       1.0  0.74900  0.69260  0.26900  1.0000 0.0814383477
H   H22       1.0  0.25100  0.19260  0.23100  1.0000 0.0814383477
H   H23       1.0  0.25100  0.30740  0.73100  1.0000 0.0814383477
H   H24       1.0  0.74900  0.80740  0.76900  1.0000 0.0814383477
C   C1        1.0  0.30824  0.51490  0.28954  1.0000 0.5205361492
C   C2        1.0  0.69176  0.01490  0.21046  1.0000 0.5205361492
C   C3        1.0  0.69176  0.48510  0.71046  1.0000 0.5205361492
C   C4        1.0  0.30824  0.98510  0.78954  1.0000 0.5205361492
C   C5        1.0  0.52179  0.21110  0.44759  1.0000 0.5205361492
C   C6        1.0  0.47821  0.71110  0.05241  1.0000 0.5205361492
C   C7        1.0  0.47821  0.78890  0.55241  1.0000 0.5205361492
C   C8        1.0  0.52179  0.28890  0.94759  1.0000 0.5205361492
C   C9        1.0  0.87609  0.22220  0.44559  1.0000 0.5344517386
C   C10       1.0  0.12391  0.72220  0.05441  1.0000 0.5344517386
C   C11       1.0  0.12391  0.77780  0.55441  1.0000 0.5344517386
C   C12       1.0  0.87609  0.27780  0.94559  1.0000 0.5344517386
C   C13       1.0  0.50296  0.32710  0.17016  1.0000 0.5344517386
C   C14       1.0  0.49704  0.82710  0.32984  1.0000 0.535596733
C   C15       1.0  0.49704  0.67290  0.82984  1.0000 0.5344517386
C   C16       1.0  0.50296  0.17290  0.67016  1.0000 0.5344517386
C   C17       1.0  0.77069  0.60120  0.52939  1.0000 0.5344517386
C   C18       1.0  0.22931  0.10120  0.97061  1.0000 0.5344517386
C   C19       1.0  0.22931  0.39880  0.47061  1.0000 0.5344517386
C   C20       1.0  0.77069  0.89880  0.02939  1.0000 0.5344517386
C   C21       1.0  0.76592  0.63060  0.31452  1.0000 0.5205361492
C   C22       1.0  0.23408  0.13060  0.18548  1.0000 0.5205361492
C   C23       1.0  0.23408  0.36940  0.68548  1.0000 0.5205361492
C   C24       1.0  0.76592  0.86940  0.81452  1.0000 0.5205361492
O   O1        1.0  0.40994  0.50304  0.27961  1.0000 -0.6838307184
O   O2        1.0  0.59006  0.00304  0.22039  1.0000 -0.6838307184
O   O3        1.0  0.59006  0.49696  0.72039  1.0000 -0.6838307184
O   O4        1.0  0.40994  0.99696  0.77961  1.0000 -0.6838307184
O   O5        1.0  0.32410  0.50110  0.36243  1.0000 -0.5683978153
O   O6        1.0  0.67590  0.00110  0.13757  1.0000 -0.5683978153
O   O7        1.0  0.67590  0.49890  0.63757  1.0000 -0.5683978153
O   O8        1.0  0.32410  0.99890  0.86243  1.0000 -0.5683978153
O   O9        1.0  0.54483  0.24154  0.38875  1.0000 -0.6877898825
O   O10       1.0  0.45517  0.74154  0.11125  1.0000 -0.6877898825
O   O11       1.0  0.45517  0.75846  0.61125  1.0000 -0.6877898825
O   O12       1.0  0.54483  0.25846  0.88875  1.0000 -0.6877898825
O   O13       1.0  0.51475  0.29310  0.49647  1.0000 -0.580644655
O   O14       1.0  0.48525  0.79310  0.00353  1.0000 -0.580644655
O   O15       1.0  0.48525  0.70690  0.50353  1.0000 -0.580644655
O   O16       1.0  0.51475  0.20690  0.99647  1.0000 -0.580644655
O   O17       1.0  0.83653  0.34659  0.43775  1.0000 -0.6731835855
O   O18       1.0  0.16347  0.84659  0.06225  1.0000 -0.6731835855
O   O19       1.0  0.16347  0.65341  0.56225  1.0000 -0.6731835855
O   O20       1.0  0.83653  0.15341  0.93775  1.0000 -0.6731835855
O   O21       1.0  0.79318  0.12366  0.40492  1.0000 -0.580644655
O   O22       1.0  0.20682  0.62366  0.09508  1.0000 -0.580644655
O   O23       1.0  0.20682  0.87634  0.59508  1.0000 -0.580644655
O   O24       1.0  0.79318  0.37634  0.90492  1.0000 -0.580644655
O   O25       1.0  0.56327  0.29679  0.25370  1.0000 -0.6731835855
O   O26       1.0  0.43673  0.79679  0.24630  1.0000 -0.6731835855
O   O27       1.0  0.43673  0.70321  0.74630  1.0000 -0.6731835855
O   O28       1.0  0.56327  0.20321  0.75370  1.0000 -0.6731835855
O   O29       1.0  0.44762  0.43889  0.13327  1.0000 -0.580644655
O   O30       1.0  0.55238  0.93889  0.36673  1.0000 -0.580644655
O   O31       1.0  0.55238  0.56111  0.86673  1.0000 -0.580644655
O   O32       1.0  0.44762  0.06111  0.63327  1.0000 -0.580644655
O   O33       1.0  0.65841  0.52584  0.47420  1.0000 -0.6877898825
O   O34       1.0  0.34159  0.02584  0.02580  1.0000 -0.6877898825
O   O35       1.0  0.34159  0.47416  0.52580  1.0000 -0.6877898825
O   O36       1.0  0.65841  0.97416  0.97420  1.0000 -0.6877898825
O   O37       1.0  0.88583  0.60530  0.53593  1.0000 -0.580644655
O   O38       1.0  0.11417  0.10530  0.96407  1.0000 -0.580644655
O   O39       1.0  0.11417  0.39470  0.46407  1.0000 -0.580644655
O   O40       1.0  0.88583  0.89470  0.03593  1.0000 -0.580644655
O   O41       1.0  0.65271  0.58000  0.30322  1.0000 -0.6731835855
O   O42       1.0  0.34729  0.08000  0.19678  1.0000 -0.6731835855
O   O43       1.0  0.34729  0.42000  0.69678  1.0000 -0.6731835855
O   O44       1.0  0.65271  0.92000  0.80322  1.0000 -0.6731835855
O   O45       1.0  0.89598  0.60690  0.37895  1.0000 -0.5618617934
O   O46       1.0  0.10402  0.10690  0.12105  1.0000 -0.5618617934
O   O47       1.0  0.10402  0.39310  0.62105  1.0000 -0.5618617934
O   O48       1.0  0.89598  0.89310  0.87895  1.0000 -0.5618617934
