# DDEC6 charges by PACMAN v1.1 (https://github.com/mtap-research/PACMAN-charge/)
data_2006[Co][nan]3[FSR]7
_chemical_formula_sum              "Co6 H52 C92 S6 N32 O16"
_cell_length_a       11.7914
_cell_length_b       17.0504
_cell_length_c       20.795
_cell_angle_alpha    104.726
_cell_angle_beta     106.36
_cell_angle_gamma    103.481

_symmetry_space_group_name_H-M    "P 1"
_symmetry_Int_Tables_number       1

loop_
  _symmetry_equiv_pos_as_xyz
  'x, y, z'

loop_
  _atom_site_type_symbol
  _atom_site_label
  _atom_site_symmetry_multiplicity
  _atom_site_fract_x
  _atom_site_fract_y
  _atom_site_fract_z
  _atom_site_occupancy
  _atom_site_charge
Co  Co1       1.0  0.50000  0.50000  0.50000  1.0000 0.7002021893
Co  Co2       1.0  0.00000  0.50000  0.50000  1.0000 0.8835149332
Co  Co3       1.0  0.99993  0.74812  0.75165  1.0000 0.7002021893
Co  Co4       1.0  0.00007  0.25188  0.24835  1.0000 0.7002021893
Co  Co5       1.0  0.00000  0.00000  0.00000  1.0000 0.8872223421
Co  Co6       1.0  0.50000  0.00000  0.00000  1.0000 0.7002021893
H   H1        1.0  0.67820  0.67660  0.65500  1.0000 0.1103848478
H   H2        1.0  0.32180  0.32340  0.34500  1.0000 0.1103848478
H   H3        1.0  0.31720  0.81250  0.85350  1.0000 0.1103848478
H   H4        1.0  0.68280  0.18750  0.14650  1.0000 0.1103848478
H   H5        1.0  0.47490  0.50340  0.34670  1.0000 0.1103848478
H   H6        1.0  0.52510  0.49660  0.65330  1.0000 0.1103848478
H   H7        1.0  0.47370  0.59820  0.28300  1.0000 0.1307786515
H   H8        1.0  0.52630  0.40180  0.71700  1.0000 0.1307786515
H   H9        1.0  0.57830  0.79120  0.46690  1.0000 0.138186362
H   H10       1.0  0.42170  0.20880  0.53310  1.0000 0.138186362
H   H11       1.0  0.57270  0.69110  0.52370  1.0000 0.1103848478
H   H12       1.0  0.42730  0.30890  0.47630  1.0000 0.1103848478
H   H13       1.0  0.48970  0.77190  0.11870  1.0000 0.138186362
H   H14       1.0  0.51030  0.22810  0.88130  1.0000 0.138186362
H   H15       1.0  0.47320  0.82850  0.02680  1.0000 0.1103848478
H   H16       1.0  0.52680  0.17150  0.97320  1.0000 0.1103848478
H   H17       1.0  0.49310  0.04900  0.15230  1.0000 0.1103848478
H   H18       1.0  0.50690  0.95100  0.84770  1.0000 0.1103848478
H   H19       1.0  0.50670  0.99890  0.24660  1.0000 0.138186362
H   H20       1.0  0.49330  0.00110  0.75340  1.0000 0.138186362
H   H21       1.0  0.85410  0.81820  0.64190  1.0000 0.1103848478
H   H22       1.0  0.14590  0.18180  0.35810  1.0000 0.1103848478
H   H23       1.0  0.87480  0.93220  0.60150  1.0000 0.138186362
H   H24       1.0  0.12520  0.06780  0.39850  1.0000 0.138186362
H   H25       1.0  0.24280  0.99180  0.68910  1.0000 0.138186362
H   H26       1.0  0.75720  0.00820  0.31090  1.0000 0.138186362
H   H27       1.0  0.21150  0.87630  0.72680  1.0000 0.1103848478
H   H28       1.0  0.78850  0.12370  0.27320  1.0000 0.1103848478
H   H29       1.0  0.89630  0.18450  0.48440  1.0000 0.1307786515
H   H30       1.0  0.10370  0.81550  0.51560  1.0000 0.1307786515
H   H31       1.0  0.87370  0.30060  0.45020  1.0000 0.1211361139
H   H32       1.0  0.12630  0.69940  0.54980  1.0000 0.1211361139
H   H33       1.0  0.19880  0.44940  0.59530  1.0000 0.1103848478
H   H34       1.0  0.80120  0.55060  0.40470  1.0000 0.1103848478
H   H35       1.0  0.23220  0.33500  0.62990  1.0000 0.1307786515
H   H36       1.0  0.76780  0.66500  0.37010  1.0000 0.1307786515
H   H37       1.0  0.80030  0.04520  0.90050  1.0000 0.1103848478
H   H38       1.0  0.19970  0.95480  0.09950  1.0000 0.1103848478
H   H39       1.0  0.76340  0.15680  0.86480  1.0000 0.1307786515
H   H40       1.0  0.23660  0.84320  0.13520  1.0000 0.1307786515
H   H41       1.0  0.09000  0.31370  0.01750  1.0000 0.1307786515
H   H42       1.0  0.91000  0.68630  0.98250  1.0000 0.1307786515
H   H43       1.0  0.12130  0.19710  0.04800  1.0000 0.1211361139
H   H44       1.0  0.87870  0.80290  0.95200  1.0000 0.1211361139
H   H45       1.0  0.74680  0.50850  0.81490  1.0000 0.138186362
H   H46       1.0  0.25320  0.49150  0.18510  1.0000 0.138186362
H   H47       1.0  0.78440  0.62410  0.77590  1.0000 0.1103848478
H   H48       1.0  0.21560  0.37590  0.22410  1.0000 0.1103848478
H   H49       1.0  0.14300  0.67200  0.85840  1.0000 0.1103848478
H   H50       1.0  0.85700  0.32800  0.14160  1.0000 0.1103848478
H   H51       1.0  0.11370  0.55930  0.89880  1.0000 0.1307786515
H   H52       1.0  0.88630  0.44070  0.10120  1.0000 0.1307786515
C   C1        1.0  0.72420  0.64510  0.63520  1.0000 0.138186362
C   C2        1.0  0.27580  0.35490  0.36480  1.0000 0.138186362
C   C3        1.0  0.76810  0.55040  0.56610  1.0000 -0.0135214889
C   C4        1.0  0.23190  0.44960  0.43390  1.0000 -0.0135214889
C   C5        1.0  0.87710  0.60510  0.62080  1.0000 -0.0197591724
C   C6        1.0  0.12290  0.39490  0.37920  1.0000 -0.0197591724
C   C7        1.0  0.73490  0.47450  0.50090  1.0000 0.5587331875
C   C8        1.0  0.26510  0.52550  0.49910  1.0000 0.5587331875
C   C9        1.0  0.01100  0.61000  0.64190  1.0000 0.5587331875
C   C10       1.0  0.98900  0.39000  0.35810  1.0000 0.5587331875
C   C11       1.0  0.27230  0.84680  0.87130  1.0000 0.1512058897
C   C12       1.0  0.72770  0.15320  0.12870  1.0000 0.1512058897
C   C13       1.0  0.12210  0.89270  0.88250  1.0000 -0.0197591724
C   C14       1.0  0.87790  0.10730  0.11750  1.0000 -0.0197591724
C   C15       1.0  0.23070  0.94700  0.93640  1.0000 -0.0197591724
C   C16       1.0  0.76930  0.05300  0.06360  1.0000 -0.0197591724
C   C17       1.0  0.98820  0.88760  0.85900  1.0000 0.5587331875
C   C18       1.0  0.01180  0.11240  0.14100  1.0000 0.5587331875
C   C19       1.0  0.26630  0.02860  0.99580  1.0000 0.5587331875
C   C20       1.0  0.73370  0.97140  0.00420  1.0000 0.5587331875
C   C21       1.0  0.49370  0.56270  0.37150  1.0000 0.0827074143
C   C22       1.0  0.50630  0.43730  0.62850  1.0000 0.0827074143
C   C23       1.0  0.49360  0.61900  0.33310  1.0000 -0.2091574328
C   C24       1.0  0.50640  0.38100  0.66690  1.0000 -0.2091574328
C   C25       1.0  0.52280  0.70550  0.36930  1.0000 0.0896335871
C   C26       1.0  0.47720  0.29450  0.63070  1.0000 0.0896335871
C   C27       1.0  0.55410  0.73200  0.44010  1.0000 -0.1601874532
C   C28       1.0  0.44590  0.26800  0.55990  1.0000 -0.1601874532
C   C29       1.0  0.55060  0.67130  0.47340  1.0000 0.0715005739
C   C30       1.0  0.44940  0.32870  0.52660  1.0000 0.0715005739
C   C31       1.0  0.51920  0.76730  0.33030  1.0000 0.0896335871
C   C32       1.0  0.48080  0.23270  0.66970  1.0000 0.0896335871
C   C33       1.0  0.50860  0.84570  0.25120  1.0000 0.0827074143
C   C34       1.0  0.49140  0.15430  0.74880  1.0000 0.0827074143
C   C35       1.0  0.49990  0.88000  0.19220  1.0000 0.0827074143
C   C36       1.0  0.50010  0.12000  0.80780  1.0000 0.0827074143
C   C37       1.0  0.49070  0.82950  0.12690  1.0000 -0.1889881915
C   C38       1.0  0.50930  0.17050  0.87310  1.0000 -0.1889881915
C   C39       1.0  0.48290  0.86420  0.07270  1.0000 0.0896335871
C   C40       1.0  0.51710  0.13580  0.92730  1.0000 0.0896335871
C   C41       1.0  0.49410  0.99200  0.14550  1.0000 0.0715005739
C   C42       1.0  0.50590  0.00800  0.85450  1.0000 0.0715005739
C   C43       1.0  0.50110  0.96260  0.20200  1.0000 -0.1801538484
C   C44       1.0  0.49890  0.03740  0.79800  1.0000 -0.1801538484
C   C45       1.0  0.93600  0.85610  0.65410  1.0000 0.0715005739
C   C46       1.0  0.06400  0.14390  0.34590  1.0000 0.0715005739
C   C47       1.0  0.94720  0.92370  0.62900  1.0000 -0.200920129
C   C48       1.0  0.05280  0.07630  0.37100  1.0000 -0.200920129
C   C49       1.0  0.06230  0.97800  0.64410  1.0000 0.0896335871
C   C50       1.0  0.93770  0.02200  0.35590  1.0000 0.0896335871
C   C51       1.0  0.15990  0.95780  0.67980  1.0000 -0.1889881915
C   C52       1.0  0.84010  0.04220  0.32020  1.0000 -0.1889881915
C   C53       1.0  0.14060  0.88910  0.70280  1.0000 0.0715005739
C   C54       1.0  0.85940  0.11090  0.29720  1.0000 0.0715005739
C   C55       1.0  0.08530  0.05770  0.62580  1.0000 0.0896335871
C   C56       1.0  0.91470  0.94230  0.37420  1.0000 0.0896335871
C   C57       1.0  0.08580  0.17830  0.58970  1.0000 0.0996674186
C   C58       1.0  0.91420  0.82170  0.41030  1.0000 0.0996674186
C   C59       1.0  0.06630  0.24830  0.56230  1.0000 0.0896335871
C   C60       1.0  0.93370  0.75170  0.43770  1.0000 0.0896335871
C   C61       1.0  0.96030  0.23880  0.50820  1.0000 -0.200920129
C   C62       1.0  0.03970  0.76120  0.49180  1.0000 -0.200920129
C   C63       1.0  0.94690  0.30870  0.48860  1.0000 0.0996674186
C   C64       1.0  0.05310  0.69130  0.51140  1.0000 0.0996674186
C   C65       1.0  0.13570  0.39470  0.57220  1.0000 0.0827074143
C   C66       1.0  0.86430  0.60530  0.42780  1.0000 0.0827074143
C   C67       1.0  0.15590  0.32670  0.59360  1.0000 -0.1667603535
C   C68       1.0  0.84410  0.67330  0.40640  1.0000 -0.1667603535
C   C69       1.0  0.86100  0.10090  0.92460  1.0000 0.0827074143
C   C70       1.0  0.13900  0.89910  0.07540  1.0000 0.0827074143
C   C71       1.0  0.83800  0.16700  0.90320  1.0000 -0.1667603535
C   C72       1.0  0.16200  0.83300  0.09680  1.0000 -0.1667603535
C   C73       1.0  0.92270  0.24770  0.93730  1.0000 0.0896335871
C   C74       1.0  0.07730  0.75230  0.06270  1.0000 0.0896335871
C   C75       1.0  0.02900  0.25840  0.99210  1.0000 -0.200920129
C   C76       1.0  0.97100  0.74160  0.00790  1.0000 -0.200920129
C   C77       1.0  0.04680  0.18870  0.01030  1.0000 0.0996674186
C   C78       1.0  0.95320  0.81130  0.98970  1.0000 0.0996674186
C   C79       1.0  0.89900  0.31780  0.91100  1.0000 0.1103848478
C   C80       1.0  0.10100  0.68220  0.08900  1.0000 0.1103848478
C   C81       1.0  0.90220  0.43850  0.87550  1.0000 0.0996674186
C   C82       1.0  0.09780  0.56150  0.12450  1.0000 0.0996674186
C   C83       1.0  0.92650  0.51700  0.85600  1.0000 0.0827074143
C   C84       1.0  0.07350  0.48300  0.14400  1.0000 0.0827074143
C   C85       1.0  0.83020  0.54000  0.82250  1.0000 -0.1801538484
C   C86       1.0  0.16980  0.46000  0.17750  1.0000 -0.1801538484
C   C87       1.0  0.85340  0.60930  0.79960  1.0000 0.0636993496
C   C88       1.0  0.14660  0.39070  0.20040  1.0000 0.0636993496
C   C89       1.0  0.05980  0.63670  0.84710  1.0000 0.0715005739
C   C90       1.0  0.94020  0.36330  0.15290  1.0000 0.0715005739
C   C91       1.0  0.04310  0.56950  0.87120  1.0000 -0.200920129
C   C92       1.0  0.95690  0.43050  0.12880  1.0000 -0.200920129
S   S1        1.0  0.50470  0.74316  0.24379  1.0000 0.0996674186
S   S2        1.0  0.49530  0.25684  0.75621  1.0000 0.0996674186
S   S3        1.0  0.97410  0.08491  0.57237  1.0000 0.0289208292
S   S4        1.0  0.02590  0.91509  0.42763  1.0000 0.0289208292
S   S5        1.0  0.01620  0.40978  0.92662  1.0000 0.0206504277
S   S6        1.0  0.98380  0.59022  0.07338  1.0000 0.0206504277
N   N1        1.0  0.67170  0.57680  0.57640  1.0000 -0.3196735458
N   N2        1.0  0.32830  0.42320  0.42360  1.0000 -0.3196735458
N   N3        1.0  0.84740  0.66540  0.66390  1.0000 -0.3196735458
N   N4        1.0  0.15260  0.33460  0.33610  1.0000 -0.3196735458
N   N5        1.0  0.15020  0.82870  0.84050  1.0000 -0.3278944568
N   N6        1.0  0.84980  0.17130  0.15950  1.0000 -0.3196735458
N   N7        1.0  0.32700  0.91710  0.92930  1.0000 -0.3278944568
N   N8        1.0  0.67300  0.08290  0.07070  1.0000 -0.3278944568
N   N9        1.0  0.51880  0.58850  0.44050  1.0000 -0.2091574328
N   N10       1.0  0.48120  0.41150  0.55950  1.0000 -0.2091574328
N   N11       1.0  0.52740  0.84660  0.36060  1.0000 -0.1667603535
N   N12       1.0  0.47260  0.15340  0.63940  1.0000 -0.1667603535
N   N13       1.0  0.52110  0.89190  0.31510  1.0000 -0.1801538484
N   N14       1.0  0.47890  0.10810  0.68490  1.0000 -0.1889881915
N   N15       1.0  0.48870  0.94570  0.08270  1.0000 -0.2091574328
N   N16       1.0  0.51130  0.05430  0.91730  1.0000 -0.2091574328
N   N17       1.0  0.02960  0.84020  0.69340  1.0000 -0.2091574328
N   N18       1.0  0.97040  0.15980  0.30660  1.0000 -0.2091574328
N   N19       1.0  0.19150  0.11600  0.65260  1.0000 -0.1667603535
N   N20       1.0  0.80850  0.88400  0.34740  1.0000 -0.1667603535
N   N21       1.0  0.19250  0.18410  0.63050  1.0000 -0.1889881915
N   N22       1.0  0.80750  0.81590  0.36950  1.0000 -0.1889881915
N   N23       1.0  0.03140  0.38630  0.52070  1.0000 -0.2372414024
N   N24       1.0  0.96860  0.61370  0.47930  1.0000 -0.2372414024
N   N25       1.0  0.96690  0.65570  0.80890  1.0000 -0.2091574328
N   N26       1.0  0.03310  0.34430  0.19110  1.0000 -0.2091574328
N   N27       1.0  0.79370  0.38420  0.85300  1.0000 -0.1889881915
N   N28       1.0  0.20630  0.61580  0.14700  1.0000 -0.1889881915
N   N29       1.0  0.79140  0.31420  0.87400  1.0000 -0.200920129
N   N30       1.0  0.20860  0.68580  0.12600  1.0000 -0.200920129
N   N31       1.0  0.96430  0.11040  0.97740  1.0000 -0.2372414024
N   N32       1.0  0.03570  0.88960  0.02260  1.0000 -0.2372414024
O   O1        1.0  0.61980  0.44150  0.46350  1.0000 -0.5276158379
O   O2        1.0  0.38020  0.55850  0.53650  1.0000 -0.5276158379
O   O3        1.0  0.81490  0.44600  0.48530  1.0000 -0.5219872074
O   O4        1.0  0.18510  0.55400  0.51470  1.0000 -0.5219872074
O   O5        1.0  0.04960  0.55880  0.60780  1.0000 -0.5120302813
O   O6        1.0  0.95040  0.44120  0.39220  1.0000 -0.5120302813
O   O7        1.0  0.08440  0.67090  0.69980  1.0000 -0.5219872074
O   O8        1.0  0.91560  0.32910  0.30020  1.0000 -0.5219872074
O   O9        1.0  0.91570  0.82570  0.80260  1.0000 -0.5219872074
O   O10       1.0  0.08430  0.17430  0.19740  1.0000 -0.5219872074
O   O11       1.0  0.95130  0.94040  0.89260  1.0000 -0.5219872074
O   O12       1.0  0.04870  0.05960  0.10740  1.0000 -0.5219872074
O   O13       1.0  0.18560  0.05600  0.01270  1.0000 -0.5276158379
O   O14       1.0  0.81440  0.94400  0.98730  1.0000 -0.5276158379
O   O15       1.0  0.38180  0.06710  0.02740  1.0000 -0.5219872074
O   O16       1.0  0.61820  0.93290  0.97260  1.0000 -0.5219872074
