# DDEC6 charges by PACMAN v1.1 (https://github.com/mtap-research/PACMAN-charge/)
data_2006[Nd][irl]3[FSR]1
_chemical_formula_sum              "Nd4 H8 C16 O36"
_cell_length_a       7.813
_cell_length_b       11.88
_cell_length_c       12.994
_cell_angle_alpha    93.092
_cell_angle_beta     93.938
_cell_angle_gamma    108.359

_symmetry_space_group_name_H-M    "P 1"
_symmetry_Int_Tables_number       1

loop_
  _symmetry_equiv_pos_as_xyz
  'x, y, z'

loop_
  _atom_site_type_symbol
  _atom_site_label
  _atom_site_symmetry_multiplicity
  _atom_site_fract_x
  _atom_site_fract_y
  _atom_site_fract_z
  _atom_site_occupancy
  _atom_site_charge
Nd  Nd1       1.0  0.15004  0.77776  0.03190  1.0000 2.0378131438
Nd  Nd2       1.0  0.84996  0.22224  0.96810  1.0000 2.0378131438
Nd  Nd3       1.0  0.15651  0.78215  0.53207  1.0000 2.0474853087
Nd  Nd4       1.0  0.84349  0.21785  0.46793  1.0000 2.0474853087
H   H1        1.0  0.87350  0.90400  0.00410  1.0000 0.4485845634
H   H2        1.0  0.12650  0.09600  0.99590  1.0000 0.4485845634
H   H3        1.0  0.84070  0.86140  0.10960  1.0000 0.4680889416
H   H4        1.0  0.15930  0.13860  0.89040  1.0000 0.4680889416
H   H5        1.0  0.55550  0.89580  0.54120  1.0000 0.4485845634
H   H6        1.0  0.44450  0.10420  0.45880  1.0000 0.4485845634
H   H7        1.0  0.52990  0.87870  0.65850  1.0000 0.4485845634
H   H8        1.0  0.47010  0.12130  0.34150  1.0000 0.4485845634
C   C1        1.0  0.05980  0.74560  0.27620  1.0000 0.5282069016
C   C2        1.0  0.94020  0.25440  0.72380  1.0000 0.5282069016
C   C3        1.0  0.26850  0.80440  0.28620  1.0000 0.5227618981
C   C4        1.0  0.73150  0.19560  0.71380  1.0000 0.5227618981
C   C5        1.0  0.18180  0.71430  0.77830  1.0000 0.5227618981
C   C6        1.0  0.81820  0.28570  0.22170  1.0000 0.5227618981
C   C7        1.0  0.11840  0.82610  0.78410  1.0000 0.5282069016
C   C8        1.0  0.88160  0.17390  0.21590  1.0000 0.5282069016
C   C9        1.0  0.54770  0.95510  0.98270  1.0000 0.5227618981
C   C10       1.0  0.45230  0.04490  0.01730  1.0000 0.5227618981
C   C11       1.0  0.90900  0.50360  0.97360  1.0000 0.5520261098
C   C12       1.0  0.09100  0.49640  0.02640  1.0000 0.5520261098
C   C13       1.0  0.90260  0.95720  0.50250  1.0000 0.5282069016
C   C14       1.0  0.09740  0.04280  0.49750  1.0000 0.5282069016
C   C15       1.0  0.09390  0.49780  0.48320  1.0000 0.5520261098
C   C16       1.0  0.90610  0.50220  0.51680  1.0000 0.5520261098
O   O1        1.0  0.98230  0.71880  0.18680  1.0000 -0.5387477558
O   O2        1.0  0.01770  0.28120  0.81320  1.0000 -0.5387477558
O   O3        1.0  0.34120  0.82540  0.20360  1.0000 -0.5521317751
O   O4        1.0  0.65880  0.17460  0.79640  1.0000 -0.5521317751
O   O5        1.0  0.19920  0.66970  0.86150  1.0000 -0.5111821126
O   O6        1.0  0.80080  0.33030  0.13850  1.0000 -0.5111821126
O   O7        1.0  0.08130  0.85850  0.86950  1.0000 -0.5569552612
O   O8        1.0  0.91870  0.14150  0.13050  1.0000 -0.5569552612
O   O9        1.0  0.46880  0.84810  0.98970  1.0000 -0.5298157464
O   O10       1.0  0.53120  0.15190  0.01030  1.0000 -0.5298157464
O   O11       1.0  0.88820  0.60380  0.97750  1.0000 -0.5387477558
O   O12       1.0  0.11180  0.39620  0.02250  1.0000 -0.5387477558
O   O13       1.0  0.90330  0.86390  0.05100  1.0000 -0.7587673794
O   O14       1.0  0.09670  0.13610  0.94900  1.0000 -0.7587673794
O   O15       1.0  0.29890  0.00060  0.05070  1.0000 -0.5671489369
O   O16       1.0  0.70110  0.99940  0.94930  1.0000 -0.5671489369
O   O17       1.0  0.20070  0.59130  0.06930  1.0000 -0.5298157464
O   O18       1.0  0.79930  0.40870  0.93070  1.0000 -0.5298157464
O   O19       1.0  0.98470  0.72710  0.35780  1.0000 -0.5298157464
O   O20       1.0  0.01530  0.27290  0.64220  1.0000 -0.5298157464
O   O21       1.0  0.34460  0.82160  0.37650  1.0000 -0.5387477558
O   O22       1.0  0.65540  0.17840  0.62350  1.0000 -0.5387477558
O   O23       1.0  0.21170  0.68020  0.69060  1.0000 -0.5521317751
O   O24       1.0  0.78830  0.31980  0.30940  1.0000 -0.5521317751
O   O25       1.0  0.10850  0.87330  0.70090  1.0000 -0.5521317751
O   O26       1.0  0.89150  0.12670  0.29910  1.0000 -0.5521317751
O   O27       1.0  0.88480  0.85200  0.51690  1.0000 -0.4983821641
O   O28       1.0  0.11520  0.14800  0.48310  1.0000 -0.4983821641
O   O29       1.0  0.21270  0.59560  0.47780  1.0000 -0.5387477558
O   O30       1.0  0.78730  0.40440  0.52220  1.0000 -0.5387477558
O   O31       1.0  0.48340  0.86190  0.58370  1.0000 -0.7748647165
O   O32       1.0  0.51660  0.13810  0.41630  1.0000 -0.7748647165
O   O33       1.0  0.22200  0.99720  0.50800  1.0000 -0.5671489369
O   O34       1.0  0.77800  0.00280  0.49200  1.0000 -0.5671489369
O   O35       1.0  0.89050  0.60260  0.53620  1.0000 -0.5208166074
O   O36       1.0  0.10950  0.39740  0.46380  1.0000 -0.5208166074
