# DDEC6 charges by PACMAN v1.1 (https://github.com/mtap-research/PACMAN-charge/)
data_2006[Yb][neb]3[FSR]1
_chemical_formula_sum              "Yb4 C16 O32"
_cell_length_a       17.9993
_cell_length_b       16.6756
_cell_length_c       9.19743
_cell_angle_alpha    82.7532
_cell_angle_beta     66.7887
_cell_angle_gamma    30.4581

_symmetry_space_group_name_H-M    "P 1"
_symmetry_Int_Tables_number       1

loop_
  _symmetry_equiv_pos_as_xyz
  'x, y, z'

loop_
  _atom_site_type_symbol
  _atom_site_label
  _atom_site_symmetry_multiplicity
  _atom_site_fract_x
  _atom_site_fract_y
  _atom_site_fract_z
  _atom_site_occupancy
  _atom_site_charge
Yb  Yb1       1.0  0.81454  0.05732  0.72226  1.0000 1.8718326378
Yb  Yb2       1.0  0.40588  0.72226  0.05732  1.0000 1.8718326378
Yb  Yb3       1.0  0.52774  0.84412  0.43546  1.0000 1.8718326378
Yb  Yb4       1.0  0.19268  0.43546  0.84412  1.0000 1.8718326378
C   C1        1.0  0.64937  0.35417  0.93003  1.0000 0.5407014105
C   C2        1.0  0.06643  0.93003  0.35417  1.0000 0.5407014105
C   C3        1.0  0.31997  0.18357  0.60063  1.0000 0.5407014105
C   C4        1.0  0.89583  0.60063  0.18357  1.0000 0.5407014105
C   C5        1.0  0.54459  0.44339  0.84801  1.0000 0.5143881727
C   C6        1.0  0.16401  0.84801  0.44339  1.0000 0.5143881727
C   C7        1.0  0.40199  0.08599  0.70541  1.0000 0.5143881727
C   C8        1.0  0.80661  0.70541  0.08599  1.0000 0.5143881727
C   C9        1.0  0.55576  0.19236  0.68484  1.0000 0.5407014105
C   C10       1.0  0.56704  0.68484  0.19236  1.0000 0.5407014105
C   C11       1.0  0.56516  0.68296  0.69424  1.0000 0.5407014105
C   C12       1.0  0.05764  0.69424  0.68296  1.0000 0.5407014105
C   C13       1.0  0.47359  0.25659  0.88641  1.0000 0.5291404415
C   C14       1.0  0.38341  0.88641  0.25659  1.0000 0.5291404415
C   C15       1.0  0.36359  0.86659  0.77641  1.0000 0.5291404415
C   C16       1.0  0.99341  0.77641  0.86659  1.0000 0.5291404415
O   O1        1.0  0.75057  0.20597  0.91563  1.0000 -0.5034841459
O   O2        1.0  0.12783  0.91563  0.20597  1.0000 -0.5034841459
O   O3        1.0  0.33437  0.12217  0.49943  1.0000 -0.5034841459
O   O4        1.0  0.04403  0.49943  0.12217  1.0000 -0.5034841459
O   O5        1.0  0.62599  0.43559  0.00741  1.0000 -0.4891110521
O   O6        1.0  0.93101  0.00741  0.43559  1.0000 -0.4891110521
O   O7        1.0  0.24259  0.31899  0.62401  1.0000 -0.4891110521
O   O8        1.0  0.81441  0.62401  0.31899  1.0000 -0.4891110521
O   O9        1.0  0.43357  0.59797  0.87883  1.0000 -0.5110112217
O   O10       1.0  0.08963  0.87883  0.59797  1.0000 -0.5110112217
O   O11       1.0  0.37117  0.16037  0.81643  1.0000 -0.5110112217
O   O12       1.0  0.65203  0.81643  0.16037  1.0000 -0.5110112217
O   O13       1.0  0.58296  0.35156  0.75744  1.0000 -0.5110112217
O   O14       1.0  0.30804  0.75744  0.35156  1.0000 -0.5110112217
O   O15       1.0  0.49256  0.94196  0.66704  1.0000 -0.5110112217
O   O16       1.0  0.89844  0.66704  0.94196  1.0000 -0.5110112217
O   O17       1.0  0.70571  0.09031  0.58889  1.0000 -0.4575902235
O   O18       1.0  0.61509  0.58889  0.09031  1.0000 -0.4575902235
O   O19       1.0  0.66111  0.63491  0.54429  1.0000 -0.4575902235
O   O20       1.0  0.15969  0.54429  0.63491  1.0000 -0.4575902235
O   O21       1.0  0.46768  0.24528  0.63692  1.0000 -0.5196925115
O   O22       1.0  0.65012  0.63692  0.24528  1.0000 -0.5196925115
O   O23       1.0  0.61308  0.59988  0.78232  1.0000 -0.5196925115
O   O24       1.0  0.00472  0.78232  0.59988  1.0000 -0.5196925115
O   O25       1.0  0.56387  0.20247  0.93573  1.0000 -0.5345336508
O   O26       1.0  0.29793  0.93573  0.20247  1.0000 -0.5352385354
O   O27       1.0  0.31427  0.95207  0.68613  1.0000 -0.5352385354
O   O28       1.0  0.04753  0.68613  0.95207  1.0000 -0.5345336508
O   O29       1.0  0.32315  0.35755  0.98425  1.0000 -0.4699776036
O   O30       1.0  0.33505  0.98425  0.35755  1.0000 -0.4699776036
O   O31       1.0  0.26575  0.91495  0.92685  1.0000 -0.4699776036
O   O32       1.0  0.89245  0.92685  0.91495  1.0000 -0.4699776036
