# DDEC6 charges by PACMAN v1.1 (https://github.com/mtap-research/PACMAN-charge/)
data_2006[Bi][eca]3[FSR]1
_chemical_formula_sum              "Bi12 C40 O80"
_cell_length_a       8.202
_cell_length_b       14.803
_cell_length_c       19.783
_cell_angle_alpha    90
_cell_angle_beta     90
_cell_angle_gamma    90

_symmetry_space_group_name_H-M    "P 1"
_symmetry_Int_Tables_number       1

loop_
  _symmetry_equiv_pos_as_xyz
  'x, y, z'

loop_
  _atom_site_type_symbol
  _atom_site_label
  _atom_site_symmetry_multiplicity
  _atom_site_fract_x
  _atom_site_fract_y
  _atom_site_fract_z
  _atom_site_occupancy
  _atom_site_charge
Bi  Bi1       1.0  0.90323  0.80443  0.61612  1.0000 1.5398840969
Bi  Bi2       1.0  0.40323  0.69557  0.88388  1.0000 1.5504093473
Bi  Bi3       1.0  0.09677  0.30443  0.88388  1.0000 1.5398840969
Bi  Bi4       1.0  0.59677  0.19557  0.61612  1.0000 1.5398840969
Bi  Bi5       1.0  0.09677  0.19557  0.38388  1.0000 1.5398840969
Bi  Bi6       1.0  0.59677  0.30443  0.11612  1.0000 1.5398840969
Bi  Bi7       1.0  0.90323  0.69557  0.11612  1.0000 1.5398840969
Bi  Bi8       1.0  0.40323  0.80443  0.38388  1.0000 1.5398840969
Bi  Bi9       1.0  0.75000  0.50000  0.82854  1.0000 1.533816487
Bi  Bi10      1.0  0.25000  0.00000  0.67146  1.0000 1.5398840969
Bi  Bi11      1.0  0.25000  0.50000  0.17146  1.0000 1.5398840969
Bi  Bi12      1.0  0.75000  0.00000  0.32854  1.0000 1.5398840969
C   C1        1.0  0.74610  0.67810  0.74040  1.0000 0.5018584494
C   C2        1.0  0.24610  0.82190  0.75960  1.0000 0.5018584494
C   C3        1.0  0.25390  0.17810  0.75960  1.0000 0.5018584494
C   C4        1.0  0.75390  0.32190  0.74040  1.0000 0.5018584494
C   C5        1.0  0.25390  0.32190  0.25960  1.0000 0.5018584494
C   C6        1.0  0.75390  0.17810  0.24040  1.0000 0.5018584494
C   C7        1.0  0.74610  0.82190  0.24040  1.0000 0.5018584494
C   C8        1.0  0.24610  0.67810  0.25960  1.0000 0.5018584494
C   C9        1.0  0.73680  0.65900  0.97950  1.0000 0.5055284565
C   C10       1.0  0.23680  0.84100  0.52050  1.0000 0.5055284565
C   C11       1.0  0.26320  0.15900  0.52050  1.0000 0.5055284565
C   C12       1.0  0.76320  0.34100  0.97950  1.0000 0.5055284565
C   C13       1.0  0.26320  0.34100  0.02050  1.0000 0.5055284565
C   C14       1.0  0.76320  0.15900  0.47950  1.0000 0.5055284565
C   C15       1.0  0.73680  0.84100  0.47950  1.0000 0.5055284565
C   C16       1.0  0.23680  0.65900  0.02050  1.0000 0.5055284565
C   C17       1.0  0.87990  0.61720  0.71000  1.0000 0.5018584494
C   C18       1.0  0.37990  0.88280  0.79000  1.0000 0.5018584494
C   C19       1.0  0.12010  0.11720  0.79000  1.0000 0.5018584494
C   C20       1.0  0.62010  0.38280  0.71000  1.0000 0.5018584494
C   C21       1.0  0.12010  0.38280  0.29000  1.0000 0.5018584494
C   C22       1.0  0.62010  0.11720  0.21000  1.0000 0.5018584494
C   C23       1.0  0.87990  0.88280  0.21000  1.0000 0.5018584494
C   C24       1.0  0.37990  0.61720  0.29000  1.0000 0.5018584494
C   C25       1.0  0.16470  0.52340  0.86520  1.0000 0.5018584494
C   C26       1.0  0.66470  0.97660  0.63480  1.0000 0.5018584494
C   C27       1.0  0.83530  0.02340  0.63480  1.0000 0.5018584494
C   C28       1.0  0.33530  0.47660  0.86520  1.0000 0.5018584494
C   C29       1.0  0.83530  0.47660  0.13480  1.0000 0.5018584494
C   C30       1.0  0.33530  0.02340  0.36520  1.0000 0.5018584494
C   C31       1.0  0.16470  0.97660  0.36520  1.0000 0.5018584494
C   C32       1.0  0.66470  0.52340  0.13480  1.0000 0.5018584494
C   C33       1.0  0.65580  0.74710  0.00670  1.0000 0.5055284565
C   C34       1.0  0.15580  0.75290  0.49330  1.0000 0.5055284565
C   C35       1.0  0.34420  0.24710  0.49330  1.0000 0.5055284565
C   C36       1.0  0.84420  0.25290  0.00670  1.0000 0.5055284565
C   C37       1.0  0.34420  0.25290  0.99330  1.0000 0.5018584494
C   C38       1.0  0.84420  0.24710  0.50670  1.0000 0.5055284565
C   C39       1.0  0.65580  0.75290  0.50670  1.0000 0.5055284565
C   C40       1.0  0.15580  0.74710  0.99330  1.0000 0.5055284565
O   O1        1.0  0.72720  0.75470  0.71630  1.0000 -0.4725374985
O   O2        1.0  0.22720  0.74530  0.78370  1.0000 -0.4725374985
O   O3        1.0  0.27280  0.25470  0.78370  1.0000 -0.4725374985
O   O4        1.0  0.77280  0.24530  0.71630  1.0000 -0.4725374985
O   O5        1.0  0.27280  0.24530  0.28370  1.0000 -0.4725374985
O   O6        1.0  0.77280  0.25470  0.21630  1.0000 -0.4725374985
O   O7        1.0  0.72720  0.74530  0.21630  1.0000 -0.4725374985
O   O8        1.0  0.22720  0.75470  0.28370  1.0000 -0.4725374985
O   O9        1.0  0.70590  0.77640  0.06260  1.0000 -0.4565441025
O   O10       1.0  0.20590  0.72360  0.43740  1.0000 -0.4565441025
O   O11       1.0  0.29410  0.27640  0.43740  1.0000 -0.4565441025
O   O12       1.0  0.79410  0.22360  0.06260  1.0000 -0.4565441025
O   O13       1.0  0.29410  0.22360  0.93740  1.0000 -0.4565441025
O   O14       1.0  0.79410  0.27640  0.56260  1.0000 -0.4565441025
O   O15       1.0  0.70590  0.72360  0.56260  1.0000 -0.4565441025
O   O16       1.0  0.20590  0.77640  0.93740  1.0000 -0.4565441025
O   O17       1.0  0.66360  0.64310  0.78810  1.0000 -0.5299252119
O   O18       1.0  0.16360  0.85690  0.71190  1.0000 -0.5299252119
O   O19       1.0  0.33640  0.14310  0.71190  1.0000 -0.5299252119
O   O20       1.0  0.83640  0.35690  0.78810  1.0000 -0.5299252119
O   O21       1.0  0.33640  0.35690  0.21190  1.0000 -0.5299252119
O   O22       1.0  0.83640  0.14310  0.28810  1.0000 -0.5299252119
O   O23       1.0  0.66360  0.85690  0.28810  1.0000 -0.5299252119
O   O24       1.0  0.16360  0.64310  0.21190  1.0000 -0.5299252119
O   O25       1.0  0.54960  0.78320  0.97150  1.0000 -0.4565441025
O   O26       1.0  0.04960  0.71680  0.52850  1.0000 -0.4565441025
O   O27       1.0  0.45040  0.28320  0.52850  1.0000 -0.4565441025
O   O28       1.0  0.95040  0.21680  0.97150  1.0000 -0.4565441025
O   O29       1.0  0.45040  0.21680  0.02850  1.0000 -0.4565441025
O   O30       1.0  0.95040  0.28320  0.47150  1.0000 -0.4565441025
O   O31       1.0  0.54960  0.71680  0.47150  1.0000 -0.4565441025
O   O32       1.0  0.04960  0.78320  0.02850  1.0000 -0.4565441025
O   O33       1.0  0.95230  0.64420  0.65900  1.0000 -0.451403679
O   O34       1.0  0.45230  0.85580  0.84100  1.0000 -0.451403679
O   O35       1.0  0.04770  0.14420  0.84100  1.0000 -0.451403679
O   O36       1.0  0.54770  0.35580  0.65900  1.0000 -0.451403679
O   O37       1.0  0.04770  0.35580  0.34100  1.0000 -0.451403679
O   O38       1.0  0.54770  0.14420  0.15900  1.0000 -0.451403679
O   O39       1.0  0.95230  0.85580  0.15900  1.0000 -0.451403679
O   O40       1.0  0.45230  0.64420  0.34100  1.0000 -0.451403679
O   O41       1.0  0.15710  0.60590  0.86740  1.0000 -0.451403679
O   O42       1.0  0.65710  0.89410  0.63260  1.0000 -0.451403679
O   O43       1.0  0.84290  0.10590  0.63260  1.0000 -0.4565441025
O   O44       1.0  0.34290  0.39410  0.86740  1.0000 -0.451403679
O   O45       1.0  0.84290  0.39410  0.13260  1.0000 -0.451403679
O   O46       1.0  0.34290  0.10590  0.36740  1.0000 -0.451403679
O   O47       1.0  0.15710  0.89410  0.36740  1.0000 -0.451403679
O   O48       1.0  0.65710  0.60590  0.13260  1.0000 -0.451403679
O   O49       1.0  0.04540  0.47070  0.86040  1.0000 -0.5168339382
O   O50       1.0  0.54540  0.02930  0.63960  1.0000 -0.5168339382
O   O51       1.0  0.95460  0.97070  0.63960  1.0000 -0.5168339382
O   O52       1.0  0.45460  0.52930  0.86040  1.0000 -0.5168339382
O   O53       1.0  0.95460  0.52930  0.13960  1.0000 -0.5168339382
O   O54       1.0  0.45460  0.97070  0.36040  1.0000 -0.5168339382
O   O55       1.0  0.04540  0.02930  0.36040  1.0000 -0.5168339382
O   O56       1.0  0.54540  0.47070  0.13960  1.0000 -0.5168339382
O   O57       1.0  0.84950  0.62560  0.01410  1.0000 -0.4920202787
O   O58       1.0  0.34950  0.87440  0.48590  1.0000 -0.4920202787
O   O59       1.0  0.15050  0.12560  0.48590  1.0000 -0.4920202787
O   O60       1.0  0.65050  0.37440  0.01410  1.0000 -0.4920202787
O   O61       1.0  0.15050  0.37440  0.98590  1.0000 -0.4920202787
O   O62       1.0  0.65050  0.12560  0.51410  1.0000 -0.4920202787
O   O63       1.0  0.84950  0.87440  0.51410  1.0000 -0.4920202787
O   O64       1.0  0.34950  0.62560  0.98590  1.0000 -0.4920202787
O   O65       1.0  0.68460  0.62960  0.92500  1.0000 -0.5168339382
O   O66       1.0  0.18460  0.87040  0.57500  1.0000 -0.5168339382
O   O67       1.0  0.31540  0.12960  0.57500  1.0000 -0.5168339382
O   O68       1.0  0.81540  0.37040  0.92500  1.0000 -0.5168339382
O   O69       1.0  0.31540  0.37040  0.07500  1.0000 -0.5168339382
O   O70       1.0  0.81540  0.12960  0.42500  1.0000 -0.5168339382
O   O71       1.0  0.68460  0.87040  0.42500  1.0000 -0.5168339382
O   O72       1.0  0.18460  0.62960  0.07500  1.0000 -0.5168339382
O   O73       1.0  0.90910  0.54330  0.74030  1.0000 -0.4818678792
O   O74       1.0  0.40910  0.95670  0.75970  1.0000 -0.4818678792
O   O75       1.0  0.09090  0.04330  0.75970  1.0000 -0.4818678792
O   O76       1.0  0.59090  0.45670  0.74030  1.0000 -0.4818678792
O   O77       1.0  0.09090  0.45670  0.25970  1.0000 -0.4818678792
O   O78       1.0  0.59090  0.04330  0.24030  1.0000 -0.4818678792
O   O79       1.0  0.90910  0.95670  0.24030  1.0000 -0.4818678792
O   O80       1.0  0.40910  0.54330  0.25970  1.0000 -0.4818678792
