# DDEC6 charges by PACMAN v1.1 (https://github.com/mtap-research/PACMAN-charge/)
data_2006[La][bnn]3[FSR]1
_chemical_formula_sum              "La4 C20 O40"
_cell_length_a       11.665
_cell_length_b       11.924
_cell_length_c       13.223
_cell_angle_alpha    104.585
_cell_angle_beta     108.268
_cell_angle_gamma    111.132

_symmetry_space_group_name_H-M    "P 1"
_symmetry_Int_Tables_number       1

loop_
  _symmetry_equiv_pos_as_xyz
  'x, y, z'

loop_
  _atom_site_type_symbol
  _atom_site_label
  _atom_site_symmetry_multiplicity
  _atom_site_fract_x
  _atom_site_fract_y
  _atom_site_fract_z
  _atom_site_occupancy
  _atom_site_charge
La  La1       1.0  0.74998  0.08746  0.92504  1.0000 1.5915764809
La  La2       1.0  0.25002  0.91254  0.07496  1.0000 1.5915764809
La  La3       1.0  0.25888  0.59055  0.42086  1.0000 1.5915764809
La  La4       1.0  0.74112  0.40945  0.57914  1.0000 1.6091648182
C   C1        1.0  0.00110  0.38450  0.14280  1.0000 0.5226441132
C   C2        1.0  0.99890  0.61550  0.85720  1.0000 0.5226441132
C   C3        1.0  0.99500  0.29070  0.20430  1.0000 0.5124820213
C   C4        1.0  0.00500  0.70930  0.79570  1.0000 0.5124820213
C   C5        1.0  0.67060  0.24910  0.75060  1.0000 0.5226441132
C   C6        1.0  0.32940  0.75090  0.24940  1.0000 0.5226441132
C   C7        1.0  0.76710  0.20800  0.71480  1.0000 0.5281157335
C   C8        1.0  0.23290  0.79200  0.28520  1.0000 0.5281157335
C   C9        1.0  0.44550  0.85370  0.68130  1.0000 0.5124820213
C   C10       1.0  0.55450  0.14630  0.31870  1.0000 0.5124820213
C   C11       1.0  0.55620  0.83260  0.65370  1.0000 0.5124820213
C   C12       1.0  0.44380  0.16740  0.34630  1.0000 0.5124820213
C   C13       1.0  0.05090  0.06370  0.00120  1.0000 0.5226441132
C   C14       1.0  0.94910  0.93630  0.99880  1.0000 0.5281157335
C   C15       1.0  0.50270  0.06840  0.00930  1.0000 0.5281157335
C   C16       1.0  0.49730  0.93160  0.99070  1.0000 0.5281157335
C   C17       1.0  0.49910  0.48840  0.43980  1.0000 0.5226441132
C   C18       1.0  0.50090  0.51160  0.56020  1.0000 0.5226441132
C   C19       1.0  0.96200  0.51990  0.45600  1.0000 0.5226441132
C   C20       1.0  0.03800  0.48010  0.54400  1.0000 0.5226441132
O   O1        1.0  0.09430  0.50190  0.20040  1.0000 -0.439257884
O   O2        1.0  0.90570  0.49810  0.79960  1.0000 -0.439257884
O   O3        1.0  0.91330  0.33690  0.03970  1.0000 -0.420410783
O   O4        1.0  0.08670  0.66310  0.96030  1.0000 -0.420410783
O   O5        1.0  0.09000  0.33680  0.30650  1.0000 -0.439257884
O   O6        1.0  0.91000  0.66320  0.69350  1.0000 -0.439257884
O   O7        1.0  0.89760  0.17460  0.14950  1.0000 -0.439257884
O   O8        1.0  0.10240  0.82540  0.85050  1.0000 -0.439257884
O   O9        1.0  0.62230  0.30680  0.69620  1.0000 -0.4109757105
O   O10       1.0  0.37770  0.69320  0.30380  1.0000 -0.4109757105
O   O11       1.0  0.64700  0.22050  0.82940  1.0000 -0.4000157872
O   O12       1.0  0.35300  0.77950  0.17060  1.0000 -0.4000157872
O   O13       1.0  0.82540  0.16070  0.77460  1.0000 -0.4109757105
O   O14       1.0  0.17460  0.83930  0.22540  1.0000 -0.4109757105
O   O15       1.0  0.78130  0.22500  0.62950  1.0000 -0.4109757105
O   O16       1.0  0.21870  0.77500  0.37050  1.0000 -0.4109757105
O   O17       1.0  0.48680  0.94630  0.77640  1.0000 -0.439257884
O   O18       1.0  0.51320  0.05370  0.22360  1.0000 -0.439257884
O   O19       1.0  0.32230  0.77490  0.60920  1.0000 -0.439257884
O   O20       1.0  0.67770  0.22510  0.39080  1.0000 -0.439257884
O   O21       1.0  0.51880  0.76020  0.54990  1.0000 -0.439257884
O   O22       1.0  0.48120  0.23980  0.45010  1.0000 -0.439257884
O   O23       1.0  0.67460  0.88840  0.73620  1.0000 -0.4308958212
O   O24       1.0  0.32540  0.11160  0.26380  1.0000 -0.4308958212
O   O25       1.0  0.00380  0.13690  0.97220  1.0000 -0.439257884
O   O26       1.0  0.99620  0.86310  0.02780  1.0000 -0.4468097249
O   O27       1.0  0.17140  0.08520  0.03320  1.0000 -0.3806606093
O   O28       1.0  0.82860  0.91480  0.96680  1.0000 -0.3806606093
O   O29       1.0  0.61130  0.15800  0.01990  1.0000 -0.420410783
O   O30       1.0  0.38870  0.84200  0.98010  1.0000 -0.420410783
O   O31       1.0  0.40170  0.07970  0.01370  1.0000 -0.3916144927
O   O32       1.0  0.59830  0.92030  0.98630  1.0000 -0.4000157872
O   O33       1.0  0.39700  0.47850  0.36050  1.0000 -0.4109757105
O   O34       1.0  0.60300  0.52150  0.63950  1.0000 -0.4109757105
O   O35       1.0  0.59930  0.48030  0.42970  1.0000 -0.4000157872
O   O36       1.0  0.40070  0.51970  0.57030  1.0000 -0.4000157872
O   O37       1.0  0.01870  0.55940  0.39600  1.0000 -0.439257884
O   O38       1.0  0.98130  0.44060  0.60400  1.0000 -0.439257884
O   O39       1.0  0.84680  0.50660  0.44680  1.0000 -0.3916144927
O   O40       1.0  0.15320  0.49340  0.55320  1.0000 -0.3916144927
