# DDEC6 charges by PACMAN v1.1 (https://github.com/mtap-research/PACMAN-charge/)
data_2006[In][bpq]3[FSR]1
_chemical_formula_sum              "In4 H24 C16 O28"
_cell_length_a       7.2642
_cell_length_b       8.8286
_cell_length_c       15.0204
_cell_angle_alpha    90
_cell_angle_beta     90
_cell_angle_gamma    90

_symmetry_space_group_name_H-M    "P 1"
_symmetry_Int_Tables_number       1

loop_
  _symmetry_equiv_pos_as_xyz
  'x, y, z'

loop_
  _atom_site_type_symbol
  _atom_site_label
  _atom_site_symmetry_multiplicity
  _atom_site_fract_x
  _atom_site_fract_y
  _atom_site_fract_z
  _atom_site_occupancy
  _atom_site_charge
In  In1       1.0  0.50000  0.50000  0.50000  1.0000 1.3787245155
In  In2       1.0  0.00000  0.50000  0.50000  1.0000 1.3787245155
In  In3       1.0  0.00000  0.00000  0.00000  1.0000 1.3787245155
In  In4       1.0  0.50000  0.00000  0.00000  1.0000 1.3787245155
H   H1        1.0  0.48440  0.14730  0.30690  1.0000 0.3233093322
H   H2        1.0  0.01560  0.14730  0.69310  1.0000 0.3233093322
H   H3        1.0  0.01560  0.35270  0.80690  1.0000 0.3233093322
H   H4        1.0  0.48440  0.35270  0.19310  1.0000 0.3233093322
H   H5        1.0  0.51560  0.85270  0.69310  1.0000 0.3233093322
H   H6        1.0  0.98440  0.85270  0.30690  1.0000 0.3233093322
H   H7        1.0  0.98440  0.64730  0.19310  1.0000 0.3233093322
H   H8        1.0  0.51560  0.64730  0.80690  1.0000 0.3233093322
H   H9        1.0  0.12130  0.14380  0.29450  1.0000 0.1106633544
H   H10       1.0  0.37870  0.14380  0.70550  1.0000 0.1106633544
H   H11       1.0  0.37870  0.35620  0.79450  1.0000 0.1106633544
H   H12       1.0  0.12130  0.35620  0.20550  1.0000 0.1106633544
H   H13       1.0  0.87870  0.85620  0.70550  1.0000 0.1106633544
H   H14       1.0  0.62130  0.85620  0.29450  1.0000 0.1106633544
H   H15       1.0  0.62130  0.64380  0.20550  1.0000 0.1106633544
H   H16       1.0  0.87870  0.64380  0.79450  1.0000 0.1106633544
H   H17       1.0  0.25000  0.67990  0.45450  1.0000 0.2924735993
H   H18       1.0  0.25000  0.67990  0.54550  1.0000 0.2924735993
H   H19       1.0  0.25000  0.82010  0.95450  1.0000 0.2924735993
H   H20       1.0  0.25000  0.82010  0.04550  1.0000 0.2924735993
H   H21       1.0  0.75000  0.32010  0.54550  1.0000 0.2924735993
H   H22       1.0  0.75000  0.32010  0.45450  1.0000 0.2924735993
H   H23       1.0  0.75000  0.17990  0.04550  1.0000 0.2924735993
H   H24       1.0  0.75000  0.17990  0.95450  1.0000 0.2924735993
C   C1        1.0  0.23570  0.31180  0.37140  1.0000 0.5711221696
C   C2        1.0  0.26430  0.31180  0.62860  1.0000 0.5711221696
C   C3        1.0  0.26430  0.18820  0.87140  1.0000 0.5711221696
C   C4        1.0  0.23570  0.18820  0.12860  1.0000 0.5711221696
C   C5        1.0  0.76430  0.68820  0.62860  1.0000 0.5711221696
C   C6        1.0  0.73570  0.68820  0.37140  1.0000 0.5711221696
C   C7        1.0  0.73570  0.81180  0.12860  1.0000 0.5711221696
C   C8        1.0  0.76430  0.81180  0.87140  1.0000 0.5711221696
C   C9        1.0  0.23570  0.20250  0.29260  1.0000 -0.017148428
C   C10       1.0  0.26430  0.20250  0.70740  1.0000 -0.017148428
C   C11       1.0  0.26430  0.29750  0.79260  1.0000 -0.017148428
C   C12       1.0  0.23570  0.29750  0.20740  1.0000 -0.017148428
C   C13       1.0  0.76430  0.79750  0.70740  1.0000 -0.017148428
C   C14       1.0  0.73570  0.79750  0.29260  1.0000 -0.017148428
C   C15       1.0  0.73570  0.70250  0.20740  1.0000 -0.017148428
C   C16       1.0  0.76430  0.70250  0.79260  1.0000 -0.017148428
O   O1        1.0  0.25000  0.62280  0.50000  1.0000 -0.6737390955
O   O2        1.0  0.25000  0.87720  0.00000  1.0000 -0.6751328706
O   O3        1.0  0.75000  0.37720  0.50000  1.0000 -0.6737390955
O   O4        1.0  0.75000  0.12280  0.00000  1.0000 -0.6737390955
O   O5        1.0  0.38190  0.32490  0.41555  1.0000 -0.5952910781
O   O6        1.0  0.11810  0.32490  0.58445  1.0000 -0.5952910781
O   O7        1.0  0.11810  0.17510  0.91555  1.0000 -0.5952910781
O   O8        1.0  0.38190  0.17510  0.08445  1.0000 -0.5952910781
O   O9        1.0  0.61810  0.67510  0.58445  1.0000 -0.5952910781
O   O10       1.0  0.88190  0.67510  0.41555  1.0000 -0.5952910781
O   O11       1.0  0.88190  0.82490  0.08445  1.0000 -0.5952910781
O   O12       1.0  0.61810  0.82490  0.91555  1.0000 -0.5952910781
O   O13       1.0  0.08810  0.37990  0.38390  1.0000 -0.566319406
O   O14       1.0  0.41190  0.37990  0.61610  1.0000 -0.566319406
O   O15       1.0  0.41190  0.12010  0.88390  1.0000 -0.566319406
O   O16       1.0  0.08810  0.12010  0.11610  1.0000 -0.566319406
O   O17       1.0  0.91190  0.62010  0.61610  1.0000 -0.566319406
O   O18       1.0  0.58810  0.62010  0.38390  1.0000 -0.566319406
O   O19       1.0  0.58810  0.87990  0.11610  1.0000 -0.566319406
O   O20       1.0  0.91190  0.87990  0.88390  1.0000 -0.566319406
O   O21       1.0  0.38600  0.09950  0.29464  1.0000 -0.4711280316
O   O22       1.0  0.11400  0.09950  0.70536  1.0000 -0.4711280316
O   O23       1.0  0.11400  0.40050  0.79464  1.0000 -0.4711280316
O   O24       1.0  0.38600  0.40050  0.20536  1.0000 -0.4711280316
O   O25       1.0  0.61400  0.90050  0.70536  1.0000 -0.4711280316
O   O26       1.0  0.88600  0.90050  0.29464  1.0000 -0.4711280316
O   O27       1.0  0.88600  0.59950  0.20536  1.0000 -0.4711280316
O   O28       1.0  0.61400  0.59950  0.79464  1.0000 -0.4711280316
