# DDEC6 charges by PACMAN v1.1 (https://github.com/mtap-research/PACMAN-charge/)
data_2006[Ag][mog]3[FSR]1
_chemical_formula_sum              "Ag16 H80 C64 N32"
_cell_length_a       11.1137
_cell_length_b       19.726
_cell_length_c       12.6836
_cell_angle_alpha    90
_cell_angle_beta     101.835
_cell_angle_gamma    90

_symmetry_space_group_name_H-M    "P 1"
_symmetry_Int_Tables_number       1

loop_
  _symmetry_equiv_pos_as_xyz
  'x, y, z'

loop_
  _atom_site_type_symbol
  _atom_site_label
  _atom_site_symmetry_multiplicity
  _atom_site_fract_x
  _atom_site_fract_y
  _atom_site_fract_z
  _atom_site_occupancy
  _atom_site_charge
Ag  Ag1       1.0  0.64230  0.04760  0.65442  1.0000 0.2542656224
Ag  Ag2       1.0  0.85770  0.54760  0.34558  1.0000 0.2542656224
Ag  Ag3       1.0  0.35770  0.95240  0.34558  1.0000 0.2599466255
Ag  Ag4       1.0  0.14230  0.45240  0.65442  1.0000 0.2599466255
Ag  Ag5       1.0  0.76515  0.16705  0.24512  1.0000 0.2668341036
Ag  Ag6       1.0  0.73485  0.66705  0.75488  1.0000 0.2668341036
Ag  Ag7       1.0  0.23485  0.83295  0.75488  1.0000 0.2668341036
Ag  Ag8       1.0  0.26515  0.33295  0.24512  1.0000 0.2668341036
Ag  Ag9       1.0  0.85890  0.02988  0.84004  1.0000 0.2599466255
Ag  Ag10      1.0  0.64110  0.52988  0.15996  1.0000 0.2599466255
Ag  Ag11      1.0  0.14110  0.97012  0.15996  1.0000 0.2599466255
Ag  Ag12      1.0  0.35890  0.47012  0.84004  1.0000 0.2599466255
Ag  Ag13      1.0  0.48587  0.76511  0.76418  1.0000 0.2668341036
Ag  Ag14      1.0  0.01413  0.26511  0.23582  1.0000 0.2668341036
Ag  Ag15      1.0  0.51413  0.23489  0.23582  1.0000 0.2668341036
Ag  Ag16      1.0  0.98587  0.73489  0.76418  1.0000 0.2668341036
H   H1        1.0  0.68370  0.21350  0.62410  1.0000 0.1191799917
H   H2        1.0  0.81630  0.71350  0.37590  1.0000 0.1191799917
H   H3        1.0  0.31630  0.78650  0.37590  1.0000 0.1191799917
H   H4        1.0  0.18370  0.28650  0.62410  1.0000 0.1191799917
H   H5        1.0  0.73200  0.26290  0.45910  1.0000 0.1191799917
H   H6        1.0  0.76800  0.76290  0.54090  1.0000 0.1191799917
H   H7        1.0  0.26800  0.73710  0.54090  1.0000 0.1191799917
H   H8        1.0  0.23200  0.23710  0.45910  1.0000 0.1191799917
H   H9        1.0  0.70950  0.00320  0.45980  1.0000 0.143686103
H   H10       1.0  0.79050  0.50320  0.54020  1.0000 0.143686103
H   H11       1.0  0.29050  0.99680  0.54020  1.0000 0.143686103
H   H12       1.0  0.20950  0.49680  0.45980  1.0000 0.143686103
H   H13       1.0  0.80860  0.02990  0.39410  1.0000 0.1498194075
H   H14       1.0  0.69140  0.52990  0.60590  1.0000 0.1498194075
H   H15       1.0  0.19140  0.97010  0.60590  1.0000 0.1498194075
H   H16       1.0  0.30860  0.47010  0.39410  1.0000 0.1498194075
H   H17       1.0  0.66500  0.03400  0.34150  1.0000 0.1498194075
H   H18       1.0  0.83500  0.53400  0.65850  1.0000 0.1498194075
H   H19       1.0  0.33500  0.96600  0.65850  1.0000 0.1498194075
H   H20       1.0  0.16500  0.46600  0.34150  1.0000 0.1498194075
H   H21       1.0  0.80050  0.25570  0.02450  1.0000 0.1109817337
H   H22       1.0  0.69950  0.75570  0.97550  1.0000 0.1109817337
H   H23       1.0  0.19950  0.74430  0.97550  1.0000 0.1109817337
H   H24       1.0  0.30050  0.24430  0.02450  1.0000 0.1109817337
H   H25       1.0  0.84430  0.20040  0.86210  1.0000 0.1191799917
H   H26       1.0  0.65570  0.70040  0.13790  1.0000 0.1191799917
H   H27       1.0  0.15570  0.79960  0.13790  1.0000 0.1191799917
H   H28       1.0  0.34430  0.29960  0.86210  1.0000 0.1191799917
H   H29       1.0  0.77010  0.03760  0.15770  1.0000 0.1498194075
H   H30       1.0  0.72990  0.53760  0.84230  1.0000 0.1498194075
H   H31       1.0  0.22990  0.96240  0.84230  1.0000 0.1498194075
H   H32       1.0  0.27010  0.46240  0.15770  1.0000 0.1498194075
H   H33       1.0  0.86680  0.00760  0.09230  1.0000 0.143686103
H   H34       1.0  0.63320  0.50760  0.90770  1.0000 0.143686103
H   H35       1.0  0.13320  0.99240  0.90770  1.0000 0.143686103
H   H36       1.0  0.36680  0.49240  0.09230  1.0000 0.143686103
H   H37       1.0  0.72290  0.00580  0.04050  1.0000 0.1498194075
H   H38       1.0  0.77710  0.50580  0.95950  1.0000 0.1498194075
H   H39       1.0  0.27710  0.99420  0.95950  1.0000 0.1498194075
H   H40       1.0  0.22290  0.49420  0.04050  1.0000 0.143686103
H   H41       1.0  0.44930  0.52410  0.61550  1.0000 0.1191799917
H   H42       1.0  0.05070  0.02410  0.38450  1.0000 0.1191799917
H   H43       1.0  0.55070  0.47590  0.38450  1.0000 0.1191799917
H   H44       1.0  0.94930  0.97590  0.61550  1.0000 0.1191799917
H   H45       1.0  0.48790  0.64540  0.58360  1.0000 0.1191799917
H   H46       1.0  0.01210  0.14540  0.41640  1.0000 0.1191799917
H   H47       1.0  0.51210  0.35460  0.41640  1.0000 0.1191799917
H   H48       1.0  0.98790  0.85460  0.58360  1.0000 0.1191799917
H   H49       1.0  0.34920  0.59420  0.93650  1.0000 0.1498194075
H   H50       1.0  0.15080  0.09420  0.06350  1.0000 0.1498194075
H   H51       1.0  0.65080  0.40580  0.06350  1.0000 0.1498194075
H   H52       1.0  0.84920  0.90580  0.93650  1.0000 0.1498194075
H   H53       1.0  0.44130  0.65740  0.94960  1.0000 0.1498194075
H   H54       1.0  0.05870  0.15740  0.05040  1.0000 0.1498194075
H   H55       1.0  0.55870  0.34260  0.05040  1.0000 0.1498194075
H   H56       1.0  0.94130  0.84260  0.94960  1.0000 0.1498194075
H   H57       1.0  0.30100  0.66680  0.88930  1.0000 0.1498194075
H   H58       1.0  0.19900  0.16680  0.11070  1.0000 0.1498194075
H   H59       1.0  0.69900  0.33320  0.11070  1.0000 0.1498194075
H   H60       1.0  0.80100  0.83320  0.88930  1.0000 0.1498194075
H   H61       1.0  0.53850  0.01460  0.88010  1.0000 0.1191799917
H   H62       1.0  0.96150  0.51460  0.11990  1.0000 0.1191799917
H   H63       1.0  0.46150  0.98540  0.11990  1.0000 0.1191799917
H   H64       1.0  0.03850  0.48540  0.88010  1.0000 0.1191799917
H   H65       1.0  0.48380  0.89840  0.92840  1.0000 0.1191799917
H   H66       1.0  0.01620  0.39840  0.07160  1.0000 0.1191799917
H   H67       1.0  0.51620  0.10160  0.07160  1.0000 0.1191799917
H   H68       1.0  0.98380  0.60160  0.92840  1.0000 0.1191799917
H   H69       1.0  0.60020  0.82850  0.61390  1.0000 0.143686103
H   H70       1.0  0.89980  0.32850  0.38610  1.0000 0.143686103
H   H71       1.0  0.39980  0.17150  0.38610  1.0000 0.143686103
H   H72       1.0  0.10020  0.67150  0.61390  1.0000 0.143686103
H   H73       1.0  0.55930  0.89880  0.55420  1.0000 0.1498194075
H   H74       1.0  0.94070  0.39880  0.44580  1.0000 0.1498194075
H   H75       1.0  0.44070  0.10120  0.44580  1.0000 0.1498194075
H   H76       1.0  0.05930  0.60120  0.55420  1.0000 0.1498194075
H   H77       1.0  0.69800  0.88850  0.61780  1.0000 0.1498194075
H   H78       1.0  0.80200  0.38850  0.38220  1.0000 0.1498194075
H   H79       1.0  0.30200  0.11150  0.38220  1.0000 0.1498194075
H   H80       1.0  0.19800  0.61150  0.61780  1.0000 0.1498194075
C   C1        1.0  0.72060  0.10650  0.45620  1.0000 0.3665043685
C   C2        1.0  0.77940  0.60650  0.54380  1.0000 0.3665043685
C   C3        1.0  0.27940  0.89350  0.54380  1.0000 0.3665043685
C   C4        1.0  0.22060  0.39350  0.45620  1.0000 0.3665043685
C   C5        1.0  0.69800  0.18870  0.56350  1.0000 -0.0807975575
C   C6        1.0  0.80200  0.68870  0.43650  1.0000 -0.0807975575
C   C7        1.0  0.30200  0.81130  0.43650  1.0000 -0.0807975575
C   C8        1.0  0.19800  0.31130  0.56350  1.0000 -0.0807975575
C   C9        1.0  0.72490  0.21590  0.47300  1.0000 -0.0713980467
C   C10       1.0  0.77510  0.71590  0.52700  1.0000 -0.0713980467
C   C11       1.0  0.27510  0.78410  0.52700  1.0000 -0.0713980467
C   C12       1.0  0.22490  0.28410  0.47300  1.0000 -0.0713980467
C   C13       1.0  0.72640  0.03740  0.40880  1.0000 -0.5284060825
C   C14       1.0  0.77360  0.53740  0.59120  1.0000 -0.5284060825
C   C15       1.0  0.27360  0.96260  0.59120  1.0000 -0.5284060825
C   C16       1.0  0.22640  0.46260  0.40880  1.0000 -0.5284060825
C   C17       1.0  0.79850  0.09980  0.03670  1.0000 0.3610868688
C   C18       1.0  0.70150  0.59980  0.96330  1.0000 0.3610868688
C   C19       1.0  0.20150  0.90020  0.96330  1.0000 0.3610868688
C   C20       1.0  0.29850  0.40020  0.03670  1.0000 0.3610868688
C   C21       1.0  0.80370  0.20820  0.01320  1.0000 -0.0889786256
C   C22       1.0  0.69630  0.70820  0.98680  1.0000 -0.0807975575
C   C23       1.0  0.19630  0.79180  0.98680  1.0000 -0.0807975575
C   C24       1.0  0.30370  0.29180  0.01320  1.0000 -0.0807975575
C   C25       1.0  0.82750  0.17780  0.92370  1.0000 -0.0807975575
C   C26       1.0  0.67250  0.67780  0.07630  1.0000 -0.0807975575
C   C27       1.0  0.17250  0.82220  0.07630  1.0000 -0.0807975575
C   C28       1.0  0.32750  0.32220  0.92370  1.0000 -0.0807975575
C   C29       1.0  0.78880  0.03190  0.08600  1.0000 -0.5284060825
C   C30       1.0  0.71120  0.53190  0.91400  1.0000 -0.5284060825
C   C31       1.0  0.21120  0.96810  0.91400  1.0000 -0.5284060825
C   C32       1.0  0.28880  0.46810  0.08600  1.0000 -0.5284060825
C   C33       1.0  0.40520  0.61810  0.79730  1.0000 0.3665043685
C   C34       1.0  0.09480  0.11810  0.20270  1.0000 0.3665043685
C   C35       1.0  0.59480  0.38190  0.20270  1.0000 0.3665043685
C   C36       1.0  0.90520  0.88190  0.79730  1.0000 0.3665043685
C   C37       1.0  0.44060  0.56060  0.66220  1.0000 -0.0807975575
C   C38       1.0  0.05940  0.06060  0.33780  1.0000 -0.0807975575
C   C39       1.0  0.55940  0.43940  0.33780  1.0000 -0.0807975575
C   C40       1.0  0.94060  0.93940  0.66220  1.0000 -0.0807975575
C   C41       1.0  0.46190  0.62730  0.64470  1.0000 -0.0889786256
C   C42       1.0  0.03810  0.12730  0.35530  1.0000 -0.0889786256
C   C43       1.0  0.53810  0.37270  0.35530  1.0000 -0.0889786256
C   C44       1.0  0.96190  0.87270  0.64470  1.0000 -0.0889786256
C   C45       1.0  0.37130  0.63560  0.90220  1.0000 -0.5217325603
C   C46       1.0  0.12870  0.13560  0.09780  1.0000 -0.5217325603
C   C47       1.0  0.62870  0.36440  0.09780  1.0000 -0.5217325603
C   C48       1.0  0.87130  0.86440  0.90220  1.0000 -0.5217325603
C   C49       1.0  0.57810  0.90460  0.71740  1.0000 0.3610868688
C   C50       1.0  0.92190  0.40460  0.28260  1.0000 0.3610868688
C   C51       1.0  0.42190  0.09540  0.28260  1.0000 0.3610868688
C   C52       1.0  0.07810  0.59540  0.71740  1.0000 0.3610868688
C   C53       1.0  0.54440  0.97460  0.83980  1.0000 -0.0889786256
C   C54       1.0  0.95560  0.47460  0.16020  1.0000 -0.0889786256
C   C55       1.0  0.45560  0.02540  0.16020  1.0000 -0.0889786256
C   C56       1.0  0.04440  0.52540  0.83980  1.0000 -0.0889786256
C   C57       1.0  0.51450  0.91050  0.86630  1.0000 -0.0713980467
C   C58       1.0  0.98550  0.41050  0.13370  1.0000 -0.0713980467
C   C59       1.0  0.48550  0.08950  0.13370  1.0000 -0.0713980467
C   C60       1.0  0.01450  0.58950  0.86630  1.0000 -0.0713980467
C   C61       1.0  0.61180  0.87780  0.61720  1.0000 -0.5217325603
C   C62       1.0  0.88820  0.37780  0.38280  1.0000 -0.5217325603
C   C63       1.0  0.38820  0.12220  0.38280  1.0000 -0.5217325603
C   C64       1.0  0.11180  0.62220  0.61720  1.0000 -0.5217325603
N   N1        1.0  0.69470  0.11890  0.55290  1.0000 -0.3112328305
N   N2        1.0  0.80530  0.61890  0.44710  1.0000 -0.3112328305
N   N3        1.0  0.30530  0.88110  0.44710  1.0000 -0.3112328305
N   N4        1.0  0.19470  0.38110  0.55290  1.0000 -0.3112328305
N   N5        1.0  0.74030  0.16370  0.40430  1.0000 -0.3183239167
N   N6        1.0  0.75970  0.66370  0.59570  1.0000 -0.3183239167
N   N7        1.0  0.25970  0.83630  0.59570  1.0000 -0.3183239167
N   N8        1.0  0.24030  0.33630  0.40430  1.0000 -0.3183239167
N   N9        1.0  0.78500  0.15870  0.08540  1.0000 -0.3112328305
N   N10       1.0  0.71500  0.65870  0.91460  1.0000 -0.3112328305
N   N11       1.0  0.21500  0.84130  0.91460  1.0000 -0.3112328305
N   N12       1.0  0.28500  0.34130  0.08540  1.0000 -0.3112328305
N   N13       1.0  0.82320  0.10820  0.93750  1.0000 -0.3112328305
N   N14       1.0  0.67680  0.60820  0.06250  1.0000 -0.3112328305
N   N15       1.0  0.17680  0.89180  0.06250  1.0000 -0.3112328305
N   N16       1.0  0.32320  0.39180  0.93750  1.0000 -0.3112328305
N   N17       1.0  0.40440  0.55540  0.75910  1.0000 -0.3112328305
N   N18       1.0  0.09560  0.05540  0.24090  1.0000 -0.3031327735
N   N19       1.0  0.59560  0.44460  0.24090  1.0000 -0.3031327735
N   N20       1.0  0.90440  0.94460  0.75910  1.0000 -0.3031327735
N   N21       1.0  0.43910  0.66400  0.73110  1.0000 -0.3112328305
N   N22       1.0  0.06090  0.16400  0.26890  1.0000 -0.3112328305
N   N23       1.0  0.56090  0.33600  0.26890  1.0000 -0.3112328305
N   N24       1.0  0.93910  0.83600  0.73110  1.0000 -0.3112328305
N   N25       1.0  0.53580  0.86700  0.78910  1.0000 -0.3031327735
N   N26       1.0  0.96420  0.36700  0.21090  1.0000 -0.3031327735
N   N27       1.0  0.46420  0.13300  0.21090  1.0000 -0.3031327735
N   N28       1.0  0.03580  0.63300  0.78910  1.0000 -0.3031327735
N   N29       1.0  0.58470  0.97080  0.74450  1.0000 -0.3112328305
N   N30       1.0  0.91530  0.47080  0.25550  1.0000 -0.3112328305
N   N31       1.0  0.41530  0.02920  0.25550  1.0000 -0.3112328305
N   N32       1.0  0.08470  0.52920  0.74450  1.0000 -0.3112328305
