# DDEC6 charges by PACMAN v1.1 (https://github.com/mtap-research/PACMAN-charge/)
data_2006[V][nan]3[FSR]4
_chemical_formula_sum              "V8 P8 H24 C12 O36"
_cell_length_a       9.10678
_cell_length_b       9.10678
_cell_length_c       18.6376
_cell_angle_alpha    79.6541
_cell_angle_beta     100.346
_cell_angle_gamma    111.865

_symmetry_space_group_name_H-M    "P 1"
_symmetry_Int_Tables_number       1

loop_
  _symmetry_equiv_pos_as_xyz
  'x, y, z'

loop_
  _atom_site_type_symbol
  _atom_site_label
  _atom_site_symmetry_multiplicity
  _atom_site_fract_x
  _atom_site_fract_y
  _atom_site_fract_z
  _atom_site_occupancy
  _atom_site_charge
V   V1        1.0  0.22402  0.54522  0.91515  1.0000 1.9817315821
V   V2        1.0  0.54522  0.22402  0.58485  1.0000 1.9817315821
V   V3        1.0  0.77598  0.45478  0.08485  1.0000 1.9817315821
V   V4        1.0  0.45478  0.77598  0.41515  1.0000 1.9817315821
V   V5        1.0  0.20551  0.70209  0.71681  1.0000 1.9862604423
V   V6        1.0  0.70209  0.20551  0.78319  1.0000 1.9817315821
V   V7        1.0  0.79449  0.29791  0.28319  1.0000 1.9817315821
V   V8        1.0  0.29791  0.79449  0.21681  1.0000 1.9862604423
P   P1        1.0  0.83520  0.40784  0.92279  1.0000 1.4504455163
P   P2        1.0  0.40784  0.83520  0.57721  1.0000 1.4504455163
P   P3        1.0  0.16480  0.59216  0.07721  1.0000 1.4504455163
P   P4        1.0  0.59216  0.16480  0.42279  1.0000 1.4504455163
P   P5        1.0  0.50491  0.83313  0.83438  1.0000 1.4504455163
P   P6        1.0  0.83313  0.50491  0.66562  1.0000 1.4504455163
P   P7        1.0  0.49509  0.16687  0.16562  1.0000 1.4504455163
P   P8        1.0  0.16687  0.49509  0.33438  1.0000 1.4504455163
H   H1        1.0  0.88940  0.64180  0.84320  1.0000 0.1692708106
H   H2        1.0  0.64180  0.88940  0.65680  1.0000 0.1692708106
H   H3        1.0  0.11060  0.35820  0.15680  1.0000 0.1692708106
H   H4        1.0  0.35820  0.11060  0.34320  1.0000 0.1692708106
H   H5        1.0  0.90370  0.67790  0.92550  1.0000 0.1631646438
H   H6        1.0  0.67790  0.90370  0.57450  1.0000 0.1631646438
H   H7        1.0  0.09630  0.32210  0.07450  1.0000 0.1631646438
H   H8        1.0  0.32210  0.09630  0.42550  1.0000 0.1631646438
H   H9        1.0  0.74790  0.84890  0.90130  1.0000 0.1692708106
H   H10       1.0  0.84890  0.74790  0.59870  1.0000 0.1692708106
H   H11       1.0  0.25210  0.15110  0.09870  1.0000 0.1692708106
H   H12       1.0  0.15110  0.25210  0.40130  1.0000 0.1692708106
H   H13       1.0  0.75400  0.84800  0.81630  1.0000 0.1692708106
H   H14       1.0  0.84800  0.75400  0.68370  1.0000 0.1692708106
H   H15       1.0  0.24600  0.15200  0.18370  1.0000 0.1692708106
H   H16       1.0  0.15200  0.24600  0.31630  1.0000 0.1692708106
H   H17       1.0  0.61270  0.56590  0.82930  1.0000 0.1263520543
H   H18       1.0  0.56590  0.61270  0.67070  1.0000 0.1263520543
H   H19       1.0  0.38730  0.43410  0.17070  1.0000 0.1263520543
H   H20       1.0  0.43410  0.38730  0.32930  1.0000 0.1263520543
H   H21       1.0  0.61270  0.56850  0.91500  1.0000 0.1263520543
H   H22       1.0  0.56850  0.61270  0.58500  1.0000 0.1263520543
H   H23       1.0  0.38730  0.43150  0.08500  1.0000 0.1263520543
H   H24       1.0  0.43150  0.38730  0.41500  1.0000 0.1263520543
C   C1        1.0  0.83770  0.60570  0.88880  1.0000 -0.4755559878
C   C2        1.0  0.60570  0.83770  0.61120  1.0000 -0.4755559878
C   C3        1.0  0.16230  0.39430  0.11120  1.0000 -0.4748331324
C   C4        1.0  0.39430  0.16230  0.38880  1.0000 -0.4755559878
C   C5        1.0  0.68890  0.79670  0.85726  1.0000 -0.462227823
C   C6        1.0  0.79670  0.68890  0.64274  1.0000 -0.462227823
C   C7        1.0  0.31110  0.20330  0.14274  1.0000 -0.462227823
C   C8        1.0  0.20330  0.31110  0.35726  1.0000 -0.462227823
C   C9        1.0  0.67280  0.62060  0.87251  1.0000 -0.0491025129
C   C10       1.0  0.62060  0.67280  0.62749  1.0000 -0.0491025129
C   C11       1.0  0.32720  0.37940  0.12749  1.0000 -0.0491025129
C   C12       1.0  0.37940  0.32720  0.37251  1.0000 -0.0491025129
O   O1        1.0  0.00071  0.40369  0.92315  1.0000 -0.7689919885
O   O2        1.0  0.40369  0.00071  0.57685  1.0000 -0.7689919885
O   O3        1.0  0.99929  0.59631  0.07685  1.0000 -0.7689919885
O   O4        1.0  0.59631  0.99929  0.42315  1.0000 -0.7689919885
O   O5        1.0  0.78108  0.36252  0.99942  1.0000 -0.7689919885
O   O6        1.0  0.36252  0.78108  0.50058  1.0000 -0.7689919885
O   O7        1.0  0.21892  0.63748  0.00058  1.0000 -0.7689919885
O   O8        1.0  0.63748  0.21892  0.49942  1.0000 -0.7689919885
O   O9        1.0  0.31405  0.42055  0.93866  1.0000 -0.61349256
O   O10       1.0  0.42055  0.31405  0.56134  1.0000 -0.6153998093
O   O11       1.0  0.68595  0.57945  0.06134  1.0000 -0.61349256
O   O12       1.0  0.57945  0.68595  0.43866  1.0000 -0.61349256
O   O13       1.0  0.39924  0.74936  0.89550  1.0000 -0.7580136077
O   O14       1.0  0.74936  0.39924  0.60450  1.0000 -0.7580136077
O   O15       1.0  0.60076  0.25064  0.10450  1.0000 -0.7580136077
O   O16       1.0  0.25064  0.60076  0.39550  1.0000 -0.7580136077
O   O17       1.0  0.15298  0.55862  0.80865  1.0000 -1.0298766212
O   O18       1.0  0.55862  0.15298  0.69135  1.0000 -1.0239759998
O   O19       1.0  0.84702  0.44138  0.19135  1.0000 -1.0298766212
O   O20       1.0  0.44138  0.84702  0.30865  1.0000 -1.0239759998
O   O21       1.0  0.54395  0.01245  0.82973  1.0000 -0.7330845611
O   O22       1.0  0.01245  0.54395  0.67027  1.0000 -0.7330845611
O   O23       1.0  0.45605  0.98755  0.17027  1.0000 -0.7330845611
O   O24       1.0  0.98755  0.45605  0.32973  1.0000 -0.7330845611
O   O25       1.0  0.15789  0.85391  0.71605  1.0000 -0.629654573
O   O26       1.0  0.85391  0.15789  0.78395  1.0000 -0.629654573
O   O27       1.0  0.84211  0.14609  0.28395  1.0000 -0.629654573
O   O28       1.0  0.14609  0.84211  0.21605  1.0000 -0.629654573
O   O29       1.0  0.71062  0.28818  0.87448  1.0000 -0.7330845611
O   O30       1.0  0.28818  0.71062  0.62552  1.0000 -0.7368550615
O   O31       1.0  0.28938  0.71182  0.12552  1.0000 -0.7368550615
O   O32       1.0  0.71182  0.28938  0.37448  1.0000 -0.7330845611
O   O33       1.0  0.42890  0.77090  0.76054  1.0000 -0.7689919885
O   O34       1.0  0.77090  0.42890  0.73946  1.0000 -0.7689919885
O   O35       1.0  0.57110  0.22910  0.23946  1.0000 -0.7689919885
O   O36       1.0  0.22910  0.57110  0.26054  1.0000 -0.7689919885
