# DDEC6 charges by PACMAN v1.1 (https://github.com/mtap-research/PACMAN-charge/)
data_2006[Co][nan]3[FSR]3
_chemical_formula_sum              "Co4 H12 C24 S4 N4 O8"
_cell_length_a       8.75769
_cell_length_b       8.75769
_cell_length_c       11.958
_cell_angle_alpha    90
_cell_angle_beta     90
_cell_angle_gamma    101.79

_symmetry_space_group_name_H-M    "P 1"
_symmetry_Int_Tables_number       1

loop_
  _symmetry_equiv_pos_as_xyz
  'x, y, z'

loop_
  _atom_site_type_symbol
  _atom_site_label
  _atom_site_symmetry_multiplicity
  _atom_site_fract_x
  _atom_site_fract_y
  _atom_site_fract_z
  _atom_site_occupancy
  _atom_site_charge
Co  Co1       1.0  0.88327  0.88327  0.00000  1.0000 0.7064432634
Co  Co2       1.0  0.11673  0.11673  0.50000  1.0000 0.704970075
Co  Co3       1.0  0.10513  0.89487  0.75000  1.0000 0.6523222459
Co  Co4       1.0  0.89487  0.10513  0.25000  1.0000 0.6523222459
H   H1        1.0  0.86000  0.51200  0.70400  1.0000 0.1393585188
H   H2        1.0  0.14000  0.48800  0.20400  1.0000 0.1393585188
H   H3        1.0  0.48800  0.14000  0.79600  1.0000 0.1393585188
H   H4        1.0  0.51200  0.86000  0.29600  1.0000 0.1393585188
H   H5        1.0  0.88100  0.28100  0.81000  1.0000 0.1198645142
H   H6        1.0  0.11900  0.71900  0.31000  1.0000 0.1198645142
H   H7        1.0  0.71900  0.11900  0.69000  1.0000 0.1198645142
H   H8        1.0  0.28100  0.88100  0.19000  1.0000 0.1198645142
H   H9        1.0  0.85960  0.51840  0.09500  1.0000 0.1198645142
H   H10       1.0  0.14040  0.48160  0.59500  1.0000 0.1198645142
H   H11       1.0  0.48160  0.14040  0.40500  1.0000 0.1198645142
H   H12       1.0  0.51840  0.85960  0.90500  1.0000 0.1198645142
C   C1        1.0  0.85363  0.64287  0.84724  1.0000 0.2471714301
C   C2        1.0  0.14637  0.35713  0.34724  1.0000 0.2471714301
C   C3        1.0  0.35713  0.14637  0.65276  1.0000 0.2471714301
C   C4        1.0  0.64287  0.85363  0.15276  1.0000 0.2471714301
C   C5        1.0  0.85986  0.50794  0.78690  1.0000 -0.1720330509
C   C6        1.0  0.14014  0.49206  0.28690  1.0000 -0.1720330509
C   C7        1.0  0.49206  0.14014  0.71310  1.0000 -0.1720330509
C   C8        1.0  0.50794  0.85986  0.21310  1.0000 -0.1720330509
C   C9        1.0  0.87219  0.37561  0.84590  1.0000 -0.0430753528
C   C10       1.0  0.12781  0.62439  0.34590  1.0000 -0.0430753528
C   C11       1.0  0.62439  0.12781  0.65410  1.0000 -0.0430753528
C   C12       1.0  0.37561  0.87219  0.15410  1.0000 -0.0430753528
C   C13       1.0  0.86914  0.37652  0.96295  1.0000 -0.077367531
C   C14       1.0  0.13086  0.62348  0.46295  1.0000 -0.077367531
C   C15       1.0  0.62348  0.13086  0.53705  1.0000 -0.077367531
C   C16       1.0  0.37652  0.86914  0.03705  1.0000 -0.077367531
C   C17       1.0  0.86237  0.51481  0.01630  1.0000 0.0862140638
C   C18       1.0  0.13763  0.48519  0.51630  1.0000 0.0862140638
C   C19       1.0  0.48519  0.13763  0.48370  1.0000 0.0862140638
C   C20       1.0  0.51481  0.86237  0.98370  1.0000 0.0862140638
C   C21       1.0  0.87472  0.23224  0.02834  1.0000 0.5757808817
C   C22       1.0  0.12528  0.76776  0.52834  1.0000 0.5757808817
C   C23       1.0  0.76776  0.12528  0.47166  1.0000 0.5757808817
C   C24       1.0  0.23224  0.87472  0.97166  1.0000 0.5757808817
S   S1        1.0  0.84357  0.82601  0.78918  1.0000 -0.360880173
S   S2        1.0  0.15643  0.17399  0.28918  1.0000 -0.360880173
S   S3        1.0  0.17399  0.15643  0.71082  1.0000 -0.360880173
S   S4        1.0  0.82601  0.84357  0.21082  1.0000 -0.3660884666
N   N1        1.0  0.85848  0.64588  0.96003  1.0000 -0.2855799364
N   N2        1.0  0.14152  0.35412  0.46003  1.0000 -0.2855799364
N   N3        1.0  0.35412  0.14152  0.53997  1.0000 -0.2855799364
N   N4        1.0  0.64588  0.85848  0.03997  1.0000 -0.2855799364
O   O1        1.0  0.90765  0.11931  0.97776  1.0000 -0.515766071
O   O2        1.0  0.09235  0.88069  0.47776  1.0000 -0.515766071
O   O3        1.0  0.88069  0.09235  0.52224  1.0000 -0.515766071
O   O4        1.0  0.11931  0.90765  0.02224  1.0000 -0.515766071
O   O5        1.0  0.15721  0.76163  0.63176  1.0000 -0.5112641918
O   O6        1.0  0.84279  0.23837  0.13176  1.0000 -0.5112641918
O   O7        1.0  0.23837  0.84279  0.86824  1.0000 -0.5112641918
O   O8        1.0  0.76163  0.15721  0.36824  1.0000 -0.5112641918
