# DDEC6 charges by PACMAN v1.1 (https://github.com/mtap-research/PACMAN-charge/)
data_2006[Dy][sqc]3[FSR]1
_chemical_formula_sum              "Dy4 H44 C30 O28"
_cell_length_a       8.4419
_cell_length_b       8.4419
_cell_length_c       19.617
_cell_angle_alpha    87.8165
_cell_angle_beta     92.1835
_cell_angle_gamma    55.935

_symmetry_space_group_name_H-M    "P 1"
_symmetry_Int_Tables_number       1

loop_
  _symmetry_equiv_pos_as_xyz
  'x, y, z'

loop_
  _atom_site_type_symbol
  _atom_site_label
  _atom_site_symmetry_multiplicity
  _atom_site_fract_x
  _atom_site_fract_y
  _atom_site_fract_z
  _atom_site_occupancy
  _atom_site_charge
Dy  Dy1       1.0  0.79437  0.28013  0.51244  1.0000 2.0315299517
Dy  Dy2       1.0  0.28013  0.79437  0.98756  1.0000 2.0315299517
Dy  Dy3       1.0  0.20563  0.71987  0.48756  1.0000 2.0315299517
Dy  Dy4       1.0  0.71987  0.20563  0.01244  1.0000 2.0315299517
H   H1        1.0  0.24680  0.22060  0.67810  1.0000 0.1379752702
H   H2        1.0  0.22060  0.24680  0.82190  1.0000 0.1379752702
H   H3        1.0  0.75320  0.77940  0.32190  1.0000 0.1379752702
H   H4        1.0  0.77940  0.75320  0.17810  1.0000 0.1379752702
H   H5        1.0  0.05690  0.39310  0.70400  1.0000 0.1379752702
H   H6        1.0  0.39310  0.05690  0.79600  1.0000 0.1379752702
H   H7        1.0  0.94310  0.60690  0.29600  1.0000 0.1379752702
H   H8        1.0  0.60690  0.94310  0.20400  1.0000 0.1379752702
H   H9        1.0  0.18430  0.00890  0.73500  1.0000 0.1080318689
H   H10       1.0  0.00890  0.18430  0.76500  1.0000 0.1080318689
H   H11       1.0  0.81570  0.99110  0.26500  1.0000 0.1080318689
H   H12       1.0  0.99110  0.81570  0.23500  1.0000 0.1080318689
H   H13       1.0  0.67600  0.79400  0.53790  1.0000 0.1503074169
H   H14       1.0  0.79400  0.67600  0.96210  1.0000 0.1503074169
H   H15       1.0  0.32400  0.20600  0.46210  1.0000 0.1503074169
H   H16       1.0  0.20600  0.32400  0.03790  1.0000 0.1503074169
H   H17       1.0  0.84990  0.70850  0.59240  1.0000 0.1379752702
H   H18       1.0  0.70850  0.84990  0.90760  1.0000 0.1379752702
H   H19       1.0  0.15010  0.29150  0.40760  1.0000 0.1379752702
H   H20       1.0  0.29150  0.15010  0.09240  1.0000 0.1379752702
H   H21       1.0  0.63990  0.90530  0.67350  1.0000 0.1003695186
H   H22       1.0  0.90530  0.63990  0.82650  1.0000 0.1003695186
H   H23       1.0  0.36010  0.09470  0.32650  1.0000 0.1003695186
H   H24       1.0  0.09470  0.36010  0.17350  1.0000 0.1003695186
H   H25       1.0  0.46620  0.98720  0.61890  1.0000 0.1003695186
H   H26       1.0  0.98720  0.46620  0.88110  1.0000 0.1003695186
H   H27       1.0  0.53380  0.01280  0.38110  1.0000 0.1003695186
H   H28       1.0  0.01280  0.53380  0.11890  1.0000 0.1003695186
H   H29       1.0  0.50750  0.73550  0.69720  1.0000 0.1379752702
H   H30       1.0  0.73550  0.50750  0.80280  1.0000 0.1379752702
H   H31       1.0  0.49250  0.26450  0.30280  1.0000 0.1379752702
H   H32       1.0  0.26450  0.49250  0.19720  1.0000 0.1379752702
H   H33       1.0  0.69860  0.59120  0.66340  1.0000 0.1379752702
H   H34       1.0  0.59120  0.69860  0.83660  1.0000 0.1379752702
H   H35       1.0  0.30140  0.40880  0.33660  1.0000 0.1379752702
H   H36       1.0  0.40880  0.30140  0.16340  1.0000 0.1379752702
H   H37       1.0  0.65600  0.61720  0.43290  1.0000 0.348995842
H   H38       1.0  0.61720  0.65600  0.06710  1.0000 0.348995842
H   H39       1.0  0.34400  0.38280  0.56710  1.0000 0.348995842
H   H40       1.0  0.38280  0.34400  0.93290  1.0000 0.348995842
H   H41       1.0  0.83870  0.56290  0.44340  1.0000 0.348995842
H   H42       1.0  0.56290  0.83870  0.05660  1.0000 0.348995842
H   H43       1.0  0.16130  0.43710  0.55660  1.0000 0.348995842
H   H44       1.0  0.43710  0.16130  0.94340  1.0000 0.348995842
C   C1        1.0  0.00820  0.26660  0.62750  1.0000 0.6217693574
C   C2        1.0  0.26660  0.00820  0.87250  1.0000 0.6217693574
C   C3        1.0  0.99180  0.73340  0.37250  1.0000 0.6217693574
C   C4        1.0  0.73340  0.99180  0.12750  1.0000 0.6217693574
C   C5        1.0  0.11870  0.26350  0.68990  1.0000 -0.3486047425
C   C6        1.0  0.26350  0.11870  0.81010  1.0000 -0.3486047425
C   C7        1.0  0.88130  0.73650  0.31010  1.0000 -0.3486047425
C   C8        1.0  0.73650  0.88130  0.18990  1.0000 -0.3486047425
C   C9        1.0  0.13460  0.13460  0.75000  1.0000 -0.0817496517
C   C10       1.0  0.86540  0.86540  0.25000  1.0000 -0.0817496517
C   C11       1.0  0.75290  0.97810  0.55560  1.0000 0.68317895
C   C12       1.0  0.97810  0.75290  0.94440  1.0000 0.68317895
C   C13       1.0  0.24710  0.02190  0.44440  1.0000 0.68317895
C   C14       1.0  0.02190  0.24710  0.05560  1.0000 0.68317895
C   C15       1.0  0.72590  0.82330  0.57730  1.0000 -0.3486047425
C   C16       1.0  0.82330  0.72590  0.92270  1.0000 -0.3486047425
C   C17       1.0  0.27410  0.17670  0.42270  1.0000 -0.3486047425
C   C18       1.0  0.17670  0.27410  0.07730  1.0000 -0.3486047425
C   C19       1.0  0.59160  0.87440  0.63410  1.0000 -0.0871223845
C   C20       1.0  0.87440  0.59160  0.86590  1.0000 -0.0871223845
C   C21       1.0  0.40840  0.12560  0.36590  1.0000 -0.0871223845
C   C22       1.0  0.12560  0.40840  0.13410  1.0000 -0.0871223845
C   C23       1.0  0.57220  0.70920  0.65510  1.0000 -0.3346076422
C   C24       1.0  0.70920  0.57220  0.84490  1.0000 -0.3346076422
C   C25       1.0  0.42780  0.29080  0.34490  1.0000 -0.3346076422
C   C26       1.0  0.29080  0.42780  0.15510  1.0000 -0.3346076422
C   C27       1.0  0.46050  0.68610  0.59990  1.0000 0.6718122996
C   C28       1.0  0.68610  0.46050  0.90010  1.0000 0.6718122996
C   C29       1.0  0.53950  0.31390  0.40010  1.0000 0.6718122996
C   C30       1.0  0.31390  0.53950  0.09990  1.0000 0.6718122996
O   O1        1.0  0.90920  0.19820  0.63039  1.0000 -0.5996570551
O   O2        1.0  0.19820  0.90920  0.86961  1.0000 -0.5996570551
O   O3        1.0  0.09080  0.80180  0.36961  1.0000 -0.5996570551
O   O4        1.0  0.80180  0.09080  0.13039  1.0000 -0.5996570551
O   O5        1.0  0.01097  0.34423  0.57098  1.0000 -0.6453663819
O   O6        1.0  0.34423  0.01097  0.92902  1.0000 -0.6453663819
O   O7        1.0  0.98903  0.65577  0.42902  1.0000 -0.6442026608
O   O8        1.0  0.65577  0.98903  0.07098  1.0000 -0.6453663819
O   O9        1.0  0.90960  0.93480  0.53302  1.0000 -0.7310258263
O   O10       1.0  0.93480  0.90960  0.96698  1.0000 -0.7310258263
O   O11       1.0  0.09040  0.06520  0.46698  1.0000 -0.7310258263
O   O12       1.0  0.06520  0.09040  0.03302  1.0000 -0.7310258263
O   O13       1.0  0.61940  0.15440  0.55808  1.0000 -0.6326422357
O   O14       1.0  0.15440  0.61940  0.94192  1.0000 -0.6326422357
O   O15       1.0  0.38060  0.84560  0.44192  1.0000 -0.6326422357
O   O16       1.0  0.84560  0.38060  0.05808  1.0000 -0.6326422357
O   O17       1.0  0.28490  0.80810  0.59091  1.0000 -0.5926775896
O   O18       1.0  0.80810  0.28490  0.90909  1.0000 -0.5926775896
O   O19       1.0  0.71510  0.19190  0.40909  1.0000 -0.5926775896
O   O20       1.0  0.19190  0.71510  0.09091  1.0000 -0.5926775896
O   O21       1.0  0.54130  0.54850  0.56076  1.0000 -0.7471722104
O   O22       1.0  0.54850  0.54130  0.93924  1.0000 -0.7471722104
O   O23       1.0  0.45870  0.45150  0.43924  1.0000 -0.7471722104
O   O24       1.0  0.45150  0.45870  0.06076  1.0000 -0.7471722104
O   O25       1.0  0.76230  0.52610  0.43980  1.0000 -0.7471722104
O   O26       1.0  0.52610  0.76230  0.06020  1.0000 -0.7471722104
O   O27       1.0  0.23770  0.47390  0.56020  1.0000 -0.7471722104
O   O28       1.0  0.47390  0.23770  0.93980  1.0000 -0.7471722104
