# DDEC6 charges by PACMAN v1.1 (https://github.com/mtap-research/PACMAN-charge/)
data_2006[Cd][nan]3[FSR]2
_chemical_formula_sum              "Cd2 H72 C64 I4 N24 O8"
_cell_length_a       17.2543
_cell_length_b       17.2543
_cell_length_c       16.8512
_cell_angle_alpha    78.7813
_cell_angle_beta     101.219
_cell_angle_gamma    146.843

_symmetry_space_group_name_H-M    "P 1"
_symmetry_Int_Tables_number       1

loop_
  _symmetry_equiv_pos_as_xyz
  'x, y, z'

loop_
  _atom_site_type_symbol
  _atom_site_label
  _atom_site_symmetry_multiplicity
  _atom_site_fract_x
  _atom_site_fract_y
  _atom_site_fract_z
  _atom_site_occupancy
  _atom_site_charge
Cd  Cd1       1.0  0.00000  0.00000  0.50000  1.0000 0.6273270919
Cd  Cd2       1.0  0.00000  0.00000  0.00000  1.0000 0.6273270919
H   H1        1.0  0.94760  0.71380  0.87700  1.0000 0.2625569738
H   H2        1.0  0.71380  0.94760  0.62300  1.0000 0.2625569738
H   H3        1.0  0.05240  0.28620  0.12300  1.0000 0.2625569738
H   H4        1.0  0.28620  0.05240  0.37700  1.0000 0.2625569738
H   H5        1.0  0.61320  0.34000  0.90820  1.0000 0.2792761102
H   H6        1.0  0.34000  0.61320  0.59180  1.0000 0.2792761102
H   H7        1.0  0.38680  0.66000  0.09180  1.0000 0.2792761102
H   H8        1.0  0.66000  0.38680  0.40820  1.0000 0.2792761102
H   H9        1.0  0.94780  0.57400  0.04160  1.0000 0.1083167619
H   H10       1.0  0.57400  0.94780  0.45840  1.0000 0.1083167619
H   H11       1.0  0.05220  0.42600  0.95840  1.0000 0.1083167619
H   H12       1.0  0.42600  0.05220  0.54160  1.0000 0.1083167619
H   H13       1.0  0.90200  0.61320  0.98060  1.0000 0.1083167619
H   H14       1.0  0.61320  0.90200  0.51940  1.0000 0.1083167619
H   H15       1.0  0.09800  0.38680  0.01940  1.0000 0.1083167619
H   H16       1.0  0.38680  0.09800  0.48060  1.0000 0.1083167619
H   H17       1.0  0.90140  0.47640  0.91410  1.0000 0.0987158496
H   H18       1.0  0.47640  0.90140  0.58590  1.0000 0.0987158496
H   H19       1.0  0.09860  0.52360  0.08590  1.0000 0.0987158496
H   H20       1.0  0.52360  0.09860  0.41410  1.0000 0.0987158496
H   H21       1.0  0.79470  0.45890  0.89260  1.0000 0.0987158496
H   H22       1.0  0.45890  0.79470  0.60740  1.0000 0.0987158496
H   H23       1.0  0.20530  0.54110  0.10740  1.0000 0.0987158496
H   H24       1.0  0.54110  0.20530  0.39260  1.0000 0.0987158496
H   H25       1.0  0.28510  0.85510  0.99770  1.0000 0.1274645998
H   H26       1.0  0.85510  0.28510  0.50230  1.0000 0.1274645998
H   H27       1.0  0.71490  0.14490  0.00230  1.0000 0.1274645998
H   H28       1.0  0.14490  0.71490  0.49770  1.0000 0.1274645998
H   H29       1.0  0.16910  0.71530  0.05290  1.0000 0.1083167619
H   H30       1.0  0.71530  0.16910  0.44710  1.0000 0.1083167619
H   H31       1.0  0.83090  0.28470  0.94710  1.0000 0.1083167619
H   H32       1.0  0.28470  0.83090  0.55290  1.0000 0.1083167619
H   H33       1.0  0.73880  0.24780  0.08920  1.0000 0.1238391324
H   H34       1.0  0.24780  0.73880  0.41080  1.0000 0.1238391324
H   H35       1.0  0.26120  0.75220  0.91080  1.0000 0.1238391324
H   H36       1.0  0.75220  0.26120  0.58920  1.0000 0.1238391324
H   H37       1.0  0.89260  0.40080  0.06430  1.0000 0.090715936
H   H38       1.0  0.40080  0.89260  0.43570  1.0000 0.090715936
H   H39       1.0  0.10740  0.59920  0.93570  1.0000 0.090715936
H   H40       1.0  0.59920  0.10740  0.56430  1.0000 0.090715936
H   H41       1.0  0.22450  0.07050  0.63500  1.0000 0.0987158496
H   H42       1.0  0.07050  0.22450  0.86500  1.0000 0.0987158496
H   H43       1.0  0.77550  0.92950  0.36500  1.0000 0.0987158496
H   H44       1.0  0.92950  0.77550  0.13500  1.0000 0.0987158496
H   H45       1.0  0.23180  0.98440  0.75030  1.0000 0.15699004
H   H46       1.0  0.98440  0.23180  0.74970  1.0000 0.15699004
H   H47       1.0  0.76820  0.01560  0.24970  1.0000 0.15699004
H   H48       1.0  0.01560  0.76820  0.25030  1.0000 0.15699004
H   H49       1.0  0.84910  0.73330  0.78520  1.0000 0.1404564815
H   H50       1.0  0.73330  0.84910  0.71480  1.0000 0.1404564815
H   H51       1.0  0.15090  0.26670  0.21480  1.0000 0.1404564815
H   H52       1.0  0.26670  0.15090  0.28520  1.0000 0.1404564815
H   H53       1.0  0.86140  0.83660  0.66970  1.0000 0.0987158496
H   H54       1.0  0.83660  0.86140  0.83030  1.0000 0.0987158496
H   H55       1.0  0.13860  0.16340  0.33030  1.0000 0.0987158496
H   H56       1.0  0.16340  0.13860  0.16970  1.0000 0.0987158496
H   H57       1.0  0.12000  0.92820  0.02130  1.0000 0.090715936
H   H58       1.0  0.92820  0.12000  0.47870  1.0000 0.090715936
H   H59       1.0  0.88000  0.07180  0.97870  1.0000 0.090715936
H   H60       1.0  0.07180  0.88000  0.52130  1.0000 0.090715936
H   H61       1.0  0.31930  0.02090  0.01460  1.0000 0.1404564815
H   H62       1.0  0.02090  0.31930  0.48540  1.0000 0.1404564815
H   H63       1.0  0.68070  0.97910  0.98540  1.0000 0.1404564815
H   H64       1.0  0.97910  0.68070  0.51460  1.0000 0.1404564815
H   H65       1.0  0.48950  0.35750  0.88600  1.0000 0.1404564815
H   H66       1.0  0.35750  0.48950  0.61400  1.0000 0.1404564815
H   H67       1.0  0.51050  0.64250  0.11400  1.0000 0.1404564815
H   H68       1.0  0.64250  0.51050  0.38600  1.0000 0.1404564815
H   H69       1.0  0.28750  0.25530  0.89790  1.0000 0.1083167619
H   H70       1.0  0.25530  0.28750  0.60210  1.0000 0.1083167619
H   H71       1.0  0.71250  0.74470  0.10210  1.0000 0.1083167619
H   H72       1.0  0.74470  0.71250  0.39790  1.0000 0.1083167619
C   C1        1.0  0.94295  0.59525  0.98490  1.0000 -0.1372791902
C   C2        1.0  0.59525  0.94295  0.51510  1.0000 -0.1372791902
C   C3        1.0  0.05705  0.40475  0.01510  1.0000 -0.1372791902
C   C4        1.0  0.40475  0.05705  0.48490  1.0000 -0.1372791902
C   C5        1.0  0.84446  0.46474  0.93700  1.0000 -0.1372791902
C   C6        1.0  0.46474  0.84446  0.56300  1.0000 -0.1372791902
C   C7        1.0  0.15554  0.53526  0.06300  1.0000 -0.1372791902
C   C8        1.0  0.53526  0.15554  0.43700  1.0000 -0.1372791902
C   C9        1.0  0.19268  0.75312  0.99710  1.0000 -0.1093195659
C   C10       1.0  0.75312  0.19268  0.50290  1.0000 -0.1093195659
C   C11       1.0  0.80732  0.24688  0.00290  1.0000 -0.1093195659
C   C12       1.0  0.24688  0.80732  0.49710  1.0000 -0.1093195659
C   C13       1.0  0.79851  0.31049  0.04360  1.0000 -0.1258161963
C   C14       1.0  0.31049  0.79851  0.45640  1.0000 -0.1258161963
C   C15       1.0  0.20149  0.68951  0.95640  1.0000 -0.1258161963
C   C16       1.0  0.68951  0.20149  0.54360  1.0000 -0.1258161963
C   C17       1.0  0.12472  0.80388  0.88770  1.0000 0.5412218048
C   C18       1.0  0.80388  0.12472  0.61230  1.0000 0.5412218048
C   C19       1.0  0.87528  0.19612  0.11230  1.0000 0.5412218048
C   C20       1.0  0.19612  0.87528  0.38770  1.0000 0.5412218048
C   C21       1.0  0.14410  0.99770  0.66490  1.0000 0.0726685542
C   C22       1.0  0.99770  0.14410  0.83510  1.0000 0.0726685542
C   C23       1.0  0.85590  0.00230  0.33510  1.0000 0.0726685542
C   C24       1.0  0.00230  0.85590  0.16490  1.0000 0.0726685542
C   C25       1.0  0.15030  0.94690  0.73480  1.0000 -0.238709435
C   C26       1.0  0.94690  0.15030  0.76520  1.0000 -0.238709435
C   C27       1.0  0.84970  0.05310  0.26520  1.0000 -0.238709435
C   C28       1.0  0.05310  0.84970  0.23480  1.0000 -0.238709435
C   C29       1.0  0.03702  0.84198  0.78120  1.0000 0.2625569738
C   C30       1.0  0.84198  0.03702  0.71880  1.0000 0.2625569738
C   C31       1.0  0.96298  0.15802  0.21880  1.0000 0.2625569738
C   C32       1.0  0.15802  0.96298  0.28120  1.0000 0.2625569738
C   C33       1.0  0.92930  0.80230  0.75540  1.0000 -0.2637373359
C   C34       1.0  0.80230  0.92930  0.74460  1.0000 -0.2637373359
C   C35       1.0  0.07070  0.19770  0.24460  1.0000 -0.2637373359
C   C36       1.0  0.19770  0.07070  0.25540  1.0000 -0.2637373359
C   C37       1.0  0.93690  0.86410  0.68380  1.0000 0.1083167619
C   C38       1.0  0.86410  0.93690  0.81620  1.0000 0.1083167619
C   C39       1.0  0.06310  0.13590  0.31620  1.0000 0.1083167619
C   C40       1.0  0.13590  0.06310  0.18380  1.0000 0.1083167619
C   C41       1.0  0.60388  0.23992  0.99470  1.0000 0.5500788464
C   C42       1.0  0.23992  0.60388  0.50530  1.0000 0.5500788464
C   C43       1.0  0.39612  0.76008  0.00530  1.0000 0.5500788464
C   C44       1.0  0.76008  0.39612  0.49470  1.0000 0.5500788464
C   C45       1.0  0.19596  0.01624  0.99410  1.0000 0.0726685542
C   C46       1.0  0.01624  0.19596  0.50590  1.0000 0.0726685542
C   C47       1.0  0.80404  0.98376  0.00590  1.0000 0.0726685542
C   C48       1.0  0.98376  0.80404  0.49410  1.0000 0.0726685542
C   C49       1.0  0.31579  0.07121  0.99060  1.0000 -0.2233333365
C   C50       1.0  0.07121  0.31579  0.50940  1.0000 -0.2233333365
C   C51       1.0  0.68421  0.92879  0.00940  1.0000 -0.2233333365
C   C52       1.0  0.92879  0.68421  0.49060  1.0000 -0.2233333365
C   C53       1.0  0.43017  0.20263  0.95080  1.0000 0.2792761102
C   C54       1.0  0.20263  0.43017  0.54920  1.0000 0.2792761102
C   C55       1.0  0.56983  0.79737  0.04920  1.0000 0.2792761102
C   C56       1.0  0.79737  0.56983  0.45080  1.0000 0.2792761102
C   C57       1.0  0.41627  0.27033  0.91470  1.0000 -0.238709435
C   C58       1.0  0.27033  0.41627  0.58530  1.0000 -0.238709435
C   C59       1.0  0.58373  0.72967  0.08530  1.0000 -0.238709435
C   C60       1.0  0.72967  0.58373  0.41470  1.0000 -0.238709435
C   C61       1.0  0.29400  0.20740  0.92180  1.0000 0.090715936
C   C62       1.0  0.20740  0.29400  0.57820  1.0000 0.090715936
C   C63       1.0  0.70600  0.79260  0.07820  1.0000 0.090715936
C   C64       1.0  0.79260  0.70600  0.42180  1.0000 0.090715936
I   I1        1.0  0.69415  0.78777  0.53031  1.0000 -0.5726115034
I   I2        1.0  0.78777  0.69415  0.96969  1.0000 -0.5726115034
I   I3        1.0  0.30585  0.21223  0.46969  1.0000 -0.5726115034
I   I4        1.0  0.21223  0.30585  0.03031  1.0000 -0.5726115034
N   N1        1.0  0.08743  0.72417  0.95680  1.0000 -0.173697658
N   N2        1.0  0.72417  0.08743  0.54320  1.0000 -0.173697658
N   N3        1.0  0.91257  0.27583  0.04320  1.0000 -0.173697658
N   N4        1.0  0.27583  0.91257  0.45680  1.0000 -0.173697658
N   N5        1.0  0.74054  0.33246  0.98780  1.0000 -0.1561876015
N   N6        1.0  0.33246  0.74054  0.51220  1.0000 -0.1561876015
N   N7        1.0  0.25946  0.66754  0.01220  1.0000 -0.1561876015
N   N8        1.0  0.66754  0.25946  0.48780  1.0000 -0.1561876015
N   N9        1.0  0.02460  0.77680  0.85250  1.0000 -0.4097908108
N   N10       1.0  0.77680  0.02460  0.64750  1.0000 -0.4097908108
N   N11       1.0  0.97540  0.22320  0.14750  1.0000 -0.4097908108
N   N12       1.0  0.22320  0.97540  0.35250  1.0000 -0.4097908108
N   N13       1.0  0.03656  0.95404  0.63620  1.0000 -0.233596623
N   N14       1.0  0.95404  0.03656  0.86380  1.0000 -0.233596623
N   N15       1.0  0.96344  0.04596  0.36380  1.0000 -0.233596623
N   N16       1.0  0.04596  0.96344  0.13620  1.0000 -0.233596623
N   N17       1.0  0.55849  0.27231  0.94500  1.0000 -0.4097908108
N   N18       1.0  0.27231  0.55849  0.55500  1.0000 -0.4097908108
N   N19       1.0  0.44151  0.72769  0.05500  1.0000 -0.4097908108
N   N20       1.0  0.72769  0.44151  0.44500  1.0000 -0.4045533464
N   N21       1.0  0.18272  0.08168  0.96090  1.0000 -0.233596623
N   N22       1.0  0.08168  0.18272  0.53910  1.0000 -0.233596623
N   N23       1.0  0.81728  0.91832  0.03910  1.0000 -0.233596623
N   N24       1.0  0.91832  0.81728  0.46090  1.0000 -0.233596623
O   O1        1.0  0.23847  0.89353  0.85920  1.0000 -0.5037526116
O   O2        1.0  0.89353  0.23847  0.64080  1.0000 -0.5037526116
O   O3        1.0  0.76153  0.10647  0.14080  1.0000 -0.5037526116
O   O4        1.0  0.10647  0.76153  0.35920  1.0000 -0.5037526116
O   O5        1.0  0.52783  0.13657  0.04220  1.0000 -0.5063271449
O   O6        1.0  0.13657  0.52783  0.45780  1.0000 -0.5063271449
O   O7        1.0  0.47217  0.86343  0.95780  1.0000 -0.5063271449
O   O8        1.0  0.86343  0.47217  0.54220  1.0000 -0.5063271449
