# DDEC6 charges by PACMAN v1.1 (https://github.com/mtap-research/PACMAN-charge/)
data_2006[Mn][fsc]3[FSR]2
_chemical_formula_sum              "Mn2 H28 C40 N4 O8"
_cell_length_a       10.224
_cell_length_b       11.723
_cell_length_c       12.227
_cell_angle_alpha    114.02
_cell_angle_beta     108.695
_cell_angle_gamma    84.622

_symmetry_space_group_name_H-M    "P 1"
_symmetry_Int_Tables_number       1

loop_
  _symmetry_equiv_pos_as_xyz
  'x, y, z'

loop_
  _atom_site_type_symbol
  _atom_site_label
  _atom_site_symmetry_multiplicity
  _atom_site_fract_x
  _atom_site_fract_y
  _atom_site_fract_z
  _atom_site_occupancy
  _atom_site_charge
Mn  Mn1       1.0  0.00000  0.50000  0.50000  1.0000 0.9110810132
Mn  Mn2       1.0  0.50000  0.50000  0.50000  1.0000 0.9150926442
H   H1        1.0  0.87520  0.81840  0.56270  1.0000 0.130887282
H   H2        1.0  0.12480  0.18160  0.43730  1.0000 0.130887282
H   H3        1.0  0.59430  0.83030  0.47100  1.0000 0.1019575815
H   H4        1.0  0.40570  0.16970  0.52900  1.0000 0.1019575815
H   H5        1.0  0.91080  0.00590  0.57010  1.0000 0.1213065158
H   H6        1.0  0.08920  0.99410  0.42990  1.0000 0.1213065158
H   H7        1.0  0.92930  0.18340  0.53460  1.0000 0.1097496115
H   H8        1.0  0.07070  0.81660  0.46540  1.0000 0.1097496115
H   H9        1.0  0.52980  0.16150  0.36130  1.0000 0.1213065158
H   H10       1.0  0.47020  0.83850  0.63870  1.0000 0.1213065158
H   H11       1.0  0.51350  0.97660  0.38370  1.0000 0.1097496115
H   H12       1.0  0.48650  0.02340  0.61630  1.0000 0.1097496115
H   H13       1.0  0.93410  0.41030  0.68910  1.0000 0.1019575815
H   H14       1.0  0.06590  0.58970  0.31090  1.0000 0.1019575815
H   H15       1.0  0.02230  0.40830  0.88800  1.0000 0.130887282
H   H16       1.0  0.97770  0.59170  0.11200  1.0000 0.130887282
H   H17       1.0  0.37830  0.55250  0.92100  1.0000 0.1213065158
H   H18       1.0  0.62170  0.44750  0.07900  1.0000 0.1213065158
H   H19       1.0  0.28420  0.53940  0.71770  1.0000 0.1097496115
H   H20       1.0  0.71580  0.46060  0.28230  1.0000 0.1097496115
H   H21       1.0  0.39820  0.64170  0.12980  1.0000 0.130887282
H   H22       1.0  0.60180  0.35830  0.87020  1.0000 0.130887282
H   H23       1.0  0.49310  0.64600  0.32700  1.0000 0.1019575815
H   H24       1.0  0.50690  0.35400  0.67300  1.0000 0.1019575815
H   H25       1.0  0.25660  0.36180  0.24200  1.0000 0.1097496115
H   H26       1.0  0.74340  0.63820  0.75800  1.0000 0.1097496115
H   H27       1.0  0.15640  0.35000  0.04360  1.0000 0.130887282
H   H28       1.0  0.84360  0.65000  0.95640  1.0000 0.130887282
C   C1        1.0  0.75070  0.67910  0.55550  1.0000 0.6121031613
C   C2        1.0  0.24930  0.32090  0.44450  1.0000 0.6121031613
C   C3        1.0  0.78330  0.79330  0.53990  1.0000 -0.2309177398
C   C4        1.0  0.21670  0.20670  0.46010  1.0000 -0.2309177398
C   C5        1.0  0.68520  0.85870  0.49490  1.0000 -0.1100973442
C   C6        1.0  0.31480  0.14130  0.50510  1.0000 -0.1100973442
C   C7        1.0  0.70700  0.97250  0.47920  1.0000 0.1097496115
C   C8        1.0  0.29300  0.02750  0.52080  1.0000 0.1097496115
C   C9        1.0  0.83290  0.03520  0.52610  1.0000 -0.146768707
C   C10       1.0  0.16710  0.96480  0.47390  1.0000 -0.146768707
C   C11       1.0  0.84260  0.14460  0.50690  1.0000 -0.1182055316
C   C12       1.0  0.15740  0.85540  0.49310  1.0000 -0.1182055316
C   C13       1.0  0.72990  0.19630  0.44920  1.0000 -0.0309429421
C   C14       1.0  0.27010  0.80370  0.55080  1.0000 -0.0309429421
C   C15       1.0  0.60870  0.13170  0.40340  1.0000 -0.0966362163
C   C16       1.0  0.39130  0.86830  0.59660  1.0000 -0.0966362163
C   C17       1.0  0.59890  0.01940  0.41810  1.0000 -0.146768707
C   C18       1.0  0.40110  0.98060  0.58190  1.0000 -0.146768707
C   C19       1.0  0.74600  0.31390  0.43090  1.0000 0.576784429
C   C20       1.0  0.25400  0.68610  0.56910  1.0000 0.576784429
C   C21       1.0  0.02500  0.43870  0.73610  1.0000 0.0898267337
C   C22       1.0  0.97500  0.56130  0.26390  1.0000 0.0898267337
C   C23       1.0  0.07690  0.43890  0.85710  1.0000 -0.2094228545
C   C24       1.0  0.92310  0.56110  0.14290  1.0000 -0.2094228545
C   C25       1.0  0.21000  0.48500  0.92990  1.0000 0.1019575815
C   C26       1.0  0.79000  0.51500  0.07010  1.0000 0.1019575815
C   C27       1.0  0.28740  0.52260  0.87590  1.0000 -0.2094228545
C   C28       1.0  0.71260  0.47740  0.12410  1.0000 -0.2094228545
C   C29       1.0  0.22920  0.51580  0.75320  1.0000 0.1019575815
C   C30       1.0  0.77080  0.48420  0.24680  1.0000 0.1019575815
C   C31       1.0  0.26830  0.49320  0.06120  1.0000 0.1019575815
C   C32       1.0  0.73170  0.50680  0.93880  1.0000 0.1019575815
C   C33       1.0  0.36830  0.58270  0.15030  1.0000 -0.2094228545
C   C34       1.0  0.63170  0.41730  0.84970  1.0000 -0.2094228545
C   C35       1.0  0.42410  0.58550  0.26930  1.0000 0.0744621129
C   C36       1.0  0.57590  0.41450  0.73070  1.0000 0.0744621129
C   C37       1.0  0.28580  0.41940  0.21940  1.0000 0.0898267337
C   C38       1.0  0.71420  0.58060  0.78060  1.0000 0.0898267337
C   C39       1.0  0.22570  0.41080  0.09950  1.0000 -0.1972965925
C   C40       1.0  0.77430  0.58920  0.90050  1.0000 -0.1972965925
N   N1        1.0  0.09980  0.47740  0.68500  1.0000 -0.2215263277
N   N2        1.0  0.90020  0.52260  0.31500  1.0000 -0.2215263277
N   N3        1.0  0.38440  0.50510  0.30690  1.0000 -0.2215263277
N   N4        1.0  0.61560  0.49490  0.69310  1.0000 -0.2215263277
O   O1        1.0  0.85120  0.61540  0.58550  1.0000 -0.573200944
O   O2        1.0  0.14880  0.38460  0.41450  1.0000 -0.573200944
O   O3        1.0  0.62820  0.65920  0.54300  1.0000 -0.5606320927
O   O4        1.0  0.37180  0.34080  0.45700  1.0000 -0.5606320927
O   O5        1.0  0.86730  0.33920  0.43840  1.0000 -0.5606320927
O   O6        1.0  0.13270  0.66080  0.56160  1.0000 -0.5606320927
O   O7        1.0  0.64200  0.37500  0.40800  1.0000 -0.5606320927
O   O8        1.0  0.35800  0.62500  0.59200  1.0000 -0.5606320927
