# DDEC6 charges by PACMAN v1.1 (https://github.com/mtap-research/PACMAN-charge/)
data_2006[Gd][nan]3[FSR]1
_chemical_formula_sum              "Gd2 H12 C12 O20"
_cell_length_a       6.026
_cell_length_b       7.45
_cell_length_c       13.287
_cell_angle_alpha    102.74
_cell_angle_beta     101.46
_cell_angle_gamma    90.72

_symmetry_space_group_name_H-M    "P 1"
_symmetry_Int_Tables_number       1

loop_
  _symmetry_equiv_pos_as_xyz
  'x, y, z'

loop_
  _atom_site_type_symbol
  _atom_site_label
  _atom_site_symmetry_multiplicity
  _atom_site_fract_x
  _atom_site_fract_y
  _atom_site_fract_z
  _atom_site_occupancy
  _atom_site_charge
Gd  Gd1       1.0  0.49991  0.49006  0.49998  1.0000 1.9428795888
Gd  Gd2       1.0  0.53567  0.12731  0.85999  1.0000 1.9450471713
H   H1        1.0  0.16380  0.20610  0.13680  1.0000 0.1193803824
H   H2        1.0  0.87320  0.27280  0.23650  1.0000 0.1193803824
H   H3        1.0  0.00360  0.62590  0.74440  1.0000 0.1396593963
H   H4        1.0  0.98560  0.58570  0.90910  1.0000 0.1396593963
H   H5        1.0  0.07280  0.90820  0.44980  1.0000 0.1396593963
H   H6        1.0  0.03810  0.06110  0.61530  1.0000 0.1459121122
H   H7        1.0  0.21260  0.38090  0.04830  1.0000 0.3468287005
H   H8        1.0  0.75220  0.53100  0.25810  1.0000 0.3554081931
H   H9        1.0  0.71600  0.34000  0.66700  1.0000 0.3408995583
H   H10       1.0  0.68000  0.53500  0.92700  1.0000 0.3872220828
H   H11       1.0  0.41000  0.83500  0.43900  1.0000 0.3994897022
H   H12       1.0  0.30000  0.83200  0.68300  1.0000 0.3408995583
C   C1        1.0  0.29200  0.38800  0.27660  1.0000 0.5571436598
C   C2        1.0  0.13750  0.33370  0.16870  1.0000 0.0188825545
C   C3        1.0  0.88960  0.34040  0.18270  1.0000 0.0188825545
C   C4        1.0  0.73160  0.24460  0.07890  1.0000 0.5419009044
C   C5        1.0  0.67490  0.69740  0.75060  1.0000 0.6248274162
C   C6        1.0  0.86320  0.56060  0.74680  1.0000 0.0006795006
C   C7        1.0  0.89990  0.48970  0.85120  1.0000 -0.0059639872
C   C8        1.0  0.02890  0.31180  0.84360  1.0000 0.6063353731
C   C9        1.0  0.01210  0.68230  0.50950  1.0000 0.6029206827
C   C10       1.0  0.14980  0.85400  0.50730  1.0000 0.0006795006
C   C11       1.0  0.17990  0.99870  0.61340  1.0000 0.0006795006
C   C12       1.0  0.36580  0.14040  0.61310  1.0000 0.6312095835
O   O1        1.0  0.75760  0.27610  0.42880  1.0000 -0.4044265137
O   O2        1.0  0.26480  0.96230  0.92480  1.0000 -0.3911136077
O   O3        1.0  0.44020  0.52260  0.30150  1.0000 -0.589015095
O   O4        1.0  0.26870  0.29110  0.33970  1.0000 -0.5399130568
O   O5        1.0  0.16760  0.44370  0.09840  1.0000 -0.4095654175
O   O6        1.0  0.84340  0.52590  0.21940  1.0000 -0.3911136077
O   O7        1.0  0.56300  0.32610  0.04020  1.0000 -0.5834675119
O   O8        1.0  0.77410  0.09000  0.03120  1.0000 -0.5324946925
O   O9        1.0  0.69990  0.83440  0.82530  1.0000 -0.5490681217
O   O10       1.0  0.50670  0.65850  0.67320  1.0000 -0.6287453458
O   O11       1.0  0.80350  0.41370  0.65390  1.0000 -0.4820207641
O   O12       1.0  0.68460  0.45360  0.87370  1.0000 -0.4995534704
O   O13       1.0  0.92220  0.17010  0.84970  1.0000 -0.5399130568
O   O14       1.0  0.23370  0.32290  0.83790  1.0000 -0.5995694981
O   O15       1.0  0.11060  0.53870  0.50740  1.0000 -0.4995534704
O   O16       1.0  0.80580  0.70120  0.51090  1.0000 -0.5995694981
O   O17       1.0  0.36790  0.79740  0.48840  1.0000 -0.5324946925
O   O18       1.0  0.23680  0.92730  0.70400  1.0000 -0.4820207641
O   O19       1.0  0.53860  0.16610  0.68770  1.0000 -0.6178695843
O   O20       1.0  0.33670  0.22780  0.53890  1.0000 -0.589015095
