# DDEC6 charges by PACMAN v1.1 (https://github.com/mtap-research/PACMAN-charge/)
data_2006[La][sqc]3[FSR]1
_chemical_formula_sum              "La2 H32 C18 O16"
_cell_length_a       8.7544
_cell_length_b       10.0037
_cell_length_c       11.7895
_cell_angle_alpha    105.305
_cell_angle_beta     110.152
_cell_angle_gamma    86.182

_symmetry_space_group_name_H-M    "P 1"
_symmetry_Int_Tables_number       1

loop_
  _symmetry_equiv_pos_as_xyz
  'x, y, z'

loop_
  _atom_site_type_symbol
  _atom_site_label
  _atom_site_symmetry_multiplicity
  _atom_site_fract_x
  _atom_site_fract_y
  _atom_site_fract_z
  _atom_site_occupancy
  _atom_site_charge
La  La1       1.0  0.25466  0.52247  0.51240  1.0000 1.8447936713
La  La2       1.0  0.74534  0.47753  0.48760  1.0000 1.8447936713
H   H1        1.0  0.76670  0.70040  0.86360  1.0000 0.1435273974
H   H2        1.0  0.23330  0.29960  0.13640  1.0000 0.1435273974
H   H3        1.0  0.79380  0.54060  0.83750  1.0000 0.1435273974
H   H4        1.0  0.20620  0.45940  0.16250  1.0000 0.1435273974
H   H5        1.0  0.62650  0.69070  0.99480  1.0000 0.0978197606
H   H6        1.0  0.37350  0.30930  0.00520  1.0000 0.0978197606
H   H7        1.0  0.62710  0.52840  0.95870  1.0000 0.0978197606
H   H8        1.0  0.37290  0.47160  0.04130  1.0000 0.0978197606
H   H9        1.0  0.91300  0.53960  0.05970  1.0000 0.094511827
H   H10       1.0  0.08700  0.46040  0.94030  1.0000 0.094511827
H   H11       1.0  0.90460  0.70150  0.10220  1.0000 0.0978197606
H   H12       1.0  0.09540  0.29850  0.89780  1.0000 0.0978197606
H   H13       1.0  0.75650  0.68620  0.22520  1.0000 0.134461829
H   H14       1.0  0.24350  0.31380  0.77480  1.0000 0.134461829
H   H15       1.0  0.73680  0.52540  0.17220  1.0000 0.147141689
H   H16       1.0  0.26320  0.47460  0.82780  1.0000 0.147141689
H   H17       1.0  0.27560  0.03300  0.60050  1.0000 0.122989276
H   H18       1.0  0.72440  0.96700  0.39950  1.0000 0.122989276
H   H19       1.0  0.24020  0.01990  0.71880  1.0000 0.134461829
H   H20       1.0  0.75980  0.98010  0.28120  1.0000 0.134461829
H   H21       1.0  0.02180  0.12180  0.59830  1.0000 0.1054055332
H   H22       1.0  0.97820  0.87820  0.40170  1.0000 0.1054055332
H   H23       1.0  0.96460  0.97850  0.60230  1.0000 0.094511827
H   H24       1.0  0.03540  0.02150  0.39770  1.0000 0.094511827
H   H25       1.0  0.18600  0.22600  0.34700  1.0000 0.2771409988
H   H26       1.0  0.81400  0.77400  0.65300  1.0000 0.2771409988
H   H27       1.0  0.35000  0.23200  0.52700  1.0000 0.3462371766
H   H28       1.0  0.65000  0.76800  0.47300  1.0000 0.3462371766
H   H29       1.0  0.46900  0.29700  0.63900  1.0000 0.3598038047
H   H30       1.0  0.53100  0.70300  0.36100  1.0000 0.3598038047
H   H31       1.0  0.04900  0.26900  0.35800  1.0000 0.3215410054
H   H32       1.0  0.95100  0.73100  0.64200  1.0000 0.3215410054
C   C1        1.0  0.56590  0.58810  0.73900  1.0000 0.6572064101
C   C2        1.0  0.43410  0.41190  0.26100  1.0000 0.6572064101
C   C3        1.0  0.71730  0.61190  0.85250  1.0000 -0.3420617641
C   C4        1.0  0.28270  0.38810  0.14750  1.0000 -0.3420617641
C   C5        1.0  0.69020  0.61120  0.97320  1.0000 -0.1285263807
C   C6        1.0  0.30980  0.38880  0.02680  1.0000 -0.1285263807
C   C7        1.0  0.84510  0.61520  0.08260  1.0000 -0.1234936476
C   C8        1.0  0.15490  0.38480  0.91740  1.0000 -0.1234936476
C   C9        1.0  0.81160  0.60350  0.19690  1.0000 -0.3492905558
C   C10       1.0  0.18840  0.39650  0.80310  1.0000 -0.3492905558
C   C11       1.0  0.95600  0.58550  0.30550  1.0000 0.6525222003
C   C12       1.0  0.04400  0.41450  0.69450  1.0000 0.6525222003
C   C13       1.0  0.23610  0.83220  0.59540  1.0000 0.6323549687
C   C14       1.0  0.76390  0.16780  0.40460  1.0000 0.6323549687
C   C15       1.0  0.20750  0.98600  0.62860  1.0000 -0.3228306235
C   C16       1.0  0.79250  0.01400  0.37140  1.0000 -0.3228306235
C   C17       1.0  0.03200  0.02230  0.57120  1.0000 -0.1364160389
C   C18       1.0  0.96800  0.97770  0.42880  1.0000 -0.1364160389
O   O1        1.0  0.42720  0.60740  0.74950  1.0000 -0.5809872211
O   O2        1.0  0.57280  0.39260  0.25050  1.0000 -0.5809872211
O   O3        1.0  0.57730  0.54610  0.63000  1.0000 -0.6860938729
O   O4        1.0  0.42270  0.45390  0.37000  1.0000 -0.6860938729
O   O5        1.0  0.09860  0.61780  0.31690  1.0000 -0.5859808982
O   O6        1.0  0.90140  0.38220  0.68310  1.0000 -0.5859808982
O   O7        1.0  0.93320  0.53570  0.38822  1.0000 -0.6702768267
O   O8        1.0  0.06680  0.46430  0.61178  1.0000 -0.6702768267
O   O9        1.0  0.13730  0.74980  0.60050  1.0000 -0.6028311313
O   O10       1.0  0.86270  0.25020  0.39950  1.0000 -0.6028311313
O   O11       1.0  0.35680  0.78550  0.56240  1.0000 -0.6236445368
O   O12       1.0  0.64320  0.21450  0.43760  1.0000 -0.6236445368
O   O13       1.0  0.12840  0.29360  0.34670  1.0000 -0.6702768267
O   O14       1.0  0.87160  0.70640  0.65330  1.0000 -0.6702768267
O   O15       1.0  0.37770  0.29960  0.58830  1.0000 -0.6828877986
O   O16       1.0  0.62230  0.70040  0.41170  1.0000 -0.6828877986
