# DDEC6 charges by PACMAN v1.1 (https://github.com/mtap-research/PACMAN-charge/)
data_2006[Ni][nan]3[FSR]1
_chemical_formula_sum              "Ni3 H12 C21 O15"
_cell_length_a       8.824
_cell_length_b       8.824
_cell_length_c       10.644
_cell_angle_alpha    90
_cell_angle_beta     90
_cell_angle_gamma    120

_symmetry_space_group_name_H-M    "P 1"
_symmetry_Int_Tables_number       1

loop_
  _symmetry_equiv_pos_as_xyz
  'x, y, z'

loop_
  _atom_site_type_symbol
  _atom_site_label
  _atom_site_symmetry_multiplicity
  _atom_site_fract_x
  _atom_site_fract_y
  _atom_site_fract_z
  _atom_site_occupancy
  _atom_site_charge
Ni  Ni1       1.0  0.00000  0.95806  0.16667  1.0000 0.9005328379
Ni  Ni2       1.0  0.04194  0.04194  0.50000  1.0000 0.9005328379
Ni  Ni3       1.0  0.95806  0.00000  0.83333  1.0000 0.9005328379
H   H1        1.0  0.78900  0.65300  0.27100  1.0000 0.3877372158
H   H2        1.0  0.34700  0.13600  0.60433  1.0000 0.3877372158
H   H3        1.0  0.86400  0.21100  0.93767  1.0000 0.3877372158
H   H4        1.0  0.65300  0.78900  0.72900  1.0000 0.3877372158
H   H5        1.0  0.13600  0.34700  0.39567  1.0000 0.3877372158
H   H6        1.0  0.21100  0.86400  0.06233  1.0000 0.3877372158
H   H7        1.0  0.48800  0.39200  0.16900  1.0000 0.1506445668
H   H8        1.0  0.60800  0.09600  0.50233  1.0000 0.1506445668
H   H9        1.0  0.90400  0.51200  0.83567  1.0000 0.1506445668
H   H10       1.0  0.39200  0.48800  0.83100  1.0000 0.1506445668
H   H11       1.0  0.09600  0.60800  0.49767  1.0000 0.1506445668
H   H12       1.0  0.51200  0.90400  0.16433  1.0000 0.1506445668
C   C1        1.0  0.73670  0.73670  0.00000  1.0000 0.111332147
C   C2        1.0  0.26330  0.00000  0.33333  1.0000 0.111332147
C   C3        1.0  0.00000  0.26330  0.66667  1.0000 0.111332147
C   C4        1.0  0.52720  0.47170  0.10670  1.0000 -0.2677561877
C   C5        1.0  0.52830  0.05550  0.44003  1.0000 -0.2677561877
C   C6        1.0  0.94450  0.47280  0.77337  1.0000 -0.2677561877
C   C7        1.0  0.47170  0.52720  0.89330  1.0000 -0.2677561877
C   C8        1.0  0.05550  0.52830  0.55997  1.0000 -0.2677561877
C   C9        1.0  0.47280  0.94450  0.22663  1.0000 -0.2677561877
C   C10       1.0  0.25260  0.25260  0.00000  1.0000 0.5705538553
C   C11       1.0  0.74740  0.00000  0.33333  1.0000 0.5705538553
C   C12       1.0  0.00000  0.74740  0.66667  1.0000 0.5705538553
C   C13       1.0  0.68520  0.62780  0.10560  1.0000 0.1892108731
C   C14       1.0  0.37220  0.05740  0.43893  1.0000 0.1892108731
C   C15       1.0  0.94260  0.31480  0.77227  1.0000 0.1892108731
C   C16       1.0  0.62780  0.68520  0.89440  1.0000 0.1892108731
C   C17       1.0  0.05740  0.37220  0.56107  1.0000 0.1892108731
C   C18       1.0  0.31480  0.94260  0.22773  1.0000 0.1892108731
C   C19       1.0  0.42090  0.42090  0.00000  1.0000 0.0043395543
C   C20       1.0  0.57910  0.00000  0.33333  1.0000 0.0043395543
C   C21       1.0  0.00000  0.57910  0.66667  1.0000 0.0043395543
O   O1        1.0  0.80410  0.68960  0.20180  1.0000 -0.417614737
O   O2        1.0  0.31040  0.11450  0.53513  1.0000 -0.417614737
O   O3        1.0  0.88550  0.19590  0.86847  1.0000 -0.417614737
O   O4        1.0  0.68960  0.80410  0.79820  1.0000 -0.417614737
O   O5        1.0  0.11450  0.31040  0.46487  1.0000 -0.417614737
O   O6        1.0  0.19590  0.88550  0.13153  1.0000 -0.417614737
O   O7        1.0  0.17100  0.20310  0.10310  1.0000 -0.5635757782
O   O8        1.0  0.79690  0.96790  0.43643  1.0000 -0.5635757782
O   O9        1.0  0.03210  0.82900  0.76977  1.0000 -0.5635757782
O   O10       1.0  0.20310  0.17100  0.89690  1.0000 -0.5635757782
O   O11       1.0  0.96790  0.79690  0.56357  1.0000 -0.5635757782
O   O12       1.0  0.82900  0.03210  0.23023  1.0000 -0.5635757782
O   O13       1.0  0.88670  0.88670  0.00000  1.0000 -0.5440502999
O   O14       1.0  0.11330  0.00000  0.33333  1.0000 -0.5440502999
O   O15       1.0  0.00000  0.11330  0.66667  1.0000 -0.5440502999
