# DDEC6 charges by PACMAN v1.1 (https://github.com/mtap-research/PACMAN-charge/)
data_2006[Mg][dia]3[FSR]4
_chemical_formula_sum              "Mg12 H24 C24 O48"
_cell_length_a       11.279
_cell_length_b       9.8339
_cell_length_c       18.3345
_cell_angle_alpha    90
_cell_angle_beta     126.383
_cell_angle_gamma    90

_symmetry_space_group_name_H-M    "P 1"
_symmetry_Int_Tables_number       1

loop_
  _symmetry_equiv_pos_as_xyz
  'x, y, z'

loop_
  _atom_site_type_symbol
  _atom_site_label
  _atom_site_symmetry_multiplicity
  _atom_site_fract_x
  _atom_site_fract_y
  _atom_site_fract_z
  _atom_site_occupancy
  _atom_site_charge
Mg  Mg1       1.0  0.37819  0.92502  0.13493  1.0000 1.3135196444
Mg  Mg2       1.0  0.62181  0.42502  0.36507  1.0000 1.3135196444
Mg  Mg3       1.0  0.62181  0.07498  0.86507  1.0000 1.3135196444
Mg  Mg4       1.0  0.37819  0.57498  0.63493  1.0000 1.3135196444
Mg  Mg5       1.0  0.50000  0.00000  0.00000  1.0000 1.3018332896
Mg  Mg6       1.0  0.50000  0.50000  0.50000  1.0000 1.3018332896
Mg  Mg7       1.0  0.56622  0.11695  0.30602  1.0000 1.281275737
Mg  Mg8       1.0  0.43378  0.61695  0.19398  1.0000 1.281275737
Mg  Mg9       1.0  0.43378  0.88305  0.69398  1.0000 1.281275737
Mg  Mg10      1.0  0.56622  0.38305  0.80602  1.0000 1.281275737
Mg  Mg11      1.0  0.00000  0.00000  0.00000  1.0000 1.3018332896
Mg  Mg12      1.0  0.00000  0.50000  0.50000  1.0000 1.3018332896
H   H1        1.0  0.78320  0.04850  0.25860  1.0000 0.0800738776
H   H2        1.0  0.21680  0.54850  0.24140  1.0000 0.0800738776
H   H3        1.0  0.21680  0.95150  0.74140  1.0000 0.0800738776
H   H4        1.0  0.78320  0.45150  0.75860  1.0000 0.0800738776
H   H5        1.0  0.48990  0.61940  0.04900  1.0000 0.0723234442
H   H6        1.0  0.51010  0.11940  0.45100  1.0000 0.0723234442
H   H7        1.0  0.51010  0.38060  0.95100  1.0000 0.0723234442
H   H8        1.0  0.48990  0.88060  0.54900  1.0000 0.0723234442
H   H9        1.0  0.02440  0.70780  0.02310  1.0000 0.0800738776
H   H10       1.0  0.97560  0.20780  0.47690  1.0000 0.0800738776
H   H11       1.0  0.97560  0.29220  0.97690  1.0000 0.0800738776
H   H12       1.0  0.02440  0.79220  0.52310  1.0000 0.0800738776
H   H13       1.0  0.51110  0.76610  0.36920  1.0000 0.0800738776
H   H14       1.0  0.48890  0.26610  0.13080  1.0000 0.0800738776
H   H15       1.0  0.48890  0.23390  0.63080  1.0000 0.0800738776
H   H16       1.0  0.51110  0.73390  0.86920  1.0000 0.0800738776
H   H17       1.0  0.23620  0.16170  0.93190  1.0000 0.0723234442
H   H18       1.0  0.76380  0.66170  0.56810  1.0000 0.0723234442
H   H19       1.0  0.76380  0.83830  0.06810  1.0000 0.0723234442
H   H20       1.0  0.23620  0.33830  0.43190  1.0000 0.0723234442
H   H21       1.0  0.24470  0.21070  0.22090  1.0000 0.0800738776
H   H22       1.0  0.75530  0.71070  0.27910  1.0000 0.0800738776
H   H23       1.0  0.75530  0.78930  0.77910  1.0000 0.0800738776
H   H24       1.0  0.24470  0.28930  0.72090  1.0000 0.0800738776
C   C1        1.0  0.68829  0.02363  0.20664  1.0000 0.5197823273
C   C2        1.0  0.31171  0.52363  0.29336  1.0000 0.5197823273
C   C3        1.0  0.31171  0.97637  0.79336  1.0000 0.5197823273
C   C4        1.0  0.68829  0.47637  0.70664  1.0000 0.5197823273
C   C5        1.0  0.47736  0.71342  0.05470  1.0000 0.5197823273
C   C6        1.0  0.52264  0.21342  0.44530  1.0000 0.5197823273
C   C7        1.0  0.52264  0.28658  0.94530  1.0000 0.5197823273
C   C8        1.0  0.47736  0.78658  0.55470  1.0000 0.5197823273
C   C9        1.0  0.12690  0.72709  0.06219  1.0000 0.5316020873
C   C10       1.0  0.87310  0.22709  0.43781  1.0000 0.5316020873
C   C11       1.0  0.87310  0.27291  0.93781  1.0000 0.5316020873
C   C12       1.0  0.12690  0.77291  0.56219  1.0000 0.5316020873
C   C13       1.0  0.50346  0.83574  0.33069  1.0000 0.5316020873
C   C14       1.0  0.49654  0.33574  0.16931  1.0000 0.5316020873
C   C15       1.0  0.49654  0.16426  0.66931  1.0000 0.5316020873
C   C16       1.0  0.50346  0.66426  0.83069  1.0000 0.5316020873
C   C17       1.0  0.22956  0.10256  0.97033  1.0000 0.5316020873
C   C18       1.0  0.77044  0.60256  0.52967  1.0000 0.5316020873
C   C19       1.0  0.77044  0.89744  0.02967  1.0000 0.5316020873
C   C20       1.0  0.22956  0.39744  0.47033  1.0000 0.5316020873
C   C21       1.0  0.23002  0.14304  0.17927  1.0000 0.5197823273
C   C22       1.0  0.76998  0.64304  0.32073  1.0000 0.5197823273
C   C23       1.0  0.76998  0.85696  0.82073  1.0000 0.5197823273
C   C24       1.0  0.23002  0.35696  0.67927  1.0000 0.5197823273
O   O1        1.0  0.58635  0.01166  0.21668  1.0000 -0.6818063828
O   O2        1.0  0.41365  0.51166  0.28332  1.0000 -0.6818063828
O   O3        1.0  0.41365  0.98834  0.78332  1.0000 -0.6818063828
O   O4        1.0  0.58635  0.48834  0.71668  1.0000 -0.6818063828
O   O5        1.0  0.67472  0.00580  0.13534  1.0000 -0.5695496324
O   O6        1.0  0.32528  0.50580  0.36466  1.0000 -0.5695496324
O   O7        1.0  0.32528  0.99420  0.86466  1.0000 -0.5695496324
O   O8        1.0  0.67472  0.49420  0.63534  1.0000 -0.5695496324
O   O9        1.0  0.45525  0.74711  0.11322  1.0000 -0.6818063828
O   O10       1.0  0.54475  0.24711  0.38678  1.0000 -0.6818063828
O   O11       1.0  0.54475  0.25289  0.88678  1.0000 -0.6818063828
O   O12       1.0  0.45525  0.75289  0.61322  1.0000 -0.6818063828
O   O13       1.0  0.48368  0.79325  0.00500  1.0000 -0.5798000915
O   O14       1.0  0.51632  0.29325  0.49500  1.0000 -0.5798000915
O   O15       1.0  0.51632  0.20675  0.99500  1.0000 -0.5798000915
O   O16       1.0  0.48368  0.70675  0.50500  1.0000 -0.5798000915
O   O17       1.0  0.16569  0.85055  0.06590  1.0000 -0.6707516584
O   O18       1.0  0.83431  0.35055  0.43410  1.0000 -0.6707516584
O   O19       1.0  0.83431  0.14945  0.93410  1.0000 -0.6707516584
O   O20       1.0  0.16569  0.64945  0.56590  1.0000 -0.6707516584
O   O21       1.0  0.21080  0.63027  0.10491  1.0000 -0.5695496324
O   O22       1.0  0.78920  0.13027  0.39509  1.0000 -0.5695496324
O   O23       1.0  0.78920  0.36973  0.89509  1.0000 -0.5695496324
O   O24       1.0  0.21080  0.86973  0.60491  1.0000 -0.5695496324
O   O25       1.0  0.43959  0.80530  0.24768  1.0000 -0.6707516584
O   O26       1.0  0.56041  0.30530  0.25232  1.0000 -0.6707516584
O   O27       1.0  0.56041  0.19470  0.75232  1.0000 -0.6707516584
O   O28       1.0  0.43959  0.69470  0.74768  1.0000 -0.6707516584
O   O29       1.0  0.55656  0.94825  0.36567  1.0000 -0.5798000915
O   O30       1.0  0.44344  0.44825  0.13433  1.0000 -0.5798000915
O   O31       1.0  0.44344  0.05175  0.63433  1.0000 -0.5798000915
O   O32       1.0  0.55656  0.55175  0.86567  1.0000 -0.5798000915
O   O33       1.0  0.34219  0.02833  0.02565  1.0000 -0.6875913861
O   O34       1.0  0.65781  0.52833  0.47435  1.0000 -0.6875913861
O   O35       1.0  0.65781  0.97167  0.97435  1.0000 -0.6875913861
O   O36       1.0  0.34219  0.47167  0.52565  1.0000 -0.6875913861
O   O37       1.0  0.11325  0.10367  0.96283  1.0000 -0.5798000915
O   O38       1.0  0.88675  0.60367  0.53717  1.0000 -0.5798000915
O   O39       1.0  0.88675  0.89633  0.03717  1.0000 -0.5798000915
O   O40       1.0  0.11325  0.39633  0.46283  1.0000 -0.5798000915
O   O41       1.0  0.34503  0.08614  0.19476  1.0000 -0.6818063828
O   O42       1.0  0.65497  0.58614  0.30524  1.0000 -0.6818063828
O   O43       1.0  0.65497  0.91386  0.80524  1.0000 -0.6818063828
O   O44       1.0  0.34503  0.41386  0.69476  1.0000 -0.6818063828
O   O45       1.0  0.10160  0.11767  0.11489  1.0000 -0.5627109233
O   O46       1.0  0.89840  0.61767  0.38511  1.0000 -0.5627109233
O   O47       1.0  0.89840  0.88233  0.88511  1.0000 -0.5627109233
O   O48       1.0  0.10160  0.38233  0.61489  1.0000 -0.5627109233
