# DDEC6 charges by PACMAN v1.1 (https://github.com/mtap-research/PACMAN-charge/)
data_2006[Zn][dia]3[FSR]7
_chemical_formula_sum              "Zn12 H24 C24 O48"
_cell_length_a       11.2177
_cell_length_b       9.7505
_cell_length_c       18.0328
_cell_angle_alpha    90
_cell_angle_beta     127.167
_cell_angle_gamma    90

_symmetry_space_group_name_H-M    "P 1"
_symmetry_Int_Tables_number       1

loop_
  _symmetry_equiv_pos_as_xyz
  'x, y, z'

loop_
  _atom_site_type_symbol
  _atom_site_label
  _atom_site_symmetry_multiplicity
  _atom_site_fract_x
  _atom_site_fract_y
  _atom_site_fract_z
  _atom_site_occupancy
  _atom_site_charge
Zn  Zn1       1.0  0.62486  0.91895  0.86814  1.0000 0.9445477523
Zn  Zn2       1.0  0.37514  0.41895  0.63186  1.0000 0.9445477523
Zn  Zn3       1.0  0.37514  0.08105  0.13186  1.0000 0.9445477523
Zn  Zn4       1.0  0.62486  0.58105  0.36814  1.0000 0.9445477523
Zn  Zn5       1.0  0.42540  0.10322  0.68520  1.0000 0.9271794952
Zn  Zn6       1.0  0.57460  0.60322  0.81480  1.0000 0.9271794952
Zn  Zn7       1.0  0.57460  0.89678  0.31480  1.0000 0.9271794952
Zn  Zn8       1.0  0.42540  0.39678  0.18520  1.0000 0.9271794952
Zn  Zn9       1.0  0.50000  0.00000  0.00000  1.0000 0.9475871719
Zn  Zn10      1.0  0.50000  0.50000  0.50000  1.0000 0.9475871719
Zn  Zn11      1.0  0.00000  0.00000  0.00000  1.0000 0.9475871719
Zn  Zn12      1.0  1.00000  0.50000  0.50000  1.0000 0.9475871719
H   H1        1.0  0.49300  0.74790  0.63140  1.0000 0.0882972675
H   H2        1.0  0.50700  0.24790  0.86860  1.0000 0.0882972675
H   H3        1.0  0.50700  0.25210  0.36860  1.0000 0.0882972675
H   H4        1.0  0.49300  0.75210  0.13140  1.0000 0.0882972675
H   H5        1.0  0.20520  0.02250  0.73130  1.0000 0.0882972675
H   H6        1.0  0.79480  0.52250  0.76870  1.0000 0.0882972675
H   H7        1.0  0.79480  0.97750  0.26870  1.0000 0.0882972675
H   H8        1.0  0.20520  0.47750  0.23130  1.0000 0.0882972675
H   H9        1.0  0.52600  0.61310  0.96460  1.0000 0.0882972675
H   H10       1.0  0.47400  0.11310  0.53540  1.0000 0.0882972675
H   H11       1.0  0.47400  0.38690  0.03540  1.0000 0.0882972675
H   H12       1.0  0.52600  0.88690  0.46460  1.0000 0.0882972675
H   H13       1.0  0.74960  0.17440  0.75900  1.0000 0.0882972675
H   H14       1.0  0.25040  0.67440  0.74100  1.0000 0.0882972675
H   H15       1.0  0.25040  0.82560  0.24100  1.0000 0.0882972675
H   H16       1.0  0.74960  0.32560  0.25900  1.0000 0.0882972675
H   H17       1.0  0.76230  0.17210  0.06560  1.0000 0.0882972675
H   H18       1.0  0.23770  0.67210  0.43440  1.0000 0.0882972675
H   H19       1.0  0.23770  0.82790  0.93440  1.0000 0.0882972675
H   H20       1.0  0.76230  0.32790  0.56560  1.0000 0.0882972675
H   H21       1.0  0.98590  0.70020  0.00010  1.0000 0.0882972675
H   H22       1.0  0.01410  0.20020  0.49990  1.0000 0.0882972675
H   H23       1.0  0.01410  0.29980  0.99990  1.0000 0.0882972675
H   H24       1.0  0.98590  0.79980  0.50010  1.0000 0.0882972675
C   C1        1.0  0.50000  0.82100  0.66870  1.0000 0.4905069865
C   C2        1.0  0.50000  0.32100  0.83130  1.0000 0.4905069865
C   C3        1.0  0.50000  0.17900  0.33130  1.0000 0.4905069865
C   C4        1.0  0.50000  0.67900  0.16870  1.0000 0.4905069865
C   C5        1.0  0.30280  0.00550  0.78670  1.0000 0.4704070672
C   C6        1.0  0.69720  0.50550  0.71330  1.0000 0.4704070672
C   C7        1.0  0.69720  0.99450  0.21330  1.0000 0.4704070672
C   C8        1.0  0.30280  0.49450  0.28670  1.0000 0.4704070672
C   C9        1.0  0.53210  0.70790  0.95530  1.0000 0.4643258624
C   C10       1.0  0.46790  0.20790  0.54470  1.0000 0.4643258624
C   C11       1.0  0.46790  0.29210  0.04470  1.0000 0.4643258624
C   C12       1.0  0.53210  0.79210  0.45530  1.0000 0.4643258624
C   C13       1.0  0.76870  0.11960  0.80870  1.0000 0.4704070672
C   C14       1.0  0.23130  0.61960  0.69130  1.0000 0.4704070672
C   C15       1.0  0.23130  0.88040  0.19130  1.0000 0.4704070672
C   C16       1.0  0.76870  0.38040  0.30870  1.0000 0.4704070672
C   C17       1.0  0.76930  0.11260  0.02670  1.0000 0.4825519941
C   C18       1.0  0.23070  0.61260  0.47330  1.0000 0.4825519941
C   C19       1.0  0.23070  0.88740  0.97330  1.0000 0.4825519941
C   C20       1.0  0.76930  0.38740  0.52670  1.0000 0.4825519941
C   C21       1.0  0.88190  0.71690  0.95510  1.0000 0.4905069865
C   C22       1.0  0.11810  0.21690  0.54490  1.0000 0.4905069865
C   C23       1.0  0.11810  0.28310  0.04490  1.0000 0.4905069865
C   C24       1.0  0.88190  0.78310  0.45510  1.0000 0.4905069865
O   O1        1.0  0.56740  0.79500  0.75509  1.0000 -0.5483001002
O   O2        1.0  0.43260  0.29500  0.74491  1.0000 -0.5483001002
O   O3        1.0  0.43260  0.20500  0.24491  1.0000 -0.5483001002
O   O4        1.0  0.56740  0.70500  0.25509  1.0000 -0.5483001002
O   O5        1.0  0.44330  0.93120  0.62900  1.0000 -0.4905626119
O   O6        1.0  0.55670  0.43120  0.87100  1.0000 -0.4905626119
O   O7        1.0  0.55670  0.06880  0.37100  1.0000 -0.4905626119
O   O8        1.0  0.44330  0.56880  0.12900  1.0000 -0.4905626119
O   O9        1.0  0.40760  0.00050  0.77904  1.0000 -0.5397713386
O   O10       1.0  0.59240  0.50050  0.72096  1.0000 -0.5397713386
O   O11       1.0  0.59240  0.99950  0.22096  1.0000 -0.5397713386
O   O12       1.0  0.40760  0.49950  0.27904  1.0000 -0.5397713386
O   O13       1.0  0.31410  0.99060  0.85831  1.0000 -0.4905626119
O   O14       1.0  0.68590  0.49060  0.64169  1.0000 -0.4905626119
O   O15       1.0  0.68590  0.00940  0.14169  1.0000 -0.4905626119
O   O16       1.0  0.31410  0.50940  0.35831  1.0000 -0.4905626119
O   O17       1.0  0.54380  0.74060  0.89100  1.0000 -0.5483001002
O   O18       1.0  0.45620  0.24060  0.60900  1.0000 -0.5483001002
O   O19       1.0  0.45620  0.25940  0.10900  1.0000 -0.5483001002
O   O20       1.0  0.54380  0.75940  0.39100  1.0000 -0.5483001002
O   O21       1.0  0.52810  0.78990  0.00611  1.0000 -0.4978391903
O   O22       1.0  0.47190  0.28990  0.49389  1.0000 -0.4978391903
O   O23       1.0  0.47190  0.21010  0.99389  1.0000 -0.4978391903
O   O24       1.0  0.52810  0.71010  0.50611  1.0000 -0.4978391903
O   O25       1.0  0.65520  0.07950  0.80314  1.0000 -0.5483001002
O   O26       1.0  0.34480  0.57950  0.69686  1.0000 -0.5483001002
O   O27       1.0  0.34480  0.92050  0.19686  1.0000 -0.5483001002
O   O28       1.0  0.65520  0.42050  0.30314  1.0000 -0.5483001002
O   O29       1.0  0.90080  0.09390  0.87241  1.0000 -0.4785289966
O   O30       1.0  0.09920  0.59390  0.62759  1.0000 -0.4785289966
O   O31       1.0  0.09920  0.90610  0.12759  1.0000 -0.4785289966
O   O32       1.0  0.90080  0.40610  0.37241  1.0000 -0.4785289966
O   O33       1.0  0.66040  0.02870  0.97545  1.0000 -0.5483001002
O   O34       1.0  0.33960  0.52870  0.52455  1.0000 -0.5483001002
O   O35       1.0  0.33960  0.97130  0.02455  1.0000 -0.5483001002
O   O36       1.0  0.66040  0.47130  0.47545  1.0000 -0.5483001002
O   O37       1.0  0.88160  0.12320  0.03014  1.0000 -0.4978391903
O   O38       1.0  0.11840  0.62320  0.46986  1.0000 -0.4978391903
O   O39       1.0  0.11840  0.87680  0.96986  1.0000 -0.4978391903
O   O40       1.0  0.88160  0.37680  0.53014  1.0000 -0.4978391903
O   O41       1.0  0.83930  0.84130  0.94328  1.0000 -0.5316604577
O   O42       1.0  0.16070  0.34130  0.55672  1.0000 -0.5316604577
O   O43       1.0  0.16070  0.15870  0.05672  1.0000 -0.5316604577
O   O44       1.0  0.83930  0.65870  0.44328  1.0000 -0.5316604577
O   O45       1.0  0.80140  0.61500  0.91382  1.0000 -0.4978391903
O   O46       1.0  0.19860  0.11500  0.58618  1.0000 -0.4978391903
O   O47       1.0  0.19860  0.38500  0.08618  1.0000 -0.4978391903
O   O48       1.0  0.80140  0.88500  0.41382  1.0000 -0.4978391903
