# DDEC6 charges by PACMAN v1.1 (https://github.com/mtap-research/PACMAN-charge/)
data_2006[Cd][dia]3[FSR]2
_chemical_formula_sum              "Cd8 H80 C96 N32 O32"
_cell_length_a       17.3504
_cell_length_b       17.3504
_cell_length_c       17.3504
_cell_angle_alpha    115.027
_cell_angle_beta     115.027
_cell_angle_gamma    98.8536

_symmetry_space_group_name_H-M    "P 1"
_symmetry_Int_Tables_number       1

loop_
  _symmetry_equiv_pos_as_xyz
  'x, y, z'

loop_
  _atom_site_type_symbol
  _atom_site_label
  _atom_site_symmetry_multiplicity
  _atom_site_fract_x
  _atom_site_fract_y
  _atom_site_fract_z
  _atom_site_occupancy
  _atom_site_charge
Cd  Cd1       1.0  0.96548  0.67696  0.13628  1.0000 0.8260480379
Cd  Cd2       1.0  0.20932  0.42080  0.63628  1.0000 0.8260480379
Cd  Cd3       1.0  0.42696  0.79068  0.21148  1.0000 0.8260480379
Cd  Cd4       1.0  0.17080  0.03452  0.71148  1.0000 0.8260480379
Cd  Cd5       1.0  0.57920  0.21548  0.78852  1.0000 0.8260480379
Cd  Cd6       1.0  0.32304  0.45932  0.28852  1.0000 0.8260480379
Cd  Cd7       1.0  0.54068  0.82920  0.86372  1.0000 0.8260480379
Cd  Cd8       1.0  0.78452  0.57304  0.36372  1.0000 0.8260480379
H   H1        1.0  0.05820  0.91220  0.24180  1.0000 0.1409327769
H   H2        1.0  0.07960  0.43360  0.74180  1.0000 0.1409327769
H   H3        1.0  0.92900  0.78700  0.31980  1.0000 0.111889509
H   H4        1.0  0.28280  0.64080  0.81980  1.0000 0.111889509
H   H5        1.0  0.12330  0.09190  0.39460  1.0000 0.1206712647
H   H6        1.0  0.05270  0.52130  0.89460  1.0000 0.1206712647
H   H7        1.0  0.05000  0.11060  0.51040  1.0000 0.1478895222
H   H8        1.0  0.14980  0.71040  0.01040  1.0000 0.1478895222
H   H9        1.0  0.76100  0.66520  0.95420  1.0000 0.1315991902
H   H10       1.0  0.03900  0.44320  0.45420  1.0000 0.1315991902
H   H11       1.0  0.79670  0.50070  0.05360  1.0000 0.111889509
H   H12       1.0  0.30290  0.50690  0.55360  1.0000 0.111889509
H   H13       1.0  0.56430  0.57920  0.82650  1.0000 0.1206712647
H   H14       1.0  0.99730  0.51220  0.32650  1.0000 0.1206712647
H   H15       1.0  0.49910  0.44760  0.85510  1.0000 0.1315991902
H   H16       1.0  0.15750  0.60600  0.35510  1.0000 0.1315991902
H   H17       1.0  0.98980  0.94790  0.43590  1.0000 0.2994860009
H   H18       1.0  0.23800  0.69610  0.93590  1.0000 0.2994860009
H   H19       1.0  0.63530  0.44980  0.94110  1.0000 0.2994860009
H   H20       1.0  0.24130  0.55580  0.44110  1.0000 0.2994860009
H   H21       1.0  0.66220  0.92040  0.35400  1.0000 0.1409327769
H   H22       1.0  0.18360  0.94180  0.85400  1.0000 0.1409327769
H   H23       1.0  0.53700  0.71720  0.35800  1.0000 0.111889509
H   H24       1.0  0.39080  0.07100  0.85800  1.0000 0.111889509
H   H25       1.0  0.84190  0.94730  0.46860  1.0000 0.1206712647
H   H26       1.0  0.27130  0.87670  0.96860  1.0000 0.1206712647
H   H27       1.0  0.86060  0.85020  0.56060  1.0000 0.1478895222
H   H28       1.0  0.46040  0.95000  0.06060  1.0000 0.1478895222
H   H29       1.0  0.41520  0.96100  0.40420  1.0000 0.1315991902
H   H30       1.0  0.19320  0.23900  0.90420  1.0000 0.1315991902
H   H31       1.0  0.25070  0.69710  0.20400  1.0000 0.111889509
H   H32       1.0  0.25690  0.20330  0.70400  1.0000 0.111889509
H   H33       1.0  0.32920  0.00270  0.51490  1.0000 0.1206712647
H   H34       1.0  0.26220  0.43570  0.01490  1.0000 0.1206712647
H   H35       1.0  0.19760  0.84250  0.44850  1.0000 0.1315991902
H   H36       1.0  0.35600  0.50090  0.94850  1.0000 0.1315991902
H   H37       1.0  0.69790  0.76200  0.45810  1.0000 0.2994860009
H   H38       1.0  0.44610  0.01020  0.95810  1.0000 0.2994860009
H   H39       1.0  0.19980  0.75870  0.31450  1.0000 0.2994860009
H   H40       1.0  0.30580  0.36470  0.81450  1.0000 0.2994860009
H   H41       1.0  0.56640  0.30820  0.64600  1.0000 0.1409327769
H   H42       1.0  0.08780  0.32960  0.14600  1.0000 0.1409327769
H   H43       1.0  0.35920  0.17900  0.64200  1.0000 0.111889509
H   H44       1.0  0.21300  0.53280  0.14200  1.0000 0.111889509
H   H45       1.0  0.47870  0.37330  0.53140  1.0000 0.1206712647
H   H46       1.0  0.90810  0.30270  0.03140  1.0000 0.1206712647
H   H47       1.0  0.28960  0.30000  0.43940  1.0000 0.1478895222
H   H48       1.0  0.88940  0.39980  0.93940  1.0000 0.1478895222
H   H49       1.0  0.55680  0.01100  0.59580  1.0000 0.1315991902
H   H50       1.0  0.33480  0.28900  0.09580  1.0000 0.1315991902
H   H51       1.0  0.49310  0.04670  0.79600  1.0000 0.111889509
H   H52       1.0  0.49930  0.55290  0.29600  1.0000 0.111889509
H   H53       1.0  0.48780  0.81430  0.48510  1.0000 0.1206712647
H   H54       1.0  0.42080  0.24730  0.98510  1.0000 0.1206712647
H   H55       1.0  0.39400  0.74910  0.55150  1.0000 0.1315991902
H   H56       1.0  0.55240  0.40750  0.05150  1.0000 0.1315991902
H   H57       1.0  0.30390  0.23980  0.54190  1.0000 0.2994860009
H   H58       1.0  0.05210  0.48800  0.04190  1.0000 0.2994860009
H   H59       1.0  0.44420  0.88530  0.68550  1.0000 0.2994860009
H   H60       1.0  0.55020  0.49130  0.18550  1.0000 0.2994860009
H   H61       1.0  0.67040  0.81640  0.75820  1.0000 0.1409327769
H   H62       1.0  0.69180  0.33780  0.25820  1.0000 0.1409327769
H   H63       1.0  0.46720  0.60920  0.68020  1.0000 0.111889509
H   H64       1.0  0.82100  0.46300  0.18020  1.0000 0.111889509
H   H65       1.0  0.69730  0.72870  0.60540  1.0000 0.1206712647
H   H66       1.0  0.62670  0.15810  0.10540  1.0000 0.1206712647
H   H67       1.0  0.60020  0.53960  0.48960  1.0000 0.1478895222
H   H68       1.0  0.70000  0.13940  0.98960  1.0000 0.1478895222
H   H69       1.0  0.71100  0.80680  0.04580  1.0000 0.1315991902
H   H70       1.0  0.98900  0.58480  0.54580  1.0000 0.1315991902
H   H71       1.0  0.44710  0.74310  0.94640  1.0000 0.111889509
H   H72       1.0  0.95330  0.74930  0.44640  1.0000 0.111889509
H   H73       1.0  0.75270  0.73780  0.17350  1.0000 0.1206712647
H   H74       1.0  0.18570  0.67080  0.67350  1.0000 0.1206712647
H   H75       1.0  0.59250  0.64400  0.14490  1.0000 0.1315991902
H   H76       1.0  0.25090  0.80240  0.64490  1.0000 0.1315991902
H   H77       1.0  0.51200  0.55390  0.56410  1.0000 0.2994860009
H   H78       1.0  0.76020  0.30210  0.06410  1.0000 0.2994860009
H   H79       1.0  0.50870  0.69420  0.05890  1.0000 0.2994860009
H   H80       1.0  0.11470  0.80020  0.55890  1.0000 0.2994860009
C   C1        1.0  0.04260  0.97000  0.36080  1.0000 0.1315991902
C   C2        1.0  0.14080  0.56820  0.86080  1.0000 0.1315991902
C   C3        1.0  0.03300  0.90180  0.27600  1.0000 -0.0988889691
C   C4        1.0  0.12420  0.49300  0.77600  1.0000 -0.0988889691
C   C5        1.0  0.96230  0.83310  0.31820  1.0000 0.1409327769
C   C6        1.0  0.23510  0.60590  0.81820  1.0000 0.1478895222
C   C7        1.0  0.08760  0.06910  0.41390  1.0000 -0.105358773
C   C8        1.0  0.09480  0.57630  0.91390  1.0000 -0.105358773
C   C9        1.0  0.08320  0.13080  0.48740  1.0000 -0.2471195358
C   C10       1.0  0.10660  0.65420  0.98740  1.0000 -0.2471195358
C   C11       1.0  0.12960  0.23110  0.53390  1.0000 0.5969484289
C   C12       1.0  0.05280  0.65430  0.03390  1.0000 0.5969484289
C   C13       1.0  0.66230  0.55420  0.92050  1.0000 0.1409327769
C   C14       1.0  0.11630  0.50820  0.42050  1.0000 0.1409327769
C   C15       1.0  0.74870  0.61790  0.96500  1.0000 -0.0988889691
C   C16       1.0  0.09710  0.46630  0.46500  1.0000 -0.0988889691
C   C17       1.0  0.76880  0.52790  0.01970  1.0000 0.1618784991
C   C18       1.0  0.24180  0.50090  0.51970  1.0000 0.1618784991
C   C19       1.0  0.56950  0.54240  0.85330  1.0000 -0.1281001774
C   C20       1.0  0.06090  0.53380  0.35330  1.0000 -0.1281001774
C   C21       1.0  0.49380  0.48430  0.82810  1.0000 -0.2214893282
C   C22       1.0  0.09380  0.58430  0.32810  1.0000 -0.2214893282
C   C23       1.0  0.39790  0.47190  0.75820  1.0000 0.588218226
C   C24       1.0  0.03630  0.61030  0.25820  1.0000 0.588218226
C   C25       1.0  0.72000  0.85920  0.42740  1.0000 0.1409327769
C   C26       1.0  0.31820  0.95740  0.92740  1.0000 0.1409327769
C   C27       1.0  0.65180  0.87580  0.36880  1.0000 -0.0988889691
C   C28       1.0  0.24300  0.96700  0.86880  1.0000 -0.0988889691
C   C29       1.0  0.58310  0.76490  0.37080  1.0000 0.1409327769
C   C30       1.0  0.35590  0.03770  0.87080  1.0000 0.1409327769
C   C31       1.0  0.81910  0.90520  0.48150  1.0000 -0.105358773
C   C32       1.0  0.32630  0.91240  0.98150  1.0000 -0.105358773
C   C33       1.0  0.88080  0.89340  0.54760  1.0000 -0.2471195358
C   C34       1.0  0.40420  0.91680  0.04760  1.0000 -0.2471195358
C   C35       1.0  0.98110  0.94720  0.60150  1.0000 0.5969484289
C   C36       1.0  0.40430  0.87040  0.10150  1.0000 0.5969484289
C   C37       1.0  0.30420  0.88370  0.39190  1.0000 0.1409327769
C   C38       1.0  0.25820  0.33770  0.89190  1.0000 0.1409327769
C   C39       1.0  0.36790  0.90290  0.36920  1.0000 -0.0988889691
C   C40       1.0  0.21630  0.25130  0.86920  1.0000 -0.0988889691
C   C41       1.0  0.27790  0.75820  0.25910  1.0000 0.1618784991
C   C42       1.0  0.25090  0.23120  0.75910  1.0000 0.1618784991
C   C43       1.0  0.29240  0.93910  0.47290  1.0000 -0.1281001774
C   C44       1.0  0.28380  0.43050  0.97290  1.0000 -0.1281001774
C   C45       1.0  0.23430  0.90620  0.49050  1.0000 -0.2252247865
C   C46       1.0  0.33430  0.50620  0.99050  1.0000 -0.2214893282
C   C47       1.0  0.22190  0.96370  0.57400  1.0000 0.588218226
C   C48       1.0  0.36030  0.60210  0.07400  1.0000 0.588218226
C   C49       1.0  0.43180  0.29260  0.57260  1.0000 0.1315991902
C   C50       1.0  0.03000  0.39080  0.07260  1.0000 0.1315991902
C   C51       1.0  0.50700  0.28300  0.63120  1.0000 -0.0988889691
C   C52       1.0  0.09820  0.37420  0.13120  1.0000 -0.0988889691
C   C53       1.0  0.39410  0.21230  0.62920  1.0000 0.1409327769
C   C54       1.0  0.16690  0.48510  0.12920  1.0000 0.1478895222
C   C55       1.0  0.42370  0.33760  0.51850  1.0000 -0.105358773
C   C56       1.0  0.93090  0.34480  0.01850  1.0000 -0.105358773
C   C57       1.0  0.34580  0.33320  0.45240  1.0000 -0.2471195358
C   C58       1.0  0.86920  0.35660  0.95240  1.0000 -0.2471195358
C   C59       1.0  0.34570  0.37960  0.39850  1.0000 0.5969484289
C   C60       1.0  0.76890  0.30280  0.89850  1.0000 0.5969484289
C   C61       1.0  0.49180  0.91230  0.60810  1.0000 0.1409327769
C   C62       1.0  0.44580  0.36630  0.10810  1.0000 0.1409327769
C   C63       1.0  0.53370  0.99870  0.63080  1.0000 -0.0988889691
C   C64       1.0  0.38210  0.34710  0.13080  1.0000 -0.0988889691
C   C65       1.0  0.49910  0.01880  0.74090  1.0000 0.1618784991
C   C66       1.0  0.47210  0.49180  0.24090  1.0000 0.1618784991
C   C67       1.0  0.46620  0.81950  0.52710  1.0000 -0.1281001774
C   C68       1.0  0.45760  0.31090  0.02710  1.0000 -0.1281001774
C   C69       1.0  0.41570  0.74380  0.50950  1.0000 -0.2252247865
C   C70       1.0  0.51570  0.34380  0.00950  1.0000 -0.2252247865
C   C71       1.0  0.38970  0.64790  0.42600  1.0000 0.588218226
C   C72       1.0  0.52810  0.28630  0.92600  1.0000 0.588218226
C   C73       1.0  0.60920  0.68180  0.63920  1.0000 0.1315991902
C   C74       1.0  0.70740  0.28000  0.13920  1.0000 0.1315991902
C   C75       1.0  0.62580  0.75700  0.72400  1.0000 -0.0949109132
C   C76       1.0  0.71700  0.34820  0.22400  1.0000 -0.0988889691
C   C77       1.0  0.51490  0.64410  0.68180  1.0000 0.1409327769
C   C78       1.0  0.78770  0.41690  0.18180  1.0000 0.1409327769
C   C79       1.0  0.65520  0.67370  0.58610  1.0000 -0.105358773
C   C80       1.0  0.66240  0.18090  0.08610  1.0000 -0.0988889691
C   C81       1.0  0.64340  0.59580  0.51260  1.0000 -0.2471195358
C   C82       1.0  0.66680  0.11920  0.01260  1.0000 -0.2471195358
C   C83       1.0  0.69720  0.59570  0.46610  1.0000 0.5969484289
C   C84       1.0  0.62040  0.01890  0.96610  1.0000 0.5969484289
C   C85       1.0  0.63370  0.74180  0.07950  1.0000 0.1409327769
C   C86       1.0  0.08770  0.69580  0.57950  1.0000 0.1409327769
C   C87       1.0  0.65290  0.78370  0.03500  1.0000 -0.0988889691
C   C88       1.0  0.00130  0.63210  0.53500  1.0000 -0.0988889691
C   C89       1.0  0.50820  0.74910  0.98030  1.0000 0.1618784991
C   C90       1.0  0.98120  0.72210  0.48030  1.0000 0.1618784991
C   C91       1.0  0.68910  0.71620  0.14670  1.0000 -0.1281001774
C   C92       1.0  0.18050  0.70760  0.64670  1.0000 -0.1281001774
C   C93       1.0  0.65620  0.66570  0.17190  1.0000 -0.2252247865
C   C94       1.0  0.25620  0.76570  0.67190  1.0000 -0.2252247865
C   C95       1.0  0.71370  0.63970  0.24180  1.0000 0.588218226
C   C96       1.0  0.35210  0.77810  0.74180  1.0000 0.588218226
N   N1        1.0  0.98160  0.81650  0.24830  1.0000 -0.2970889037
N   N2        1.0  0.18180  0.51670  0.74830  1.0000 -0.2970889037
N   N3        1.0  0.99600  0.92300  0.38540  1.0000 -0.2214893282
N   N4        1.0  0.21240  0.63940  0.88540  1.0000 -0.2214893282
N   N5        1.0  0.81450  0.60190  0.02780  1.0000 -0.2946861471
N   N6        1.0  0.17590  0.46330  0.52780  1.0000 -0.2970889037
N   N7        1.0  0.67750  0.49700  0.95670  1.0000 -0.2356827642
N   N8        1.0  0.20970  0.52920  0.45670  1.0000 -0.2356827642
N   N9        1.0  0.56650  0.81820  0.33490  1.0000 -0.2970889037
N   N10       1.0  0.26670  0.01840  0.83490  1.0000 -0.2970889037
N   N11       1.0  0.67300  0.78760  0.42700  1.0000 -0.2214893282
N   N12       1.0  0.38940  0.00400  0.92700  1.0000 -0.2214893282
N   N13       1.0  0.35190  0.82410  0.28740  1.0000 -0.2970889037
N   N14       1.0  0.21330  0.18550  0.78740  1.0000 -0.2970889037
N   N15       1.0  0.24700  0.79030  0.31950  1.0000 -0.2356827642
N   N16       1.0  0.27920  0.32250  0.81950  1.0000 -0.2356827642
N   N17       1.0  0.48330  0.23160  0.66510  1.0000 -0.2970889037
N   N18       1.0  0.18350  0.43180  0.16510  1.0000 -0.2970889037
N   N19       1.0  0.36060  0.24600  0.57300  1.0000 -0.2214893282
N   N20       1.0  0.07700  0.46240  0.07300  1.0000 -0.2214893282
N   N21       1.0  0.53670  0.06450  0.71260  1.0000 -0.2970889037
N   N22       1.0  0.39810  0.42590  0.21260  1.0000 -0.2970889037
N   N23       1.0  0.47080  0.92750  0.68050  1.0000 -0.2356827642
N   N24       1.0  0.50300  0.45970  0.18050  1.0000 -0.2356827642
N   N25       1.0  0.56820  0.73330  0.75170  1.0000 -0.2970889037
N   N26       1.0  0.76840  0.43350  0.25170  1.0000 -0.2970889037
N   N27       1.0  0.53760  0.61060  0.61460  1.0000 -0.2214893282
N   N28       1.0  0.75400  0.32700  0.11460  1.0000 -0.2214893282
N   N29       1.0  0.57410  0.78670  0.97220  1.0000 -0.2970889037
N   N30       1.0  0.93550  0.64810  0.47220  1.0000 -0.2970889037
N   N31       1.0  0.54030  0.72080  0.04330  1.0000 -0.2356827642
N   N32       1.0  0.07250  0.75300  0.54330  1.0000 -0.2356827642
O   O1        1.0  0.38400  0.50830  0.70930  1.0000 -0.5447717096
O   O2        1.0  0.95100  0.57530  0.20930  1.0000 -0.5447717096
O   O3        1.0  0.33310  0.42290  0.75480  1.0000 -0.5626222874
O   O4        1.0  0.08190  0.67170  0.25480  1.0000 -0.5626222874
O   O5        1.0  0.19130  0.26390  0.52360  1.0000 -0.5808460648
O   O6        1.0  0.00970  0.58230  0.02360  1.0000 -0.5808460648
O   O7        1.0  0.10280  0.28580  0.58540  1.0000 -0.5665479685
O   O8        1.0  0.04960  0.73260  0.08540  1.0000 -0.5665479685
O   O9        1.0  0.25830  0.04900  0.62430  1.0000 -0.5447717096
O   O10       1.0  0.32530  0.61600  0.12430  1.0000 -0.5447717096
O   O11       1.0  0.17290  0.91810  0.58980  1.0000 -0.5626222874
O   O12       1.0  0.42170  0.66690  0.08980  1.0000 -0.5626222874
O   O13       1.0  0.01390  0.99030  0.57260  1.0000 -0.5808460648
O   O14       1.0  0.33230  0.80870  0.07260  1.0000 -0.5808460648
O   O15       1.0  0.03580  0.95040  0.68300  1.0000 -0.5665479685
O   O16       1.0  0.48260  0.89720  0.18300  1.0000 -0.5665479685
O   O17       1.0  0.42470  0.63400  0.37570  1.0000 -0.5447717096
O   O18       1.0  0.49170  0.20100  0.87570  1.0000 -0.5447717096
O   O19       1.0  0.32830  0.58310  0.41020  1.0000 -0.5626222874
O   O20       1.0  0.57710  0.33190  0.91020  1.0000 -0.5626222874
O   O21       1.0  0.41770  0.44130  0.42740  1.0000 -0.5808460648
O   O22       1.0  0.73610  0.25970  0.92740  1.0000 -0.5808460648
O   O23       1.0  0.26740  0.35280  0.31700  1.0000 -0.5665479685
O   O24       1.0  0.71420  0.29960  0.81700  1.0000 -0.5665479685
O   O25       1.0  0.79900  0.67470  0.29070  1.0000 -0.5447717096
O   O26       1.0  0.36600  0.74170  0.79070  1.0000 -0.5450335528
O   O27       1.0  0.66810  0.57830  0.24520  1.0000 -0.5626222874
O   O28       1.0  0.41690  0.82710  0.74520  1.0000 -0.5626222874
O   O29       1.0  0.74030  0.66770  0.47640  1.0000 -0.5808460648
O   O30       1.0  0.55870  0.98610  0.97640  1.0000 -0.5808460648
O   O31       1.0  0.70040  0.51740  0.41460  1.0000 -0.5665479685
O   O32       1.0  0.64720  0.96420  0.91460  1.0000 -0.5665479685
