# DDEC6 charges by PACMAN v1.1 (https://github.com/mtap-research/PACMAN-charge/)
data_2006[Co][dia]3[FSR]1
_chemical_formula_sum              "Co36 H72 C72 O144"
_cell_length_a       15.205
_cell_length_b       18.005
_cell_length_c       21.5
_cell_angle_alpha    108.79
_cell_angle_beta     84.47
_cell_angle_gamma    112.85

_symmetry_space_group_name_H-M    "P 1"
_symmetry_Int_Tables_number       1

loop_
  _symmetry_equiv_pos_as_xyz
  'x, y, z'

loop_
  _atom_site_type_symbol
  _atom_site_label
  _atom_site_symmetry_multiplicity
  _atom_site_fract_x
  _atom_site_fract_y
  _atom_site_fract_z
  _atom_site_occupancy
  _atom_site_charge
Co  Co1       1.0  0.52463  0.36423  0.73048  1.0000 0.9697069878
Co  Co2       1.0  0.47537  0.63577  0.26952  1.0000 0.9697069878
Co  Co3       1.0  0.23781  0.65095  0.51690  1.0000 0.9567367886
Co  Co4       1.0  0.76219  0.34905  0.48310  1.0000 0.9567367886
Co  Co5       1.0  0.14182  0.96883  0.60305  1.0000 0.978829578
Co  Co6       1.0  0.85818  0.03117  0.39695  1.0000 0.978829578
Co  Co7       1.0  0.21963  0.82483  0.52077  1.0000 0.9567367886
Co  Co8       1.0  0.78037  0.17517  0.47923  1.0000 0.9567367886
Co  Co9       1.0  0.63672  0.40740  0.60374  1.0000 0.9524280966
Co  Co10      1.0  0.36328  0.59260  0.39626  1.0000 0.9524280966
Co  Co11      1.0  0.90477  0.98421  0.85030  1.0000 0.978829578
Co  Co12      1.0  0.09523  0.01579  0.14970  1.0000 0.978829578
Co  Co13      1.0  0.69684  0.25971  0.06311  1.0000 0.9567367886
Co  Co14      1.0  0.30316  0.74029  0.93689  1.0000 0.9524280966
Co  Co15      1.0  0.80882  0.30223  0.93635  1.0000 0.9524280966
Co  Co16      1.0  0.19118  0.69777  0.06365  1.0000 0.9524280966
Co  Co17      1.0  0.44693  0.50913  0.81228  1.0000 0.9567367886
Co  Co18      1.0  0.55307  0.49087  0.18772  1.0000 0.9567367886
Co  Co19      1.0  0.88610  0.15775  0.85437  1.0000 0.9567367886
Co  Co20      1.0  0.11390  0.84225  0.14563  1.0000 0.9567367886
Co  Co21      1.0  0.02982  0.92636  0.72977  1.0000 0.9697069878
Co  Co22      1.0  0.97018  0.07364  0.27023  1.0000 0.9697069878
Co  Co23      1.0  0.57117  0.31752  0.18358  1.0000 0.9524280966
Co  Co24      1.0  0.42883  0.68248  0.81642  1.0000 0.9524280966
Co  Co25      1.0  0.00000  0.00000  0.00000  1.0000 1.0102058802
Co  Co26      1.0  0.00000  0.50000  0.00000  1.0000 1.0102058802
Co  Co27      1.0  0.00000  0.00000  0.50000  1.0000 0.9901864185
Co  Co28      1.0  0.00000  0.50000  0.50000  1.0000 0.9901864185
Co  Co29      1.0  0.33370  0.66667  0.66667  1.0000 1.0102058802
Co  Co30      1.0  0.66630  0.33333  0.33333  1.0000 1.0102058802
Co  Co31      1.0  0.33350  0.16660  0.66690  1.0000 0.9901864185
Co  Co32      1.0  0.66650  0.83340  0.33310  1.0000 0.9901864185
Co  Co33      1.0  0.66667  0.33337  0.83316  1.0000 0.9901864185
Co  Co34      1.0  0.33333  0.66667  0.16684  1.0000 0.9901864185
Co  Co35      1.0  0.66640  0.83332  0.83342  1.0000 0.9697069878
Co  Co36      1.0  0.33360  0.16668  0.16658  1.0000 0.9697069878
H   H1        1.0  0.78970  0.38890  0.67740  1.0000 0.0993905673
H   H2        1.0  0.21030  0.61110  0.32260  1.0000 0.0993905673
H   H3        1.0  0.58380  0.44860  0.91780  1.0000 0.0993905673
H   H4        1.0  0.41620  0.55140  0.08220  1.0000 0.0993905673
H   H5        1.0  0.74840  0.21690  0.75070  1.0000 0.1193429348
H   H6        1.0  0.25160  0.78310  0.24930  1.0000 0.1193429348
H   H7        1.0  0.60830  0.64920  0.90750  1.0000 0.1094102015
H   H8        1.0  0.39170  0.35080  0.09250  1.0000 0.1193429348
H   H9        1.0  0.18370  0.19880  0.62080  1.0000 0.0993905673
H   H10       1.0  0.81630  0.80120  0.37920  1.0000 0.0993905673
H   H11       1.0  0.42390  0.31420  0.55710  1.0000 0.0993905673
H   H12       1.0  0.57610  0.68580  0.44290  1.0000 0.0993905673
H   H13       1.0  0.35420  0.46280  0.67660  1.0000 0.1094102015
H   H14       1.0  0.64580  0.53720  0.32340  1.0000 0.1094102015
H   H15       1.0  0.71440  0.00820  0.75920  1.0000 0.1311905239
H   H16       1.0  0.28560  0.99180  0.24080  1.0000 0.1311905239
H   H17       1.0  0.93500  0.68260  0.11430  1.0000 0.1193429348
H   H18       1.0  0.06500  0.31740  0.88570  1.0000 0.1193429348
H   H19       1.0  0.48530  0.13730  0.71820  1.0000 0.1311905239
H   H20       1.0  0.51470  0.86270  0.28180  1.0000 0.1311905239
H   H21       1.0  0.54420  0.27270  0.98630  1.0000 0.1094102015
H   H22       1.0  0.45580  0.72730  0.01370  1.0000 0.1094102015
H   H23       1.0  0.84230  0.53450  0.96280  1.0000 0.0926854796
H   H24       1.0  0.15770  0.46550  0.03720  1.0000 0.0926854796
H   H25       1.0  0.31380  0.87030  0.65890  1.0000 0.1193429348
H   H26       1.0  0.68620  0.12970  0.34110  1.0000 0.1193429348
H   H27       1.0  0.60940  0.76750  0.69730  1.0000 0.1094102015
H   H28       1.0  0.39060  0.23250  0.30270  1.0000 0.1094102015
H   H29       1.0  0.75460  0.44790  0.07930  1.0000 0.1094102015
H   H30       1.0  0.24540  0.55210  0.92070  1.0000 0.1094102015
H   H31       1.0  0.40060  0.98830  0.53900  1.0000 0.0993905673
H   H32       1.0  0.59940  0.01170  0.46100  1.0000 0.0926854796
H   H33       1.0  0.83870  0.76540  0.70670  1.0000 0.1094102015
H   H34       1.0  0.16130  0.23460  0.29330  1.0000 0.1094102015
H   H35       1.0  0.24740  0.03080  0.78070  1.0000 0.1193429348
H   H36       1.0  0.75260  0.96920  0.21930  1.0000 0.1193429348
H   H37       1.0  0.71690  0.06260  0.93260  1.0000 0.0926854796
H   H38       1.0  0.28310  0.93740  0.06740  1.0000 0.0926854796
H   H39       1.0  0.72260  0.89380  0.97170  1.0000 0.0926854796
H   H40       1.0  0.27740  0.10620  0.02830  1.0000 0.0926854796
H   H41       1.0  0.61190  0.60010  0.73160  1.0000 0.1193429348
H   H42       1.0  0.38810  0.39990  0.26840  1.0000 0.1193429348
H   H43       1.0  0.05690  0.56330  0.64010  1.0000 0.0926854796
H   H44       1.0  0.94310  0.43670  0.35990  1.0000 0.0926854796
H   H45       1.0  0.17700  0.43430  0.37890  1.0000 0.1193429348
H   H46       1.0  0.82300  0.56570  0.62110  1.0000 0.1193429348
H   H47       1.0  0.08750  0.11860  0.75050  1.0000 0.1193429348
H   H48       1.0  0.91250  0.88140  0.24950  1.0000 0.1193429348
H   H49       1.0  0.49630  0.90220  0.95740  1.0000 0.1094102015
H   H50       1.0  0.50370  0.09780  0.04260  1.0000 0.1193429348
H   H51       1.0  0.04750  0.73020  0.59680  1.0000 0.1094102015
H   H52       1.0  0.95250  0.26980  0.40320  1.0000 0.1094102015
H   H53       1.0  0.90570  0.35470  0.11170  1.0000 0.0926854796
H   H54       1.0  0.09430  0.64530  0.88830  1.0000 0.0926854796
H   H55       1.0  0.26230  0.34050  0.78310  1.0000 0.1094102015
H   H56       1.0  0.73770  0.65950  0.21690  1.0000 0.1094102015
H   H57       1.0  0.43290  0.78930  0.42100  1.0000 0.0993905673
H   H58       1.0  0.56710  0.21070  0.57900  1.0000 0.0926854796
H   H59       1.0  0.02130  0.79490  0.00850  1.0000 0.0926854796
H   H60       1.0  0.97870  0.20510  0.99150  1.0000 0.0926854796
H   H61       1.0  0.11090  0.93470  0.89730  1.0000 0.0993905673
H   H62       1.0  0.88910  0.06530  0.10270  1.0000 0.0993905673
H   H63       1.0  0.22650  0.73920  0.77180  1.0000 0.1094102015
H   H64       1.0  0.77350  0.26080  0.22820  1.0000 0.1094102015
H   H65       1.0  0.43520  0.58970  0.55980  1.0000 0.1193429348
H   H66       1.0  0.56480  0.41030  0.44020  1.0000 0.1193429348
H   H67       1.0  0.07340  0.87850  0.41810  1.0000 0.0993905673
H   H68       1.0  0.92660  0.12150  0.58190  1.0000 0.0993905673
H   H69       1.0  0.04730  0.68520  0.43050  1.0000 0.0926854796
H   H70       1.0  0.95270  0.31480  0.56950  1.0000 0.0926854796
H   H71       1.0  0.88070  0.94800  0.65430  1.0000 0.1193429348
H   H72       1.0  0.11930  0.05200  0.34570  1.0000 0.1193429348
C   C1        1.0  0.73890  0.38060  0.70560  1.0000 0.4706631456
C   C2        1.0  0.26110  0.61940  0.29440  1.0000 0.4706631456
C   C3        1.0  0.55800  0.44480  0.87890  1.0000 0.4984268487
C   C4        1.0  0.44200  0.55520  0.12110  1.0000 0.4984268487
C   C5        1.0  0.77470  0.22120  0.78960  1.0000 0.4904129029
C   C6        1.0  0.22530  0.77880  0.21040  1.0000 0.4904129029
C   C7        1.0  0.59290  0.67820  0.88420  1.0000 0.4706631456
C   C8        1.0  0.40710  0.32180  0.11580  1.0000 0.4706631456
C   C9        1.0  0.15450  0.14010  0.60420  1.0000 0.4984268487
C   C10       1.0  0.84550  0.85990  0.39580  1.0000 0.4984268487
C   C11       1.0  0.42540  0.29960  0.59470  1.0000 0.4801685584
C   C12       1.0  0.57460  0.70040  0.40530  1.0000 0.4801685584
C   C13       1.0  0.36100  0.51920  0.69440  1.0000 0.4706631456
C   C14       1.0  0.63900  0.48080  0.30560  1.0000 0.4706631456
C   C15       1.0  0.73410  0.98150  0.78250  1.0000 0.4528537745
C   C16       1.0  0.26590  0.01850  0.21750  1.0000 0.4616585064
C   C17       1.0  0.97980  0.65970  0.09470  1.0000 0.4616585064
C   C18       1.0  0.02020  0.34030  0.90530  1.0000 0.4616585064
C   C19       1.0  0.51650  0.19600  0.73160  1.0000 0.4706631456
C   C20       1.0  0.48350  0.80400  0.26840  1.0000 0.4706631456
C   C21       1.0  0.59630  0.28500  0.95960  1.0000 0.4706631456
C   C22       1.0  0.40370  0.71500  0.04040  1.0000 0.4706631456
C   C23       1.0  0.81890  0.47640  0.94150  1.0000 0.4984268487
C   C24       1.0  0.18110  0.52360  0.05850  1.0000 0.4984268487
C   C25       1.0  0.30680  0.81380  0.64090  1.0000 0.4706631456
C   C26       1.0  0.69320  0.18620  0.35910  1.0000 0.4706631456
C   C27       1.0  0.54850  0.74400  0.71230  1.0000 0.4904129029
C   C28       1.0  0.45150  0.25600  0.28770  1.0000 0.4904129029
C   C29       1.0  0.70620  0.43830  0.10920  1.0000 0.4706631456
C   C30       1.0  0.29380  0.56170  0.89080  1.0000 0.4706631456
C   C31       1.0  0.35930  0.00960  0.56670  1.0000 0.4801685584
C   C32       1.0  0.64070  0.99040  0.43330  1.0000 0.4801685584
C   C33       1.0  0.82510  0.80320  0.74360  1.0000 0.4706631456
C   C34       1.0  0.17490  0.19680  0.25640  1.0000 0.4706631456
C   C35       1.0  0.24520  0.03900  0.74040  1.0000 0.4616585064
C   C36       1.0  0.75480  0.96100  0.25960  1.0000 0.4616585064
C   C37       1.0  0.72630  0.11950  0.95120  1.0000 0.4801685584
C   C38       1.0  0.27370  0.88050  0.04880  1.0000 0.4801685584
C   C39       1.0  0.78290  0.92040  0.95740  1.0000 0.4984268487
C   C40       1.0  0.21710  0.07960  0.04260  1.0000 0.4984268487
C   C41       1.0  0.60490  0.54350  0.71420  1.0000 0.4706631456
C   C42       1.0  0.39510  0.45650  0.28580  1.0000 0.4706631456
C   C43       1.0  0.11730  0.58760  0.62480  1.0000 0.4984268487
C   C44       1.0  0.88270  0.41240  0.37520  1.0000 0.4984268487
C   C45       1.0  0.16150  0.47320  0.41380  1.0000 0.4706631456
C   C46       1.0  0.83850  0.52680  0.58620  1.0000 0.4706631456
C   C47       1.0  0.03760  0.10760  0.77910  1.0000 0.4706631456
C   C48       1.0  0.96240  0.89240  0.22090  1.0000 0.4706631456
C   C49       1.0  0.51010  0.86360  0.92130  1.0000 0.4616585064
C   C50       1.0  0.48990  0.13640  0.07870  1.0000 0.4616585064
C   C51       1.0  0.05880  0.78740  0.61650  1.0000 0.4904129029
C   C52       1.0  0.94120  0.21260  0.38350  1.0000 0.4801685584
C   C53       1.0  0.90490  0.36670  0.07280  1.0000 0.4801685584
C   C54       1.0  0.09510  0.63330  0.92720  1.0000 0.4801685584
C   C55       1.0  0.30860  0.32030  0.76210  1.0000 0.4616585064
C   C56       1.0  0.69140  0.67970  0.23790  1.0000 0.4616585064
C   C57       1.0  0.37800  0.77610  0.44520  1.0000 0.4801685584
C   C58       1.0  0.62200  0.22390  0.55480  1.0000 0.4801685584
C   C59       1.0  0.02750  0.85120  0.02650  1.0000 0.4706631456
C   C60       1.0  0.97250  0.14880  0.97350  1.0000 0.4706631456
C   C61       1.0  0.07060  0.93780  0.86910  1.0000 0.4984268487
C   C62       1.0  0.92940  0.06220  0.13090  1.0000 0.4984268487
C   C63       1.0  0.26480  0.73210  0.79900  1.0000 0.4904129029
C   C64       1.0  0.73520  0.26790  0.20100  1.0000 0.4904129029
C   C65       1.0  0.39970  0.60000  0.53300  1.0000 0.4904129029
C   C66       1.0  0.60030  0.40000  0.46700  1.0000 0.4904129029
C   C67       1.0  0.10540  0.88710  0.45610  1.0000 0.4984268487
C   C68       1.0  0.89460  0.11290  0.54390  1.0000 0.4984268487
C   C69       1.0  0.06730  0.65460  0.44960  1.0000 0.4706631456
C   C70       1.0  0.93270  0.34540  0.55040  1.0000 0.4706631456
C   C71       1.0  0.93020  0.95400  0.62500  1.0000 0.4528537745
C   C72       1.0  0.06980  0.04600  0.37500  1.0000 0.4528537745
O   O1        1.0  0.01330  0.57970  0.44500  1.0000 -0.5183063195
O   O2        1.0  0.98670  0.42030  0.55500  1.0000 -0.5183063195
O   O3        1.0  0.31140  0.09330  0.72840  1.0000 -0.4725231127
O   O4        1.0  0.68860  0.90670  0.27160  1.0000 -0.4725231127
O   O5        1.0  0.35440  0.23760  0.60200  1.0000 -0.5183063195
O   O6        1.0  0.64560  0.76240  0.39800  1.0000 -0.5183063195
O   O7        1.0  0.33050  0.54810  0.65970  1.0000 -0.4991826262
O   O8        1.0  0.66950  0.45190  0.34030  1.0000 -0.4991826262
O   O9        1.0  0.99700  0.88190  0.99400  1.0000 -0.4991826262
O   O10       1.0  0.00300  0.11810  0.00600  1.0000 -0.4991826262
O   O11       1.0  0.67920  0.91270  0.77910  1.0000 -0.4725231127
O   O12       1.0  0.32080  0.08730  0.22090  1.0000 -0.4725231127
O   O13       1.0  0.33690  0.78550  0.67550  1.0000 -0.4884456839
O   O14       1.0  0.66310  0.21450  0.32450  1.0000 -0.4884456839
O   O15       1.0  0.65240  0.75110  0.88830  1.0000 -0.5121103558
O   O16       1.0  0.34760  0.24890  0.11170  1.0000 -0.5121103558
O   O17       1.0  0.94850  0.57990  0.07030  1.0000 -0.5183063195
O   O18       1.0  0.05150  0.42010  0.92970  1.0000 -0.5183063195
O   O19       1.0  0.97600  0.42780  0.06190  1.0000 -0.5183063195
O   O20       1.0  0.02400  0.57220  0.93810  1.0000 -0.5183063195
O   O21       1.0  0.38890  0.08640  0.59680  1.0000 -0.5121103558
O   O22       1.0  0.61110  0.91360  0.40320  1.0000 -0.5121103558
O   O23       1.0  0.74990  0.37040  0.75770  1.0000 -0.4991826262
O   O24       1.0  0.25010  0.62960  0.24230  1.0000 -0.4991826262
O   O25       1.0  0.91300  0.96290  0.57510  1.0000 -0.4629591773
O   O26       1.0  0.08700  0.03710  0.42490  1.0000 -0.4629591773
O   O27       1.0  0.74940  0.77670  0.76710  1.0000 -0.4816403533
O   O28       1.0  0.25060  0.22330  0.23290  1.0000 -0.4816403533
O   O29       1.0  0.58210  0.29810  0.90820  1.0000 -0.5121103558
O   O30       1.0  0.41790  0.70190  0.09180  1.0000 -0.5121103558
O   O31       1.0  0.28110  0.24480  0.73780  1.0000 -0.4884456839
O   O32       1.0  0.71890  0.75520  0.26220  1.0000 -0.4884456839
O   O33       1.0  0.08280  0.44460  0.43500  1.0000 -0.4884456839
O   O34       1.0  0.91720  0.55540  0.56500  1.0000 -0.4884456839
O   O35       1.0  0.34620  0.70480  0.45620  1.0000 -0.5806884082
O   O36       1.0  0.65380  0.29520  0.54380  1.0000 -0.5806884082
O   O37       1.0  0.58560  0.88880  0.89870  1.0000 -0.4725231127
O   O38       1.0  0.41440  0.11120  0.10130  1.0000 -0.4725231127
O   O39       1.0  0.67150  0.49620  0.13350  1.0000 -0.5183063195
O   O40       1.0  0.32850  0.50380  0.86650  1.0000 -0.5183063195
O   O41       1.0  0.85190  0.95370  0.99740  1.0000 -0.5277831774
O   O42       1.0  0.14810  0.04630  0.00260  1.0000 -0.5277831774
O   O43       1.0  0.89040  0.87850  0.76370  1.0000 -0.5806884082
O   O44       1.0  0.10960  0.12150  0.23630  1.0000 -0.5806884082
O   O45       1.0  0.33850  0.83080  0.46570  1.0000 -0.5277831774
O   O46       1.0  0.66150  0.16920  0.53430  1.0000 -0.5277831774
O   O47       1.0  0.74910  0.44630  0.90200  1.0000 -0.5277831774
O   O48       1.0  0.25090  0.55370  0.09800  1.0000 -0.5277831774
O   O49       1.0  0.68970  0.14200  0.00680  1.0000 -0.5277831774
O   O50       1.0  0.31030  0.85800  0.99320  1.0000 -0.5277831774
O   O51       1.0  0.58650  0.21960  0.76310  1.0000 -0.4629591773
O   O52       1.0  0.41350  0.78040  0.23690  1.0000 -0.4629591773
O   O53       1.0  0.01500  0.03780  0.79060  1.0000 -0.5684290547
O   O54       1.0  0.98500  0.96220  0.20940  1.0000 -0.5684290547
O   O55       1.0  0.24840  0.75160  0.85800  1.0000 -0.4884456839
O   O56       1.0  0.75160  0.24840  0.14200  1.0000 -0.4884456839
O   O57       1.0  0.08100  0.11100  0.56780  1.0000 -0.5378429587
O   O58       1.0  0.91900  0.88900  0.43220  1.0000 -0.5378429587
O   O59       1.0  0.68060  0.37080  0.12220  1.0000 -0.5494845654
O   O60       1.0  0.31940  0.62920  0.87780  1.0000 -0.5494845654
O   O61       1.0  0.51130  0.49010  0.88240  1.0000 -0.5183063195
O   O62       1.0  0.48870  0.50990  0.11760  1.0000 -0.5183063195
O   O63       1.0  0.02140  0.80720  0.67080  1.0000 -0.5121103558
O   O64       1.0  0.97860  0.19280  0.32920  1.0000 -0.5121103558
O   O65       1.0  0.00420  0.16350  0.79960  1.0000 -0.4991826262
O   O66       1.0  0.99580  0.83650  0.20040  1.0000 -0.4991826262
O   O67       1.0  0.18570  0.62010  0.66400  1.0000 -0.5121103558
O   O68       1.0  0.81430  0.37990  0.33600  1.0000 -0.5121103558
O   O69       1.0  0.16940  0.98920  0.70310  1.0000 -0.5893687527
O   O70       1.0  0.83060  0.01080  0.29690  1.0000 -0.5893687527
O   O71       1.0  0.48170  0.71260  0.67060  1.0000 -0.5121103558
O   O72       1.0  0.51830  0.28740  0.32940  1.0000 -0.5121103558
O   O73       1.0  0.83380  0.32170  0.03410  1.0000 -0.5684290547
O   O74       1.0  0.16620  0.67830  0.96590  1.0000 -0.5684290547
O   O75       1.0  0.49880  0.34470  0.63260  1.0000 -0.5806884082
O   O76       1.0  0.50120  0.65530  0.36740  1.0000 -0.5806884082
O   O77       1.0  0.22530  0.54600  0.43070  1.0000 -0.5597599064
O   O78       1.0  0.77470  0.45400  0.56930  1.0000 -0.5597599064
O   O79       1.0  0.41780  0.58260  0.47530  1.0000 -0.4816403533
O   O80       1.0  0.58220  0.41740  0.52470  1.0000 -0.4816403533
O   O81       1.0  0.82030  0.17740  0.78530  1.0000 -0.4816403533
O   O82       1.0  0.17970  0.82260  0.21470  1.0000 -0.4816403533
O   O83       1.0  0.44340  0.78740  0.90150  1.0000 -0.5893687527
O   O84       1.0  0.55660  0.21260  0.09850  1.0000 -0.5893687527
O   O85       1.0  0.08510  0.91600  0.80950  1.0000 -0.4991826262
O   O86       1.0  0.91490  0.08400  0.19050  1.0000 -0.4991826262
O   O87       1.0  0.15500  0.84400  0.45190  1.0000 -0.5121103558
O   O88       1.0  0.84500  0.15600  0.54810  1.0000 -0.5121103558
O   O89       1.0  0.09520  0.94180  0.50850  1.0000 -0.5597599064
O   O90       1.0  0.90480  0.05820  0.49150  1.0000 -0.5597599064
O   O91       1.0  0.64310  0.52410  0.66200  1.0000 -0.4884456839
O   O92       1.0  0.35690  0.47590  0.33800  1.0000 -0.4884456839
O   O93       1.0  0.79050  0.92080  0.89680  1.0000 -0.5806884082
O   O94       1.0  0.20950  0.07920  0.10320  1.0000 -0.5806884082
O   O95       1.0  0.14800  0.69020  0.47940  1.0000 -0.5684290547
O   O96       1.0  0.85200  0.30980  0.52060  1.0000 -0.5684290547
O   O97       1.0  0.75940  0.27230  0.84190  1.0000 -0.5597599064
O   O98       1.0  0.24060  0.72770  0.15810  1.0000 -0.5597599064
O   O99       1.0  0.67120  0.28660  0.97890  1.0000 -0.5494845654
O   O100      1.0  0.32880  0.71340  0.02110  1.0000 -0.5494845654
O   O101      1.0  0.57250  0.39410  0.82600  1.0000 -0.5597599064
O   O102      1.0  0.42750  0.60590  0.17400  1.0000 -0.5597599064
O   O103      1.0  0.11040  0.83780  0.58620  1.0000 -0.5684290547
O   O104      1.0  0.88960  0.16220  0.41380  1.0000 -0.5684290547
O   O105      1.0  0.06840  0.89360  0.08540  1.0000 -0.5978467311
O   O106      1.0  0.93160  0.10640  0.91460  1.0000 -0.5978467311
O   O107      1.0  0.00740  0.95150  0.64460  1.0000 -0.5893687527
O   O108      1.0  0.99260  0.04850  0.35540  1.0000 -0.5893687527
O   O109      1.0  0.39350  0.37830  0.76370  1.0000 -0.5806884082
O   O110      1.0  0.60650  0.62170  0.23630  1.0000 -0.5806884082
O   O111      1.0  0.26760  0.77650  0.58410  1.0000 -0.5684290547
O   O112      1.0  0.73240  0.22350  0.41590  1.0000 -0.5597599064
O   O113      1.0  0.32860  0.70290  0.77010  1.0000 -0.5684290547
O   O114      1.0  0.67140  0.29710  0.22990  1.0000 -0.5684290547
O   O115      1.0  0.65960  0.38040  0.68820  1.0000 -0.5893687527
O   O116      1.0  0.34040  0.61960  0.31180  1.0000 -0.5893687527
O   O117      1.0  0.19320  0.09730  0.62090  1.0000 -0.5684290547
O   O118      1.0  0.80680  0.90270  0.37910  1.0000 -0.5684290547
O   O119      1.0  0.51680  0.64090  0.85310  1.0000 -0.5378429587
O   O120      1.0  0.48320  0.35910  0.14690  1.0000 -0.5378429587
O   O121      1.0  0.33830  0.63080  0.56220  1.0000 -0.5684290547
O   O122      1.0  0.66170  0.36920  0.43780  1.0000 -0.5597599064
O   O123      1.0  0.81620  0.02700  0.81250  1.0000 -0.5806884082
O   O124      1.0  0.18380  0.97300  0.18750  1.0000 -0.5806884082
O   O125      1.0  0.12300  0.58480  0.56410  1.0000 -0.5806884082
O   O126      1.0  0.87700  0.41520  0.43590  1.0000 -0.5806884082
O   O127      1.0  0.86060  0.43300  0.95470  1.0000 -0.5806884082
O   O128      1.0  0.13940  0.56700  0.04530  1.0000 -0.5806884082
O   O129      1.0  0.54430  0.74800  0.77180  1.0000 -0.5597599064
O   O130      1.0  0.45570  0.25200  0.22820  1.0000 -0.5597599064
O   O131      1.0  0.27470  0.95770  0.57170  1.0000 -0.5684290547
O   O132      1.0  0.72530  0.04230  0.42830  1.0000 -0.5684290547
O   O133      1.0  0.55770  0.49560  0.74670  1.0000 -0.5494845654
O   O134      1.0  0.44230  0.50440  0.25330  1.0000 -0.5494845654
O   O135      1.0  0.00390  0.96420  0.89500  1.0000 -0.5684290547
O   O136      1.0  0.99610  0.03580  0.10500  1.0000 -0.5597599064
O   O137      1.0  0.47270  0.23380  0.71130  1.0000 -0.5806884082
O   O138      1.0  0.52730  0.76620  0.28870  1.0000 -0.5806884082
O   O139      1.0  0.05910  0.70880  0.09570  1.0000 -0.5121103558
O   O140      1.0  0.94090  0.29120  0.90430  1.0000 -0.5121103558
O   O141      1.0  0.40040  0.55790  0.75110  1.0000 -0.5684290547
O   O142      1.0  0.59960  0.44210  0.24890  1.0000 -0.5684290547
O   O143      1.0  0.77610  0.17180  0.91900  1.0000 -0.5978467311
O   O144      1.0  0.22390  0.82820  0.08100  1.0000 -0.5978467311
