# DDEC6 charges by PACMAN v1.1 (https://github.com/mtap-research/PACMAN-charge/)
data_2006[Zn][dia]3[FSR]9
_chemical_formula_sum              "Zn12 H24 C24 O48"
_cell_length_a       11.2151
_cell_length_b       9.6682
_cell_length_c       18.085
_cell_angle_alpha    90
_cell_angle_beta     127.056
_cell_angle_gamma    90

_symmetry_space_group_name_H-M    "P 1"
_symmetry_Int_Tables_number       1

loop_
  _symmetry_equiv_pos_as_xyz
  'x, y, z'

loop_
  _atom_site_type_symbol
  _atom_site_label
  _atom_site_symmetry_multiplicity
  _atom_site_fract_x
  _atom_site_fract_y
  _atom_site_fract_z
  _atom_site_occupancy
  _atom_site_charge
Zn  Zn1       1.0  0.62559  0.91715  0.86901  1.0000 0.9510837448
Zn  Zn2       1.0  0.37441  0.41715  0.63099  1.0000 0.9510837448
Zn  Zn3       1.0  0.37441  0.08285  0.13099  1.0000 0.9510837448
Zn  Zn4       1.0  0.62559  0.58285  0.36901  1.0000 0.9510837448
Zn  Zn5       1.0  0.42392  0.09961  0.68459  1.0000 0.9308973255
Zn  Zn6       1.0  0.57608  0.59961  0.81541  1.0000 0.9308973255
Zn  Zn7       1.0  0.57608  0.90039  0.31541  1.0000 0.9308973255
Zn  Zn8       1.0  0.42392  0.40039  0.18459  1.0000 0.9308973255
Zn  Zn9       1.0  0.50000  0.00000  0.00000  1.0000 0.9554993959
Zn  Zn10      1.0  0.50000  0.50000  0.50000  1.0000 0.9554993959
Zn  Zn11      1.0  0.00000  0.00000  0.00000  1.0000 0.9510837448
Zn  Zn12      1.0  0.00000  0.50000  0.50000  1.0000 0.9510837448
H   H1        1.0  0.50310  0.74370  0.63580  1.0000 0.0835338778
H   H2        1.0  0.49690  0.24370  0.86420  1.0000 0.0835338778
H   H3        1.0  0.49690  0.25630  0.36420  1.0000 0.0835338778
H   H4        1.0  0.50310  0.75630  0.13580  1.0000 0.0835338778
H   H5        1.0  0.20350  0.01940  0.73180  1.0000 0.0887957268
H   H6        1.0  0.79650  0.51940  0.76820  1.0000 0.0887957268
H   H7        1.0  0.79650  0.98060  0.26820  1.0000 0.0887957268
H   H8        1.0  0.20350  0.48060  0.23180  1.0000 0.0887957268
H   H9        1.0  0.52970  0.61060  0.96610  1.0000 0.0887957268
H   H10       1.0  0.47030  0.11060  0.53390  1.0000 0.0887957268
H   H11       1.0  0.47030  0.38940  0.03390  1.0000 0.0887957268
H   H12       1.0  0.52970  0.88940  0.46610  1.0000 0.0887957268
H   H13       1.0  0.74740  0.18420  0.76270  1.0000 0.0887957268
H   H14       1.0  0.25260  0.68420  0.73730  1.0000 0.0887957268
H   H15       1.0  0.25260  0.81580  0.23730  1.0000 0.0887957268
H   H16       1.0  0.74740  0.31580  0.26270  1.0000 0.0887957268
H   H17       1.0  0.75800  0.18080  0.06140  1.0000 0.0835338778
H   H18       1.0  0.24200  0.68080  0.43860  1.0000 0.0835338778
H   H19       1.0  0.24200  0.81920  0.93860  1.0000 0.0835338778
H   H20       1.0  0.75800  0.31920  0.56140  1.0000 0.0835338778
H   H21       1.0  0.98800  0.69650  0.99410  1.0000 0.0887957268
H   H22       1.0  0.01200  0.19650  0.50590  1.0000 0.0887957268
H   H23       1.0  0.01200  0.30350  0.00590  1.0000 0.0887957268
H   H24       1.0  0.98800  0.80350  0.49410  1.0000 0.0887957268
C   C1        1.0  0.50770  0.81770  0.67200  1.0000 0.4901057061
C   C2        1.0  0.49230  0.31770  0.82800  1.0000 0.4901057061
C   C3        1.0  0.49230  0.18230  0.32800  1.0000 0.4901057061
C   C4        1.0  0.50770  0.68230  0.17200  1.0000 0.4901057061
C   C5        1.0  0.30120  0.00230  0.78660  1.0000 0.4707497137
C   C6        1.0  0.69880  0.50230  0.71340  1.0000 0.4707497137
C   C7        1.0  0.69880  0.99770  0.21340  1.0000 0.4707497137
C   C8        1.0  0.30120  0.49770  0.28660  1.0000 0.4707497137
C   C9        1.0  0.53510  0.70620  0.95640  1.0000 0.4707497137
C   C10       1.0  0.46490  0.20620  0.54360  1.0000 0.4707497137
C   C11       1.0  0.46490  0.29380  0.04360  1.0000 0.4707497137
C   C12       1.0  0.53510  0.79380  0.45640  1.0000 0.4707497137
C   C13       1.0  0.76720  0.12590  0.81120  1.0000 0.4707497137
C   C14       1.0  0.23280  0.62590  0.68880  1.0000 0.4707497137
C   C15       1.0  0.23280  0.87410  0.18880  1.0000 0.4707497137
C   C16       1.0  0.76720  0.37410  0.31120  1.0000 0.4707497137
C   C17       1.0  0.76800  0.11550  0.02620  1.0000 0.4901057061
C   C18       1.0  0.23200  0.61550  0.47380  1.0000 0.4901057061
C   C19       1.0  0.23200  0.88450  0.97380  1.0000 0.4901057061
C   C20       1.0  0.76800  0.38450  0.52620  1.0000 0.4901057061
C   C21       1.0  0.88360  0.71310  0.95230  1.0000 0.4901057061
C   C22       1.0  0.11640  0.21310  0.54770  1.0000 0.4901057061
C   C23       1.0  0.11640  0.28690  0.04770  1.0000 0.4901057061
C   C24       1.0  0.88360  0.78690  0.45230  1.0000 0.4901057061
O   O1        1.0  0.57140  0.79270  0.75719  1.0000 -0.5416983712
O   O2        1.0  0.42860  0.29270  0.74281  1.0000 -0.5416983712
O   O3        1.0  0.42860  0.20730  0.24281  1.0000 -0.5416983712
O   O4        1.0  0.57140  0.70730  0.25719  1.0000 -0.5416983712
O   O5        1.0  0.45050  0.92950  0.63108  1.0000 -0.4979173167
O   O6        1.0  0.54950  0.42950  0.86892  1.0000 -0.4979173167
O   O7        1.0  0.54950  0.07050  0.36892  1.0000 -0.4979173167
O   O8        1.0  0.45050  0.57050  0.13108  1.0000 -0.4979173167
O   O9        1.0  0.40580  0.99490  0.77808  1.0000 -0.5498507393
O   O10       1.0  0.59420  0.49490  0.72192  1.0000 -0.5498507393
O   O11       1.0  0.59420  0.00510  0.22192  1.0000 -0.5498507393
O   O12       1.0  0.40580  0.50510  0.27808  1.0000 -0.5498507393
O   O13       1.0  0.31410  0.98950  0.85904  1.0000 -0.4946948884
O   O14       1.0  0.68590  0.48950  0.64096  1.0000 -0.4946948884
O   O15       1.0  0.68590  0.01050  0.14096  1.0000 -0.4946948884
O   O16       1.0  0.31410  0.51050  0.35904  1.0000 -0.4946948884
O   O17       1.0  0.54450  0.73730  0.89157  1.0000 -0.5416983712
O   O18       1.0  0.45550  0.23730  0.60843  1.0000 -0.5416983712
O   O19       1.0  0.45550  0.26270  0.10843  1.0000 -0.5416983712
O   O20       1.0  0.54450  0.76270  0.39157  1.0000 -0.5416983712
O   O21       1.0  0.53230  0.78800  0.00781  1.0000 -0.4946948884
O   O22       1.0  0.46770  0.28800  0.49219  1.0000 -0.4946948884
O   O23       1.0  0.46770  0.21200  0.99219  1.0000 -0.4946948884
O   O24       1.0  0.53230  0.71200  0.50781  1.0000 -0.4946948884
O   O25       1.0  0.65340  0.07970  0.80407  1.0000 -0.5498507393
O   O26       1.0  0.34660  0.57970  0.69593  1.0000 -0.5498507393
O   O27       1.0  0.34660  0.92030  0.19593  1.0000 -0.5498507393
O   O28       1.0  0.65340  0.42030  0.30407  1.0000 -0.5498507393
O   O29       1.0  0.89920  0.10240  0.87445  1.0000 -0.4745389966
O   O30       1.0  0.10080  0.60240  0.62555  1.0000 -0.475141689
O   O31       1.0  0.10080  0.89760  0.12555  1.0000 -0.475141689
O   O32       1.0  0.89920  0.39760  0.37445  1.0000 -0.475141689
O   O33       1.0  0.65800  0.03080  0.97461  1.0000 -0.5571602282
O   O34       1.0  0.34200  0.53080  0.52539  1.0000 -0.5571602282
O   O35       1.0  0.34200  0.96920  0.02539  1.0000 -0.5571602282
O   O36       1.0  0.65800  0.46920  0.47461  1.0000 -0.5571602282
O   O37       1.0  0.88400  0.11870  0.03345  1.0000 -0.4979173167
O   O38       1.0  0.11600  0.61870  0.46655  1.0000 -0.4979173167
O   O39       1.0  0.11600  0.88130  0.96655  1.0000 -0.4979173167
O   O40       1.0  0.88400  0.38130  0.53345  1.0000 -0.4979173167
O   O41       1.0  0.84040  0.83910  0.94286  1.0000 -0.5416983712
O   O42       1.0  0.15960  0.33910  0.55714  1.0000 -0.5416983712
O   O43       1.0  0.15960  0.16090  0.05714  1.0000 -0.5416983712
O   O44       1.0  0.84040  0.66090  0.44286  1.0000 -0.5416983712
O   O45       1.0  0.80200  0.61110  0.91214  1.0000 -0.4979173167
O   O46       1.0  0.19800  0.11110  0.58786  1.0000 -0.4979173167
O   O47       1.0  0.19800  0.38890  0.08786  1.0000 -0.4979173167
O   O48       1.0  0.80200  0.88890  0.41214  1.0000 -0.4979173167
