# DDEC6 charges by PACMAN v1.1 (https://github.com/mtap-research/PACMAN-charge/)
data_2006[Ag][nan]3[FSR]2
_chemical_formula_sum              "Ag6 H18 C24 O12"
_cell_length_a       4.7143
_cell_length_b       11.7344
_cell_length_c       13.6823
_cell_angle_alpha    112.334
_cell_angle_beta     89.269
_cell_angle_gamma    97.904

_symmetry_space_group_name_H-M    "P 1"
_symmetry_Int_Tables_number       1

loop_
  _symmetry_equiv_pos_as_xyz
  'x, y, z'

loop_
  _atom_site_type_symbol
  _atom_site_label
  _atom_site_symmetry_multiplicity
  _atom_site_fract_x
  _atom_site_fract_y
  _atom_site_fract_z
  _atom_site_occupancy
  _atom_site_charge
Ag  Ag1       1.0  0.73020  0.04904  0.93577  1.0000 0.4170364256
Ag  Ag2       1.0  0.26980  0.95096  0.06423  1.0000 0.4170364256
Ag  Ag3       1.0  0.32599  0.87027  0.78231  1.0000 0.4566823061
Ag  Ag4       1.0  0.67401  0.12973  0.21769  1.0000 0.4566823061
Ag  Ag5       1.0  0.61378  0.57894  0.64701  1.0000 0.5606686885
Ag  Ag6       1.0  0.38622  0.42106  0.35299  1.0000 0.5606686885
H   H1        1.0  0.43860  0.47890  0.90690  1.0000 0.1298941339
H   H2        1.0  0.56140  0.52110  0.09310  1.0000 0.1298941339
H   H3        1.0  0.54990  0.20950  0.62520  1.0000 0.1358469839
H   H4        1.0  0.45010  0.79050  0.37480  1.0000 0.1358469839
H   H5        1.0  0.07190  0.53940  0.72160  1.0000 0.1298941339
H   H6        1.0  0.92810  0.46060  0.27840  1.0000 0.1298941339
H   H7        1.0  0.07220  0.67670  0.91300  1.0000 0.1626598055
H   H8        1.0  0.92780  0.32330  0.08700  1.0000 0.1626598055
H   H9        1.0  0.79810  0.66140  0.97910  1.0000 0.1495242144
H   H10       1.0  0.20190  0.33860  0.02090  1.0000 0.1495242144
H   H11       1.0  0.10420  0.19680  0.72040  1.0000 0.1495242144
H   H12       1.0  0.89580  0.80320  0.27960  1.0000 0.1495242144
H   H13       1.0  0.09220  0.29120  0.84030  1.0000 0.1495242144
H   H14       1.0  0.90780  0.70880  0.15970  1.0000 0.1495242144
H   H15       1.0  0.00710  0.22970  0.53850  1.0000 0.1495242144
H   H16       1.0  0.99290  0.77030  0.46150  1.0000 0.1495242144
H   H17       1.0  0.19160  0.36420  0.56960  1.0000 0.1495242144
H   H18       1.0  0.80840  0.63580  0.43040  1.0000 0.1495242144
C   C1        1.0  0.76970  0.52900  0.82780  1.0000 0.1900934393
C   C2        1.0  0.23030  0.47100  0.17220  1.0000 0.1900934393
C   C3        1.0  0.54100  0.45020  0.84390  1.0000 -0.2461434637
C   C4        1.0  0.45900  0.54980  0.15610  1.0000 -0.2461434637
C   C5        1.0  0.46000  0.33040  0.76960  1.0000 0.1900934393
C   C6        1.0  0.54000  0.66960  0.23040  1.0000 0.1900934393
C   C7        1.0  0.60690  0.29080  0.67670  1.0000 -0.2461434637
C   C8        1.0  0.39310  0.70920  0.32330  1.0000 -0.2461434637
C   C9        1.0  0.83410  0.36610  0.65690  1.0000 0.1778724457
C   C10       1.0  0.16590  0.63390  0.34310  1.0000 0.1778724457
C   C11       1.0  0.91610  0.48650  0.73360  1.0000 -0.2966352289
C   C12       1.0  0.08390  0.51350  0.26640  1.0000 -0.2966352289
C   C13       1.0  0.86030  0.65900  0.90900  1.0000 -0.4103577023
C   C14       1.0  0.13970  0.34100  0.09100  1.0000 -0.4103577023
C   C15       1.0  0.74160  0.76180  0.88720  1.0000 0.6309297795
C   C16       1.0  0.25840  0.23820  0.11280  1.0000 0.6309297795
C   C17       1.0  0.21910  0.24210  0.78740  1.0000 -0.3802468066
C   C18       1.0  0.78090  0.75790  0.21260  1.0000 -0.3802468066
C   C19       1.0  0.32110  0.14750  0.82560  1.0000 0.6309297795
C   C20       1.0  0.67890  0.85250  0.17440  1.0000 0.6309297795
C   C21       1.0  0.99380  0.31880  0.55620  1.0000 -0.3934508895
C   C22       1.0  0.00620  0.68120  0.44380  1.0000 -0.3934508895
C   C23       1.0  0.86260  0.33170  0.46090  1.0000 0.6309297795
C   C24       1.0  0.13740  0.66830  0.53910  1.0000 0.6309297795
O   O1        1.0  0.86460  0.87180  0.93680  1.0000 -0.536124218
O   O2        1.0  0.13540  0.12820  0.06320  1.0000 -0.536124218
O   O3        1.0  0.52970  0.73310  0.82430  1.0000 -0.5199525838
O   O4        1.0  0.47030  0.26690  0.17570  1.0000 -0.5199525838
O   O5        1.0  0.55190  0.17840  0.87990  1.0000 -0.5109800582
O   O6        1.0  0.44810  0.82160  0.12010  1.0000 -0.5109800582
O   O7        1.0  0.15720  0.04510  0.80100  1.0000 -0.5341778879
O   O8        1.0  0.84280  0.95490  0.19900  1.0000 -0.5341778879
O   O9        1.0  0.96630  0.27480  0.37230  1.0000 -0.5687175577
O   O10       1.0  0.03370  0.72520  0.62770  1.0000 -0.5687175577
O   O11       1.0  0.66840  0.39850  0.47420  1.0000 -0.5482223516
O   O12       1.0  0.33160  0.60150  0.52580  1.0000 -0.5482223516
