# DDEC6 charges by PACMAN v1.1 (https://github.com/mtap-research/PACMAN-charge/)
data_2007[Y][sqp]3[FSR]1
_chemical_formula_sum              "Y4 C12 Se4 O40"
_cell_length_a       8.7749
_cell_length_b       15.8803
_cell_length_c       11.7829
_cell_angle_alpha    90
_cell_angle_beta     127.345
_cell_angle_gamma    90

_symmetry_space_group_name_H-M    "P 1"
_symmetry_Int_Tables_number       1

loop_
  _symmetry_equiv_pos_as_xyz
  'x, y, z'

loop_
  _atom_site_type_symbol
  _atom_site_label
  _atom_site_symmetry_multiplicity
  _atom_site_fract_x
  _atom_site_fract_y
  _atom_site_fract_z
  _atom_site_occupancy
  _atom_site_charge
Y   Y1        1.0  0.50358  0.19556  0.47481  1.0000 1.7406948815
Y   Y2        1.0  0.49642  0.69556  0.02519  1.0000 1.7344795873
Y   Y3        1.0  0.49642  0.80444  0.52519  1.0000 1.7406948815
Y   Y4        1.0  0.50358  0.30444  0.97481  1.0000 1.7406948815
C   C1        1.0  0.51960  0.20350  0.75000  1.0000 0.5268763115
C   C2        1.0  0.48040  0.70350  0.75000  1.0000 0.5268763115
C   C3        1.0  0.48040  0.79650  0.25000  1.0000 0.5268763115
C   C4        1.0  0.51960  0.29650  0.25000  1.0000 0.5268763115
C   C5        1.0  0.49390  0.29570  0.70150  1.0000 0.5222990563
C   C6        1.0  0.50610  0.79570  0.79850  1.0000 0.5222990563
C   C7        1.0  0.50610  0.70430  0.29850  1.0000 0.5222990563
C   C8        1.0  0.49390  0.20430  0.20150  1.0000 0.5222990563
C   C9        1.0  0.60930  0.99880  0.54110  1.0000 0.5145043542
C   C10       1.0  0.39070  0.49880  0.95890  1.0000 0.5222990563
C   C11       1.0  0.39070  0.00120  0.45890  1.0000 0.5145043542
C   C12       1.0  0.60930  0.50120  0.04110  1.0000 0.5145043542
Se  Se1       1.0  0.01285  0.27879  0.29099  1.0000 1.5984185149
Se  Se2       1.0  0.98715  0.77879  0.20901  1.0000 1.5927775909
Se  Se3       1.0  0.98715  0.72121  0.70901  1.0000 1.5927775909
Se  Se4       1.0  0.01285  0.22121  0.79099  1.0000 1.5984185149
O   O1        1.0  0.06660  0.37790  0.32650  1.0000 -0.4398094008
O   O2        1.0  0.93340  0.87790  0.17350  1.0000 -0.4398094008
O   O3        1.0  0.93340  0.62210  0.67350  1.0000 -0.4398094008
O   O4        1.0  0.06660  0.12210  0.82650  1.0000 -0.4398094008
O   O5        1.0  0.18550  0.22826  0.30340  1.0000 -0.6564703772
O   O6        1.0  0.81450  0.72826  0.19660  1.0000 -0.6538659622
O   O7        1.0  0.81450  0.77174  0.69660  1.0000 -0.6538659622
O   O8        1.0  0.18550  0.27174  0.80340  1.0000 -0.6564703772
O   O9        1.0  0.82160  0.26640  0.12470  1.0000 -0.6538659622
O   O10       1.0  0.17840  0.76640  0.37530  1.0000 -0.6538659622
O   O11       1.0  0.17840  0.73360  0.87530  1.0000 -0.6538659622
O   O12       1.0  0.82160  0.23360  0.62470  1.0000 -0.6538659622
O   O13       1.0  0.97740  0.24090  0.40180  1.0000 -0.5188588242
O   O14       1.0  0.02260  0.74090  0.09820  1.0000 -0.5188588242
O   O15       1.0  0.02260  0.75910  0.59820  1.0000 -0.5188588242
O   O16       1.0  0.97740  0.25910  0.90180  1.0000 -0.5188588242
O   O17       1.0  0.52730  0.15041  0.67400  1.0000 -0.5004006366
O   O18       1.0  0.47270  0.65041  0.82600  1.0000 -0.5004006366
O   O19       1.0  0.47270  0.84959  0.32600  1.0000 -0.5004006366
O   O20       1.0  0.52730  0.34959  0.17400  1.0000 -0.5004006366
O   O21       1.0  0.52910  0.18921  0.85830  1.0000 -0.4120266626
O   O22       1.0  0.47090  0.68921  0.64170  1.0000 -0.4120266626
O   O23       1.0  0.47090  0.81079  0.14170  1.0000 -0.4120266626
O   O24       1.0  0.52910  0.31079  0.35830  1.0000 -0.4120266626
O   O25       1.0  0.48870  0.34969  0.77820  1.0000 -0.4510648291
O   O26       1.0  0.51130  0.84969  0.72180  1.0000 -0.4510648291
O   O27       1.0  0.51130  0.65031  0.22180  1.0000 -0.4510648291
O   O28       1.0  0.48870  0.15031  0.27820  1.0000 -0.4510648291
O   O29       1.0  0.47940  0.31045  0.59180  1.0000 -0.4510648291
O   O30       1.0  0.52060  0.81045  0.90820  1.0000 -0.4510648291
O   O31       1.0  0.52060  0.68955  0.40820  1.0000 -0.4510648291
O   O32       1.0  0.47940  0.18955  0.09180  1.0000 -0.4510648291
O   O33       1.0  0.68460  0.06716  0.54450  1.0000 -0.4223171587
O   O34       1.0  0.31540  0.56716  0.95550  1.0000 -0.4223171587
O   O35       1.0  0.31540  0.93284  0.45550  1.0000 -0.4223171587
O   O36       1.0  0.68460  0.43284  0.04450  1.0000 -0.4223171587
O   O37       1.0  0.69310  0.93097  0.59740  1.0000 -0.3957910354
O   O38       1.0  0.30690  0.43097  0.90260  1.0000 -0.3957910354
O   O39       1.0  0.30690  0.06903  0.40260  1.0000 -0.3957910354
O   O40       1.0  0.69310  0.56903  0.09740  1.0000 -0.3957910354
