# DDEC6 charges by PACMAN v1.1 (https://github.com/mtap-research/PACMAN-charge/)
data_2007[Zn][nan]3[FSR]5
_chemical_formula_sum              "Zn16 H80 C128 N48 O32"
_cell_length_a       13.609
_cell_length_b       27.181
_cell_length_c       18.8335
_cell_angle_alpha    90
_cell_angle_beta     133.751
_cell_angle_gamma    90

_symmetry_space_group_name_H-M    "P 1"
_symmetry_Int_Tables_number       1

loop_
  _symmetry_equiv_pos_as_xyz
  'x, y, z'

loop_
  _atom_site_type_symbol
  _atom_site_label
  _atom_site_symmetry_multiplicity
  _atom_site_fract_x
  _atom_site_fract_y
  _atom_site_fract_z
  _atom_site_occupancy
  _atom_site_charge
Zn  Zn1       1.0  0.99200  0.19426  0.82216  1.0000 0.6533156937
Zn  Zn2       1.0  0.00800  0.69426  0.67784  1.0000 0.6533156937
Zn  Zn3       1.0  0.00800  0.80574  0.17784  1.0000 0.6533156937
Zn  Zn4       1.0  0.99200  0.30574  0.32216  1.0000 0.6533156937
Zn  Zn5       1.0  0.45641  0.20187  0.70614  1.0000 0.6691050535
Zn  Zn6       1.0  0.54359  0.70187  0.79386  1.0000 0.6691050535
Zn  Zn7       1.0  0.54359  0.79813  0.29386  1.0000 0.6691050535
Zn  Zn8       1.0  0.45641  0.29813  0.20614  1.0000 0.6691050535
Zn  Zn9       1.0  0.67061  0.30386  0.89025  1.0000 0.6628738945
Zn  Zn10      1.0  0.32939  0.80386  0.60975  1.0000 0.6628738945
Zn  Zn11      1.0  0.32939  0.69614  0.10975  1.0000 0.6628738945
Zn  Zn12      1.0  0.67061  0.19614  0.39025  1.0000 0.6628738945
Zn  Zn13      1.0  0.12969  0.20370  0.27493  1.0000 0.6628738945
Zn  Zn14      1.0  0.87031  0.70370  0.22507  1.0000 0.6628738945
Zn  Zn15      1.0  0.87031  0.79630  0.72507  1.0000 0.6628738945
Zn  Zn16      1.0  0.12969  0.29630  0.77493  1.0000 0.6628738945
H   H1        1.0  0.68370  0.17220  0.71020  1.0000 0.1292487244
H   H2        1.0  0.31630  0.67220  0.78980  1.0000 0.1292487244
H   H3        1.0  0.31630  0.82780  0.28980  1.0000 0.1292487244
H   H4        1.0  0.68370  0.32780  0.21020  1.0000 0.1292487244
H   H5        1.0  0.90760  0.27970  0.90210  1.0000 0.1130756224
H   H6        1.0  0.09240  0.77970  0.59790  1.0000 0.1130756224
H   H7        1.0  0.09240  0.72030  0.09790  1.0000 0.1202677833
H   H8        1.0  0.90760  0.22030  0.40210  1.0000 0.1130756224
H   H9        1.0  0.22010  0.22410  0.69090  1.0000 0.1130756224
H   H10       1.0  0.77990  0.72410  0.80910  1.0000 0.1130756224
H   H11       1.0  0.77990  0.77590  0.30910  1.0000 0.1130756224
H   H12       1.0  0.22010  0.27590  0.19090  1.0000 0.1130756224
H   H13       1.0  0.43910  0.33090  0.88850  1.0000 0.1292487244
H   H14       1.0  0.56090  0.83090  0.61150  1.0000 0.1292487244
H   H15       1.0  0.56090  0.66910  0.11150  1.0000 0.1292487244
H   H16       1.0  0.43910  0.16910  0.38850  1.0000 0.1292487244
H   H17       1.0  0.22160  0.28440  0.55450  1.0000 0.1130756224
H   H18       1.0  0.77840  0.78440  0.94550  1.0000 0.1130756224
H   H19       1.0  0.77840  0.71560  0.44550  1.0000 0.1130756224
H   H20       1.0  0.22160  0.21560  0.05450  1.0000 0.1130756224
H   H21       1.0  0.35270  0.17710  0.49720  1.0000 0.1292487244
H   H22       1.0  0.64730  0.67710  0.00280  1.0000 0.1292487244
H   H23       1.0  0.64730  0.82290  0.50280  1.0000 0.1292487244
H   H24       1.0  0.35270  0.32290  0.99720  1.0000 0.1292487244
H   H25       1.0  0.77050  0.33210  0.09780  1.0000 0.1292487244
H   H26       1.0  0.22950  0.83210  0.40220  1.0000 0.1292487244
H   H27       1.0  0.22950  0.66790  0.90220  1.0000 0.1292487244
H   H28       1.0  0.77050  0.16790  0.59780  1.0000 0.1292487244
H   H29       1.0  0.92790  0.23560  0.04820  1.0000 0.1033633171
H   H30       1.0  0.07210  0.73560  0.45180  1.0000 0.1033633171
H   H31       1.0  0.07210  0.76440  0.95180  1.0000 0.1033633171
H   H32       1.0  0.92790  0.26440  0.54820  1.0000 0.1033633171
H   H33       1.0  0.30690  0.05500  0.52340  1.0000 0.1292487244
H   H34       1.0  0.69310  0.55500  0.97660  1.0000 0.1292487244
H   H35       1.0  0.69310  0.94500  0.47660  1.0000 0.1292487244
H   H36       1.0  0.30690  0.44500  0.02340  1.0000 0.1292487244
H   H37       1.0  0.27460  0.96990  0.50060  1.0000 0.1202677833
H   H38       1.0  0.72540  0.46990  0.99940  1.0000 0.1202677833
H   H39       1.0  0.72540  0.03010  0.49940  1.0000 0.1202677833
H   H40       1.0  0.27460  0.53010  0.00060  1.0000 0.1202677833
H   H41       1.0  0.56740  0.07810  0.85280  1.0000 0.1202677833
H   H42       1.0  0.43260  0.57810  0.64720  1.0000 0.1202677833
H   H43       1.0  0.43260  0.92190  0.14720  1.0000 0.1202677833
H   H44       1.0  0.56740  0.42190  0.35280  1.0000 0.1202677833
H   H45       1.0  0.66290  0.02660  0.98670  1.0000 0.1130756224
H   H46       1.0  0.33710  0.52660  0.51330  1.0000 0.1130756224
H   H47       1.0  0.33710  0.97340  0.01330  1.0000 0.1130756224
H   H48       1.0  0.66290  0.47340  0.48670  1.0000 0.1130756224
H   H49       1.0  0.63057  0.94140  0.96390  1.0000 0.1202677833
H   H50       1.0  0.36943  0.44140  0.53610  1.0000 0.1202677833
H   H51       1.0  0.36943  0.05860  0.03610  1.0000 0.1202677833
H   H52       1.0  0.63057  0.55860  0.46390  1.0000 0.1202677833
H   H53       1.0  0.50270  0.90780  0.80710  1.0000 0.1202677833
H   H54       1.0  0.49730  0.40780  0.69290  1.0000 0.1202677833
H   H55       1.0  0.49730  0.09220  0.19290  1.0000 0.1202677833
H   H56       1.0  0.50270  0.59220  0.30710  1.0000 0.1202677833
H   H57       1.0  0.25170  0.02760  0.30000  1.0000 0.1292487244
H   H58       1.0  0.74830  0.52760  0.20000  1.0000 0.1292487244
H   H59       1.0  0.74830  0.97240  0.70000  1.0000 0.1292487244
H   H60       1.0  0.25170  0.47240  0.80000  1.0000 0.1292487244
H   H61       1.0  0.18940  0.94450  0.26450  1.0000 0.1292487244
H   H62       1.0  0.81060  0.44450  0.23550  1.0000 0.1292487244
H   H63       1.0  0.81060  0.05550  0.73550  1.0000 0.1292487244
H   H64       1.0  0.18940  0.55550  0.76450  1.0000 0.1292487244
H   H65       1.0  0.88960  0.10510  0.22430  1.0000 0.1130756224
H   H66       1.0  0.11040  0.60510  0.27570  1.0000 0.1130756224
H   H67       1.0  0.11040  0.89490  0.77570  1.0000 0.1130756224
H   H68       1.0  0.88960  0.39490  0.72430  1.0000 0.1130756224
H   H69       1.0  0.67880  0.08000  0.16390  1.0000 0.1202677833
H   H70       1.0  0.32120  0.58000  0.33610  1.0000 0.1202677833
H   H71       1.0  0.32120  0.92000  0.83610  1.0000 0.1202677833
H   H72       1.0  0.67880  0.42000  0.66390  1.0000 0.1202677833
H   H73       1.0  0.61660  0.99690  0.12850  1.0000 0.1033633171
H   H74       1.0  0.38340  0.49690  0.37150  1.0000 0.1033633171
H   H75       1.0  0.38340  0.00310  0.87150  1.0000 0.1033633171
H   H76       1.0  0.61660  0.50310  0.62850  1.0000 0.1033633171
H   H77       1.0  0.76520  0.93900  0.15350  1.0000 0.1417572877
H   H78       1.0  0.23480  0.43900  0.34650  1.0000 0.1417572877
H   H79       1.0  0.23480  0.06100  0.84650  1.0000 0.1417572877
H   H80       1.0  0.76520  0.56100  0.65350  1.0000 0.1417572877
C   C1        1.0  0.71570  0.19830  0.75520  1.0000 0.1596490299
C   C2        1.0  0.28430  0.69830  0.74480  1.0000 0.1596490299
C   C3        1.0  0.28430  0.80170  0.24480  1.0000 0.1596490299
C   C4        1.0  0.71570  0.30170  0.25520  1.0000 0.1596490299
C   C5        1.0  0.83540  0.25690  0.85920  1.0000 0.1292487244
C   C6        1.0  0.16460  0.75690  0.64080  1.0000 0.1292487244
C   C7        1.0  0.16460  0.74310  0.14080  1.0000 0.1292487244
C   C8        1.0  0.83540  0.24310  0.35920  1.0000 0.1292487244
C   C9        1.0  0.29260  0.24610  0.73780  1.0000 0.1202677833
C   C10       1.0  0.70740  0.74610  0.76220  1.0000 0.1202677833
C   C11       1.0  0.70740  0.75390  0.26220  1.0000 0.1202677833
C   C12       1.0  0.29260  0.25390  0.23780  1.0000 0.1202677833
C   C13       1.0  0.41060  0.30390  0.84590  1.0000 0.1858568942
C   C14       1.0  0.58940  0.80390  0.65410  1.0000 0.1858568942
C   C15       1.0  0.58940  0.69610  0.15410  1.0000 0.1858568942
C   C16       1.0  0.41060  0.19610  0.34590  1.0000 0.1858568942
C   C17       1.0  0.22970  0.26180  0.52030  1.0000 0.1202677833
C   C18       1.0  0.77030  0.76180  0.97970  1.0000 0.1202677833
C   C19       1.0  0.77030  0.73820  0.47970  1.0000 0.1202677833
C   C20       1.0  0.22970  0.23820  0.02030  1.0000 0.1202677833
C   C21       1.0  0.30160  0.20400  0.48960  1.0000 0.1417572877
C   C22       1.0  0.69840  0.70400  0.01040  1.0000 0.1417572877
C   C23       1.0  0.69840  0.79600  0.51040  1.0000 0.1417572877
C   C24       1.0  0.30160  0.29600  0.98960  1.0000 0.1417572877
C   C25       1.0  0.82770  0.30720  0.10750  1.0000 0.1292487244
C   C26       1.0  0.17230  0.80720  0.39250  1.0000 0.1292487244
C   C27       1.0  0.17230  0.69280  0.89250  1.0000 0.1292487244
C   C28       1.0  0.82770  0.19280  0.60750  1.0000 0.1292487244
C   C29       1.0  0.90940  0.25530  0.07950  1.0000 0.1545773005
C   C30       1.0  0.09060  0.75530  0.42050  1.0000 0.1545773005
C   C31       1.0  0.09060  0.74470  0.92050  1.0000 0.1545773005
C   C32       1.0  0.90940  0.24470  0.57950  1.0000 0.1545773005
C   C33       1.0  0.43840  0.10950  0.67720  1.0000 0.5505209571
C   C34       1.0  0.56160  0.60950  0.82280  1.0000 0.5505209571
C   C35       1.0  0.56160  0.89050  0.32280  1.0000 0.5505209571
C   C36       1.0  0.43840  0.39050  0.17720  1.0000 0.5505209571
C   C37       1.0  0.42160  0.05410  0.67090  1.0000 -0.0470161981
C   C38       1.0  0.57840  0.55410  0.82910  1.0000 -0.0470161981
C   C39       1.0  0.57840  0.94590  0.32910  1.0000 -0.0470161981
C   C40       1.0  0.42160  0.44590  0.17090  1.0000 -0.0470161981
C   C41       1.0  0.34570  0.03410  0.57780  1.0000 -0.1156118841
C   C42       1.0  0.65430  0.53410  0.92220  1.0000 -0.1156118841
C   C43       1.0  0.65430  0.96590  0.42220  1.0000 -0.1156118841
C   C44       1.0  0.34570  0.46590  0.07780  1.0000 -0.1156118841
C   C45       1.0  0.32650  0.98350  0.56420  1.0000 -0.1144172991
C   C46       1.0  0.67350  0.48350  0.93580  1.0000 -0.1144172991
C   C47       1.0  0.67350  0.01650  0.43580  1.0000 -0.1144172991
C   C48       1.0  0.32650  0.51650  0.06420  1.0000 -0.1144172991
C   C49       1.0  0.38320  0.95290  0.64370  1.0000 -0.0470161981
C   C50       1.0  0.61680  0.45290  0.85630  1.0000 -0.0470161981
C   C51       1.0  0.61680  0.04710  0.35630  1.0000 -0.0470161981
C   C52       1.0  0.38320  0.54710  0.14370  1.0000 -0.0470161981
C   C53       1.0  0.45920  0.97290  0.73690  1.0000 0.0485640654
C   C54       1.0  0.54080  0.47290  0.76310  1.0000 0.0485640654
C   C55       1.0  0.54080  0.02710  0.26310  1.0000 0.0485640654
C   C56       1.0  0.45920  0.52710  0.23690  1.0000 0.0485640654
C   C57       1.0  0.47830  0.02350  0.75040  1.0000 0.0485640654
C   C58       1.0  0.52170  0.52350  0.74960  1.0000 0.0485640654
C   C59       1.0  0.52170  0.97650  0.24960  1.0000 0.0485640654
C   C60       1.0  0.47830  0.47650  0.25040  1.0000 0.0485640654
C   C61       1.0  0.55420  0.04350  0.84350  1.0000 -0.131335053
C   C62       1.0  0.44580  0.54350  0.65650  1.0000 -0.131335053
C   C63       1.0  0.44580  0.95650  0.15650  1.0000 -0.131335053
C   C64       1.0  0.55420  0.45650  0.34350  1.0000 -0.131335053
C   C65       1.0  0.61100  0.01290  0.92310  1.0000 -0.0997727116
C   C66       1.0  0.38900  0.51290  0.57690  1.0000 -0.0997727116
C   C67       1.0  0.38900  0.98710  0.07690  1.0000 -0.0997727116
C   C68       1.0  0.61100  0.48710  0.42310  1.0000 -0.0997727116
C   C69       1.0  0.59180  0.96230  0.90950  1.0000 -0.0997727116
C   C70       1.0  0.40820  0.46230  0.59050  1.0000 -0.0997727116
C   C71       1.0  0.40820  0.03770  0.09050  1.0000 -0.0997727116
C   C72       1.0  0.59180  0.53770  0.40950  1.0000 -0.0997727116
C   C73       1.0  0.51590  0.94230  0.81640  1.0000 -0.131335053
C   C74       1.0  0.48410  0.44230  0.68360  1.0000 -0.131335053
C   C75       1.0  0.48410  0.05770  0.18360  1.0000 -0.131335053
C   C76       1.0  0.51590  0.55770  0.31640  1.0000 -0.131335053
C   C77       1.0  0.36010  0.89780  0.62030  1.0000 0.5561601525
C   C78       1.0  0.63990  0.39780  0.87970  1.0000 0.5561601525
C   C79       1.0  0.63990  0.10220  0.37970  1.0000 0.5561601525
C   C80       1.0  0.36010  0.60220  0.12030  1.0000 0.5561601525
C   C81       1.0  0.11700  0.10770  0.28100  1.0000 0.5505209571
C   C82       1.0  0.88300  0.60770  0.21900  1.0000 0.5505209571
C   C83       1.0  0.88300  0.89230  0.71900  1.0000 0.5505209571
C   C84       1.0  0.11700  0.39230  0.78100  1.0000 0.5505209571
C   C85       1.0  0.07780  0.05180  0.26060  1.0000 -0.0419269878
C   C86       1.0  0.92220  0.55180  0.23940  1.0000 -0.0419269878
C   C87       1.0  0.92220  0.94820  0.73940  1.0000 -0.0419269878
C   C88       1.0  0.07780  0.44820  0.76060  1.0000 -0.0419269878
C   C89       1.0  0.16600  0.01740  0.27540  1.0000 -0.0997727116
C   C90       1.0  0.83400  0.51740  0.22460  1.0000 -0.0997727116
C   C91       1.0  0.83400  0.98260  0.72460  1.0000 -0.0997727116
C   C92       1.0  0.16600  0.48260  0.77540  1.0000 -0.0997727116
C   C93       1.0  0.12910  0.96810  0.25440  1.0000 -0.1384257097
C   C94       1.0  0.87090  0.46810  0.24560  1.0000 -0.1384257097
C   C95       1.0  0.87090  0.03190  0.74560  1.0000 -0.1384257097
C   C96       1.0  0.12910  0.53190  0.75440  1.0000 -0.1384257097
C   C97       1.0  0.00380  0.95320  0.21850  1.0000 -0.0419269878
C   C98       1.0  0.99620  0.45320  0.28150  1.0000 -0.0419269878
C   C99       1.0  0.99620  0.04680  0.78150  1.0000 -0.0419269878
C   C100      1.0  0.00380  0.54680  0.71850  1.0000 -0.0419269878
C   C101      1.0  0.91560  0.98760  0.20370  1.0000 0.0485640654
C   C102      1.0  0.08440  0.48760  0.29630  1.0000 0.0485640654
C   C103      1.0  0.08440  0.01240  0.79630  1.0000 0.0485640654
C   C104      1.0  0.91560  0.51240  0.70370  1.0000 0.0485640654
C   C105      1.0  0.95260  0.03690  0.22480  1.0000 0.0485640654
C   C106      1.0  0.04740  0.53690  0.27520  1.0000 0.0485640654
C   C107      1.0  0.04740  0.96310  0.77520  1.0000 0.0485640654
C   C108      1.0  0.95260  0.46310  0.72480  1.0000 0.0485640654
C   C109      1.0  0.86430  0.07140  0.20990  1.0000 -0.1384257097
C   C110      1.0  0.13570  0.57140  0.29010  1.0000 -0.1384257097
C   C111      1.0  0.13570  0.92860  0.79010  1.0000 -0.1384257097
C   C112      1.0  0.86430  0.42860  0.70990  1.0000 -0.1384257097
C   C113      1.0  0.73920  0.05650  0.17410  1.0000 -0.0905938329
C   C114      1.0  0.26080  0.55650  0.32590  1.0000 -0.0905938329
C   C115      1.0  0.26080  0.94350  0.82590  1.0000 -0.0905938329
C   C116      1.0  0.73920  0.44350  0.67410  1.0000 -0.0905938329
C   C117      1.0  0.70210  0.00710  0.15300  1.0000 -0.0997727116
C   C118      1.0  0.29790  0.50710  0.34700  1.0000 -0.0997727116
C   C119      1.0  0.29790  0.99290  0.84700  1.0000 -0.0997727116
C   C120      1.0  0.70210  0.49290  0.65300  1.0000 -0.0997727116
C   C121      1.0  0.79050  0.97270  0.16790  1.0000 -0.1384257097
C   C122      1.0  0.20950  0.47270  0.33210  1.0000 -0.1384257097
C   C123      1.0  0.20950  0.02730  0.83210  1.0000 -0.1384257097
C   C124      1.0  0.79050  0.52730  0.66790  1.0000 -0.1384257097
C   C125      1.0  0.98300  0.89720  0.19100  1.0000 0.5365726357
C   C126      1.0  0.01700  0.39720  0.30900  1.0000 0.5365726357
C   C127      1.0  0.01700  0.10280  0.80900  1.0000 0.5365726357
C   C128      1.0  0.98300  0.60280  0.69100  1.0000 0.5365726357
N   N1        1.0  0.84090  0.21900  0.81400  1.0000 -0.3330811853
N   N2        1.0  0.15910  0.71900  0.68600  1.0000 -0.3330811853
N   N3        1.0  0.15910  0.78100  0.18600  1.0000 -0.3330811853
N   N4        1.0  0.84090  0.28100  0.31400  1.0000 -0.3330811853
N   N5        1.0  0.72160  0.25860  0.83730  1.0000 -0.2027192743
N   N6        1.0  0.27840  0.75860  0.66270  1.0000 -0.2027192743
N   N7        1.0  0.27840  0.74140  0.16270  1.0000 -0.2027192743
N   N8        1.0  0.72160  0.24140  0.33730  1.0000 -0.2027192743
N   N9        1.0  0.64520  0.22040  0.77070  1.0000 -0.1900052646
N   N10       1.0  0.35480  0.72040  0.72930  1.0000 -0.1900052646
N   N11       1.0  0.35480  0.77960  0.22930  1.0000 -0.1900052646
N   N12       1.0  0.64520  0.27960  0.27070  1.0000 -0.1900052646
N   N13       1.0  0.28860  0.28200  0.79180  1.0000 -0.3497119391
N   N14       1.0  0.71140  0.78200  0.70820  1.0000 -0.3497119391
N   N15       1.0  0.71140  0.71800  0.20820  1.0000 -0.3497119391
N   N16       1.0  0.28860  0.21800  0.29180  1.0000 -0.3497119391
N   N17       1.0  0.48690  0.28390  0.83360  1.0000 -0.2061402196
N   N18       1.0  0.51310  0.78390  0.66640  1.0000 -0.2061402196
N   N19       1.0  0.51310  0.71610  0.16640  1.0000 -0.2061402196
N   N20       1.0  0.48690  0.21610  0.33360  1.0000 -0.2061402196
N   N21       1.0  0.40620  0.24720  0.76050  1.0000 -0.2027192743
N   N22       1.0  0.59380  0.74720  0.73950  1.0000 -0.2027192743
N   N23       1.0  0.59380  0.75280  0.23950  1.0000 -0.2027192743
N   N24       1.0  0.40620  0.25280  0.26050  1.0000 -0.2027192743
N   N25       1.0  0.32060  0.22660  0.56290  1.0000 -0.2952658826
N   N26       1.0  0.67940  0.72660  0.93710  1.0000 -0.2952658826
N   N27       1.0  0.67940  0.77340  0.43710  1.0000 -0.2952658826
N   N28       1.0  0.32060  0.27340  0.06290  1.0000 -0.2952658826
N   N29       1.0  0.19740  0.22670  0.40420  1.0000 -0.1710027302
N   N30       1.0  0.80260  0.72670  0.09580  1.0000 -0.1710027302
N   N31       1.0  0.80260  0.77330  0.59580  1.0000 -0.1710027302
N   N32       1.0  0.19740  0.27330  0.90420  1.0000 -0.1710027302
N   N33       1.0  0.14810  0.26230  0.42100  1.0000 -0.1900052646
N   N34       1.0  0.85190  0.76230  0.07900  1.0000 -0.1900052646
N   N35       1.0  0.85190  0.73770  0.57900  1.0000 -0.1900052646
N   N36       1.0  0.14810  0.23770  0.92100  1.0000 -0.1900052646
N   N37       1.0  0.81650  0.28800  0.03420  1.0000 -0.2900446797
N   N38       1.0  0.18350  0.78800  0.46580  1.0000 -0.2900446797
N   N39       1.0  0.18350  0.71200  0.96580  1.0000 -0.2900446797
N   N40       1.0  0.81650  0.21200  0.53420  1.0000 -0.2900446797
N   N41       1.0  0.97650  0.25130  0.17200  1.0000 -0.1801257873
N   N42       1.0  0.02350  0.75130  0.32800  1.0000 -0.1801257873
N   N43       1.0  0.02350  0.74870  0.82800  1.0000 -0.1801257873
N   N44       1.0  0.97650  0.24870  0.67200  1.0000 -0.1801257873
N   N45       1.0  0.93050  0.28570  0.19460  1.0000 -0.1801257873
N   N46       1.0  0.06950  0.78570  0.30540  1.0000 -0.1801257873
N   N47       1.0  0.06950  0.71430  0.80540  1.0000 -0.1801257873
N   N48       1.0  0.93050  0.21430  0.69460  1.0000 -0.1801257873
O   O1        1.0  0.88600  0.88190  0.19100  1.0000 -0.5889501119
O   O2        1.0  0.11400  0.38190  0.30900  1.0000 -0.5889501119
O   O3        1.0  0.11400  0.11810  0.80900  1.0000 -0.5889501119
O   O4        1.0  0.88600  0.61810  0.69100  1.0000 -0.5889501119
O   O5        1.0  0.03930  0.87490  0.18420  1.0000 -0.3893300363
O   O6        1.0  0.96070  0.37490  0.31580  1.0000 -0.3893300363
O   O7        1.0  0.96070  0.12510  0.81580  1.0000 -0.3893300363
O   O8        1.0  0.03930  0.62510  0.68420  1.0000 -0.3893300363
O   O9        1.0  0.41080  0.13480  0.71740  1.0000 -0.5290231848
O   O10       1.0  0.58920  0.63480  0.78260  1.0000 -0.5290231848
O   O11       1.0  0.58920  0.86520  0.28260  1.0000 -0.5290231848
O   O12       1.0  0.41080  0.36520  0.21740  1.0000 -0.5290231848
O   O13       1.0  0.48230  0.12700  0.64410  1.0000 -0.5290231848
O   O14       1.0  0.51770  0.62700  0.85590  1.0000 -0.5290231848
O   O15       1.0  0.51770  0.87300  0.35590  1.0000 -0.5290231848
O   O16       1.0  0.48230  0.37300  0.14410  1.0000 -0.5290231848
O   O17       1.0  0.25110  0.11480  0.36170  1.0000 -0.6044762427
O   O18       1.0  0.74890  0.61480  0.13830  1.0000 -0.6044762427
O   O19       1.0  0.74890  0.88520  0.63830  1.0000 -0.6044762427
O   O20       1.0  0.25110  0.38520  0.86170  1.0000 -0.6044762427
O   O21       1.0  0.04240  0.14010  0.22790  1.0000 -0.4775982642
O   O22       1.0  0.95760  0.64010  0.27210  1.0000 -0.4775982642
O   O23       1.0  0.95760  0.85990  0.77210  1.0000 -0.4775982642
O   O24       1.0  0.04240  0.35990  0.72790  1.0000 -0.4775982642
O   O25       1.0  0.33680  0.87030  0.65910  1.0000 -0.524967193
O   O26       1.0  0.66320  0.37030  0.84090  1.0000 -0.524967193
O   O27       1.0  0.66320  0.12970  0.34090  1.0000 -0.524967193
O   O28       1.0  0.33680  0.62970  0.15910  1.0000 -0.524967193
O   O29       1.0  0.36730  0.88200  0.55990  1.0000 -0.5889501119
O   O30       1.0  0.63270  0.38200  0.94010  1.0000 -0.5889501119
O   O31       1.0  0.63270  0.11800  0.44010  1.0000 -0.5889501119
O   O32       1.0  0.36730  0.61800  0.05990  1.0000 -0.5889501119
