# DDEC6 charges by PACMAN v1.1 (https://github.com/mtap-research/PACMAN-charge/)
data_2007[Co][lvt]3[FSR]1
_chemical_formula_sum              "Co2 H12 C20 O20"
_cell_length_a       11.4437
_cell_length_b       11.4437
_cell_length_c       11.4437
_cell_angle_alpha    143.442
_cell_angle_beta     102.931
_cell_angle_gamma    88.4515

_symmetry_space_group_name_H-M    "P 1"
_symmetry_Int_Tables_number       1

loop_
  _symmetry_equiv_pos_as_xyz
  'x, y, z'

loop_
  _atom_site_type_symbol
  _atom_site_label
  _atom_site_symmetry_multiplicity
  _atom_site_fract_x
  _atom_site_fract_y
  _atom_site_fract_z
  _atom_site_occupancy
  _atom_site_charge
Co  Co1       1.0  0.32749  0.00000  0.32749  1.0000 1.1286134562
Co  Co2       1.0  0.82749  0.50000  0.32749  1.0000 1.1286134562
H   H1        1.0  0.48430  0.40170  0.38600  1.0000 0.1430235943
H   H2        1.0  0.98430  0.59830  0.08260  1.0000 0.1430235943
H   H3        1.0  0.17100  0.59650  0.26750  1.0000 0.1430235943
H   H4        1.0  0.67100  0.40350  0.57450  1.0000 0.1430235943
H   H5        1.0  0.35510  0.29620  0.69730  1.0000 0.3900409891
H   H6        1.0  0.40110  0.70380  0.05890  1.0000 0.3900409891
H   H7        1.0  0.85510  0.15780  0.05890  1.0000 0.3900409891
H   H8        1.0  0.90110  0.84220  0.69730  1.0000 0.3900409891
H   H9        1.0  0.25380  0.30610  0.59870  1.0000 0.3900409891
H   H10       1.0  0.29260  0.69390  0.94770  1.0000 0.3900409891
H   H11       1.0  0.75380  0.15510  0.94770  1.0000 0.3900409891
H   H12       1.0  0.79260  0.84490  0.59870  1.0000 0.3900409891
C   C1        1.0  0.42061  0.44080  0.36141  1.0000 -0.0611463422
C   C2        1.0  0.92061  0.55920  0.97981  1.0000 -0.0611463422
C   C3        1.0  0.30041  0.39497  0.34360  1.0000 -0.0171495191
C   C4        1.0  0.94863  0.60503  0.90544  1.0000 -0.0171495191
C   C5        1.0  0.80041  0.45681  0.90544  1.0000 -0.0171495191
C   C6        1.0  0.44863  0.54319  0.34360  1.0000 -0.0171495191
C   C7        1.0  0.20700  0.45184  0.30632  1.0000 0.0048693745
C   C8        1.0  0.85448  0.54816  0.75516  1.0000 0.0048693745
C   C9        1.0  0.70700  0.40068  0.75516  1.0000 0.0048693745
C   C10       1.0  0.35448  0.59932  0.30632  1.0000 0.0048693745
C   C11       1.0  0.23435  0.55560  0.28995  1.0000 -0.0949664274
C   C12       1.0  0.73435  0.44440  0.67875  1.0000 -0.0949664274
C   C13       1.0  0.27186  0.29051  0.37077  1.0000 0.569413065
C   C14       1.0  0.08026  0.70949  0.98135  1.0000 0.569413065
C   C15       1.0  0.77186  0.40109  0.98135  1.0000 0.569413065
C   C16       1.0  0.58026  0.59891  0.37077  1.0000 0.569413065
C   C17       1.0  0.07208  0.38619  0.25867  1.0000 0.5759095988
C   C18       1.0  0.87248  0.61381  0.68589  1.0000 0.5759095988
C   C19       1.0  0.57208  0.31341  0.68589  1.0000 0.5759095988
C   C20       1.0  0.37248  0.68659  0.25867  1.0000 0.5759095988
O   O1        1.0  0.32523  0.15298  0.29447  1.0000 -0.5100361863
O   O2        1.0  0.14149  0.84702  0.17225  1.0000 -0.5100361863
O   O3        1.0  0.82523  0.53076  0.17225  1.0000 -0.5100361863
O   O4        1.0  0.64149  0.46924  0.29447  1.0000 -0.5100361863
O   O5        1.0  0.19849  0.35008  0.46819  1.0000 -0.4215824799
O   O6        1.0  0.11811  0.64992  0.84841  1.0000 -0.4215824799
O   O7        1.0  0.69849  0.23030  0.84841  1.0000 -0.4215824799
O   O8        1.0  0.61811  0.76970  0.46819  1.0000 -0.4215824799
O   O9        1.0  0.02370  0.19842  0.10160  1.0000 -0.4215824799
O   O10       1.0  0.90318  0.80158  0.82528  1.0000 -0.4215824799
O   O11       1.0  0.52370  0.42210  0.82528  1.0000 -0.4215824799
O   O12       1.0  0.40318  0.57790  0.10160  1.0000 -0.4215824799
O   O13       1.0  0.01773  0.52514  0.37467  1.0000 -0.5002070078
O   O14       1.0  0.84953  0.47486  0.49259  1.0000 -0.5002070078
O   O15       1.0  0.51773  0.14306  0.49259  1.0000 -0.5002070078
O   O16       1.0  0.34953  0.85694  0.37467  1.0000 -0.5002070078
O   O17       1.0  0.28117  0.23442  0.60117  1.0000 -0.6889902809
O   O18       1.0  0.36675  0.76558  0.04675  1.0000 -0.6889902809
O   O19       1.0  0.78117  0.18000  0.04675  1.0000 -0.6889902809
O   O20       1.0  0.86675  0.82000  0.60117  1.0000 -0.6889902809
