# DDEC6 charges by PACMAN v1.1 (https://github.com/mtap-research/PACMAN-charge/)
data_2007[Nd][nan]3[FSR]1
_chemical_formula_sum              "Nd4 H48 C36 O28"
_cell_length_a       7.768
_cell_length_b       14.344
_cell_length_c       16.125
_cell_angle_alpha    92.98
_cell_angle_beta     95.605
_cell_angle_gamma    99.593

_symmetry_space_group_name_H-M    "P 1"
_symmetry_Int_Tables_number       1

loop_
  _symmetry_equiv_pos_as_xyz
  'x, y, z'

loop_
  _atom_site_type_symbol
  _atom_site_label
  _atom_site_symmetry_multiplicity
  _atom_site_fract_x
  _atom_site_fract_y
  _atom_site_fract_z
  _atom_site_occupancy
  _atom_site_charge
Nd  Nd1       1.0  0.22432  0.24325  0.27595  1.0000 2.0716509413
Nd  Nd2       1.0  0.77568  0.75675  0.72405  1.0000 2.0716509413
Nd  Nd3       1.0  0.27176  0.69878  0.78760  1.0000 2.0716509413
Nd  Nd4       1.0  0.72824  0.30122  0.21240  1.0000 2.0716509413
H   H1        1.0  0.72000  0.94700  0.91490  1.0000 0.1484435714
H   H2        1.0  0.28000  0.05300  0.08510  1.0000 0.1484435714
H   H3        1.0  0.79810  0.85960  0.94550  1.0000 0.1484435714
H   H4        1.0  0.20190  0.14040  0.05450  1.0000 0.1484435714
H   H5        1.0  0.70450  0.47340  0.41950  1.0000 0.1484435714
H   H6        1.0  0.29550  0.52660  0.58050  1.0000 0.1484435714
H   H7        1.0  0.76490  0.37510  0.42410  1.0000 0.1484435714
H   H8        1.0  0.23510  0.62490  0.57590  1.0000 0.1484435714
H   H9        1.0  0.16770  0.35290  0.98810  1.0000 0.1322217277
H   H10       1.0  0.83230  0.64710  0.01190  1.0000 0.1322217277
H   H11       1.0  0.25250  0.44830  0.03850  1.0000 0.1415863525
H   H12       1.0  0.74750  0.55170  0.96150  1.0000 0.1415863525
H   H13       1.0  0.90080  0.41210  0.96560  1.0000 0.0888320683
H   H14       1.0  0.09920  0.58790  0.03440  1.0000 0.0888320683
H   H15       1.0  0.05410  0.46960  0.92310  1.0000 0.0888320683
H   H16       1.0  0.94590  0.53040  0.07690  1.0000 0.0888320683
H   H17       1.0  0.67150  0.03130  0.39720  1.0000 0.1322217277
H   H18       1.0  0.32850  0.96870  0.60280  1.0000 0.1322217277
H   H19       1.0  0.70810  0.11510  0.46600  1.0000 0.1322217277
H   H20       1.0  0.29190  0.88490  0.53400  1.0000 0.1322217277
H   H21       1.0  0.38500  0.99600  0.42730  1.0000 0.0888320683
H   H22       1.0  0.61500  0.00400  0.57270  1.0000 0.0888320683
H   H23       1.0  0.42070  0.08030  0.49580  1.0000 0.0838154446
H   H24       1.0  0.57930  0.91970  0.50420  1.0000 0.0838154446
H   H25       1.0  0.83010  0.42760  0.69190  1.0000 0.1484435714
H   H26       1.0  0.16990  0.57240  0.30810  1.0000 0.1484435714
H   H27       1.0  0.72170  0.51020  0.68170  1.0000 0.1484435714
H   H28       1.0  0.27830  0.48980  0.31830  1.0000 0.1484435714
H   H29       1.0  0.68160  0.04520  0.16610  1.0000 0.1415863525
H   H30       1.0  0.31840  0.95480  0.83390  1.0000 0.1415863525
H   H31       1.0  0.79020  0.96690  0.19400  1.0000 0.1415863525
H   H32       1.0  0.20980  0.03310  0.80600  1.0000 0.1415863525
H   H33       1.0  0.92660  0.44850  0.56100  1.0000 0.1011948831
H   H34       1.0  0.07340  0.55150  0.43900  1.0000 0.1011948831
H   H35       1.0  0.83660  0.53770  0.55140  1.0000 0.111564577
H   H36       1.0  0.16340  0.46230  0.44860  1.0000 0.111564577
H   H37       1.0  0.56090  0.44000  0.54180  1.0000 0.1011948831
H   H38       1.0  0.43910  0.56000  0.45820  1.0000 0.1011948831
H   H39       1.0  0.65370  0.35110  0.54860  1.0000 0.1011948831
H   H40       1.0  0.34630  0.64890  0.45140  1.0000 0.1011948831
H   H41       1.0  0.92230  0.97740  0.06920  1.0000 0.1011948831
H   H42       1.0  0.07770  0.02260  0.93080  1.0000 0.1011948831
H   H43       1.0  0.80620  0.05190  0.04120  1.0000 0.111564577
H   H44       1.0  0.19380  0.94810  0.95880  1.0000 0.111564577
H   H45       1.0  0.66610  0.86220  0.06440  1.0000 0.1011948831
H   H46       1.0  0.33390  0.13780  0.93560  1.0000 0.1011948831
H   H47       1.0  0.55460  0.93700  0.03200  1.0000 0.1011948831
H   H48       1.0  0.44540  0.06300  0.96800  1.0000 0.1011948831
C   C1        1.0  0.54710  0.82460  0.89380  1.0000 0.6414916407
C   C2        1.0  0.45290  0.17540  0.10620  1.0000 0.6414916407
C   C3        1.0  0.50800  0.36380  0.38160  1.0000 0.6330380034
C   C4        1.0  0.49200  0.63620  0.61840  1.0000 0.6330380034
C   C5        1.0  0.08730  0.36360  0.10320  1.0000 0.677898724
C   C6        1.0  0.91270  0.63640  0.89680  1.0000 0.677898724
C   C7        1.0  0.57130  0.14640  0.36020  1.0000 0.6715426635
C   C8        1.0  0.42870  0.85360  0.63980  1.0000 0.6715426635
C   C9        1.0  0.69480  0.88950  0.94400  1.0000 -0.3296269622
C   C10       1.0  0.30520  0.11050  0.05600  1.0000 -0.3296269622
C   C11       1.0  0.67150  0.40930  0.43600  1.0000 -0.3296269622
C   C12       1.0  0.32850  0.59070  0.56400  1.0000 -0.3296269622
C   C13       1.0  0.14340  0.40390  0.02460  1.0000 -0.3370278288
C   C14       1.0  0.85660  0.59610  0.97540  1.0000 -0.3370278288
C   C15       1.0  0.01300  0.45440  0.97650  1.0000 -0.1367194165
C   C16       1.0  0.98700  0.54560  0.02350  1.0000 -0.1367194165
C   C17       1.0  0.61900  0.07980  0.42450  1.0000 -0.3296269622
C   C18       1.0  0.38100  0.92020  0.57550  1.0000 -0.3296269622
C   C19       1.0  0.47390  0.03220  0.46840  1.0000 -0.1367194165
C   C20       1.0  0.52610  0.96780  0.53160  1.0000 -0.1321877498
C   C21       1.0  0.94200  0.09750  0.19600  1.0000 0.6414916407
C   C22       1.0  0.05800  0.90250  0.80400  1.0000 0.6414916407
C   C23       1.0  0.82750  0.48800  0.66790  1.0000 -0.3296269622
C   C24       1.0  0.17250  0.51200  0.33210  1.0000 -0.3296269622
C   C25       1.0  0.98520  0.55790  0.70380  1.0000 0.6463431906
C   C26       1.0  0.01480  0.44210  0.29620  1.0000 0.6463431906
C   C27       1.0  0.79130  0.02230  0.16190  1.0000 -0.3171035308
C   C28       1.0  0.20870  0.97770  0.83810  1.0000 -0.3171035308
C   C29       1.0  0.82500  0.47560  0.57350  1.0000 -0.1367194165
C   C30       1.0  0.17500  0.52440  0.42650  1.0000 -0.1367194165
C   C31       1.0  0.66400  0.41440  0.52910  1.0000 -0.1210333068
C   C32       1.0  0.33600  0.58560  0.47090  1.0000 -0.1210333068
C   C33       1.0  0.80870  0.99620  0.07260  1.0000 -0.1321877498
C   C34       1.0  0.19130  0.00380  0.92740  1.0000 -0.1321877498
C   C35       1.0  0.66800  0.91710  0.03170  1.0000 -0.1210333068
C   C36       1.0  0.33200  0.08290  0.96830  1.0000 -0.1210333068
O   O1        1.0  0.40190  0.80380  0.91900  1.0000 -0.5486230958
O   O2        1.0  0.59810  0.19620  0.08100  1.0000 -0.5486230958
O   O3        1.0  0.44660  0.60000  0.86930  1.0000 -0.3171035308
O   O4        1.0  0.55340  0.40000  0.13070  1.0000 -0.3171035308
O   O5        1.0  0.37110  0.33590  0.41210  1.0000 -0.5486230958
O   O6        1.0  0.62890  0.66410  0.58790  1.0000 -0.5486230958
O   O7        1.0  0.92890  0.35020  0.11390  1.0000 -0.6420102922
O   O8        1.0  0.07110  0.64980  0.88610  1.0000 -0.6420102922
O   O9        1.0  0.41360  0.14880  0.34320  1.0000 -0.6186680802
O   O10       1.0  0.58640  0.85120  0.65680  1.0000 -0.6186680802
O   O11       1.0  0.03750  0.17230  0.37820  1.0000 -0.2916232753
O   O12       1.0  0.96250  0.82770  0.62180  1.0000 -0.2953321148
O   O13       1.0  0.20850  0.34160  0.15510  1.0000 -0.645571034
O   O14       1.0  0.79150  0.65840  0.84490  1.0000 -0.6420102922
O   O15       1.0  0.09000  0.07850  0.21490  1.0000 -0.5628943849
O   O16       1.0  0.91000  0.92150  0.78510  1.0000 -0.5628943849
O   O17       1.0  0.69710  0.19430  0.32890  1.0000 -0.6186680802
O   O18       1.0  0.30290  0.80570  0.67110  1.0000 -0.6143017221
O   O19       1.0  0.91840  0.18290  0.20290  1.0000 -0.7082177062
O   O20       1.0  0.08160  0.81710  0.79710  1.0000 -0.7082177062
O   O21       1.0  0.57490  0.79310  0.82230  1.0000 -0.7082177062
O   O22       1.0  0.42510  0.20690  0.17770  1.0000 -0.7082177062
O   O23       1.0  0.51800  0.35450  0.30360  1.0000 -0.7014981915
O   O24       1.0  0.48200  0.64550  0.69640  1.0000 -0.7014981915
O   O25       1.0  0.98100  0.64630  0.69700  1.0000 -0.7174008299
O   O26       1.0  0.01900  0.35370  0.30300  1.0000 -0.7174008299
O   O27       1.0  0.12080  0.53240  0.73490  1.0000 -0.5660073567
O   O28       1.0  0.87920  0.46760  0.26510  1.0000 -0.5660073567
