# DDEC6 charges by PACMAN v1.1 (https://github.com/mtap-research/PACMAN-charge/)
data_2007[Fe][dia]3[FSR]14
_chemical_formula_sum              "Fe12 H24 C24 O48"
_cell_length_a       11.4525
_cell_length_b       9.9803
_cell_length_c       18.5592
_cell_angle_alpha    90
_cell_angle_beta     126.814
_cell_angle_gamma    90

_symmetry_space_group_name_H-M    "P 1"
_symmetry_Int_Tables_number       1

loop_
  _symmetry_equiv_pos_as_xyz
  'x, y, z'

loop_
  _atom_site_type_symbol
  _atom_site_label
  _atom_site_symmetry_multiplicity
  _atom_site_fract_x
  _atom_site_fract_y
  _atom_site_fract_z
  _atom_site_occupancy
  _atom_site_charge
Fe  Fe1       1.0  0.62223  0.92377  0.86632  1.0000 0.90123322
Fe  Fe2       1.0  0.37777  0.42377  0.63368  1.0000 0.90123322
Fe  Fe3       1.0  0.37777  0.07623  0.13368  1.0000 0.90123322
Fe  Fe4       1.0  0.62223  0.57623  0.36632  1.0000 0.90123322
Fe  Fe5       1.0  0.56851  0.88453  0.30802  1.0000 0.90123322
Fe  Fe6       1.0  0.43149  0.38453  0.19198  1.0000 0.90123322
Fe  Fe7       1.0  0.43149  0.11547  0.69198  1.0000 0.90123322
Fe  Fe8       1.0  0.56851  0.61547  0.80802  1.0000 0.90123322
Fe  Fe9       1.0  0.50000  0.00000  0.00000  1.0000 0.9330495684
Fe  Fe10      1.0  0.50000  0.50000  0.50000  1.0000 0.9330495684
Fe  Fe11      1.0  0.00000  0.00000  0.00000  1.0000 0.952020654
Fe  Fe12      1.0  0.00000  0.50000  0.50000  1.0000 0.952020654
H   H1        1.0  0.47200  0.75800  0.62920  1.0000 0.1098111165
H   H2        1.0  0.52800  0.25800  0.87080  1.0000 0.1098111165
H   H3        1.0  0.52800  0.24200  0.37080  1.0000 0.1098111165
H   H4        1.0  0.47200  0.74200  0.12920  1.0000 0.1098111165
H   H5        1.0  0.21000  0.05600  0.73870  1.0000 0.0955820321
H   H6        1.0  0.79000  0.55600  0.76130  1.0000 0.0948396786
H   H7        1.0  0.79000  0.94400  0.26130  1.0000 0.0948396786
H   H8        1.0  0.21000  0.44400  0.23870  1.0000 0.0948396786
H   H9        1.0  0.50200  0.62000  0.94840  1.0000 0.1167763709
H   H10       1.0  0.49800  0.12000  0.55160  1.0000 0.1167763709
H   H11       1.0  0.49800  0.38000  0.05160  1.0000 0.1167763709
H   H12       1.0  0.50200  0.88000  0.44840  1.0000 0.1167763709
H   H13       1.0  0.75500  0.20600  0.77700  1.0000 0.1098111165
H   H14       1.0  0.24500  0.70600  0.72300  1.0000 0.1098111165
H   H15       1.0  0.24500  0.79400  0.22300  1.0000 0.1098111165
H   H16       1.0  0.75500  0.29400  0.27700  1.0000 0.1098111165
H   H17       1.0  0.76900  0.14600  0.07290  1.0000 0.1310818284
H   H18       1.0  0.23100  0.64600  0.42710  1.0000 0.1310818284
H   H19       1.0  0.23100  0.85400  0.92710  1.0000 0.1310818284
H   H20       1.0  0.76900  0.35400  0.57290  1.0000 0.1310818284
H   H21       1.0  0.98000  0.70800  0.97830  1.0000 0.1167763709
H   H22       1.0  0.02000  0.20800  0.52170  1.0000 0.1167763709
H   H23       1.0  0.02000  0.29200  0.02170  1.0000 0.1167763709
H   H24       1.0  0.98000  0.79200  0.47830  1.0000 0.1167763709
C   C1        1.0  0.48640  0.83300  0.66714  1.0000 0.4409422093
C   C2        1.0  0.51360  0.33300  0.83286  1.0000 0.4409422093
C   C3        1.0  0.51360  0.16700  0.33286  1.0000 0.4409422093
C   C4        1.0  0.48640  0.66700  0.16714  1.0000 0.4409422093
C   C5        1.0  0.31130  0.03050  0.79349  1.0000 0.4409422093
C   C6        1.0  0.68870  0.53050  0.70651  1.0000 0.4409422093
C   C7        1.0  0.68870  0.96950  0.20651  1.0000 0.4409422093
C   C8        1.0  0.31130  0.46950  0.29349  1.0000 0.4409422093
C   C9        1.0  0.51450  0.71330  0.94357  1.0000 0.4409422093
C   C10       1.0  0.48550  0.21330  0.55643  1.0000 0.4409422093
C   C11       1.0  0.48550  0.28670  0.05643  1.0000 0.4409422093
C   C12       1.0  0.51450  0.78670  0.44357  1.0000 0.4409422093
C   C13       1.0  0.76920  0.13820  0.81810  1.0000 0.4337168424
C   C14       1.0  0.23080  0.63820  0.68190  1.0000 0.4337168424
C   C15       1.0  0.23080  0.86180  0.18190  1.0000 0.4337168424
C   C16       1.0  0.76920  0.36180  0.31810  1.0000 0.4337168424
C   C17       1.0  0.77700  0.09560  0.03462  1.0000 0.4643178869
C   C18       1.0  0.22300  0.59560  0.46538  1.0000 0.4643178869
C   C19       1.0  0.22300  0.90440  0.96538  1.0000 0.465346077
C   C20       1.0  0.77700  0.40440  0.53462  1.0000 0.4643178869
C   C21       1.0  0.87540  0.72570  0.93841  1.0000 0.465346077
C   C22       1.0  0.12460  0.22570  0.56159  1.0000 0.4643178869
C   C23       1.0  0.12460  0.27430  0.06159  1.0000 0.4643178869
C   C24       1.0  0.87540  0.77430  0.43841  1.0000 0.4643178869
O   O1        1.0  0.55382  0.80613  0.75033  1.0000 -0.5383950619
O   O2        1.0  0.44618  0.30613  0.74967  1.0000 -0.5383950619
O   O3        1.0  0.44618  0.19387  0.24967  1.0000 -0.5383950619
O   O4        1.0  0.55382  0.69387  0.25033  1.0000 -0.5383950619
O   O5        1.0  0.43473  0.94314  0.63111  1.0000 -0.4712281437
O   O6        1.0  0.56527  0.44314  0.86889  1.0000 -0.4712281437
O   O7        1.0  0.56527  0.05686  0.36889  1.0000 -0.4712281437
O   O8        1.0  0.43473  0.55686  0.13111  1.0000 -0.4712281437
O   O9        1.0  0.41238  0.01358  0.78522  1.0000 -0.5344211669
O   O10       1.0  0.58762  0.51358  0.71478  1.0000 -0.5383950619
O   O11       1.0  0.58762  0.98642  0.21478  1.0000 -0.5383950619
O   O12       1.0  0.41238  0.48642  0.28522  1.0000 -0.5383950619
O   O13       1.0  0.32060  0.01456  0.86263  1.0000 -0.4712281437
O   O14       1.0  0.67940  0.51456  0.63737  1.0000 -0.4712281437
O   O15       1.0  0.67940  0.98544  0.13737  1.0000 -0.4788128679
O   O16       1.0  0.32060  0.48544  0.36263  1.0000 -0.4712281437
O   O17       1.0  0.54422  0.74544  0.89006  1.0000 -0.5383950619
O   O18       1.0  0.45578  0.24544  0.60994  1.0000 -0.5383950619
O   O19       1.0  0.45578  0.25456  0.10994  1.0000 -0.5383950619
O   O20       1.0  0.54422  0.75456  0.39006  1.0000 -0.5383950619
O   O21       1.0  0.50468  0.79106  0.99175  1.0000 -0.4919543327
O   O22       1.0  0.49532  0.29106  0.50825  1.0000 -0.4919543327
O   O23       1.0  0.49532  0.20894  0.00825  1.0000 -0.4919543327
O   O24       1.0  0.50468  0.70894  0.49175  1.0000 -0.4919543327
O   O25       1.0  0.65597  0.08570  0.80436  1.0000 -0.5383950619
O   O26       1.0  0.34403  0.58570  0.69564  1.0000 -0.5383950619
O   O27       1.0  0.34403  0.91430  0.19564  1.0000 -0.5383950619
O   O28       1.0  0.65597  0.41430  0.30436  1.0000 -0.5383950619
O   O29       1.0  0.89647  0.11513  0.88194  1.0000 -0.4712281437
O   O30       1.0  0.10353  0.61513  0.61806  1.0000 -0.4712281437
O   O31       1.0  0.10353  0.88487  0.11806  1.0000 -0.4712281437
O   O32       1.0  0.89647  0.38487  0.38194  1.0000 -0.4712281437
O   O33       1.0  0.66458  0.02476  0.97768  1.0000 -0.5538344444
O   O34       1.0  0.33542  0.52476  0.52232  1.0000 -0.5538344444
O   O35       1.0  0.33542  0.97524  0.02232  1.0000 -0.5538344444
O   O36       1.0  0.66458  0.47524  0.47768  1.0000 -0.5538344444
O   O37       1.0  0.88999  0.10313  0.04153  1.0000 -0.4788128679
O   O38       1.0  0.11001  0.60313  0.45847  1.0000 -0.4788128679
O   O39       1.0  0.11001  0.89687  0.95847  1.0000 -0.4788128679
O   O40       1.0  0.88999  0.39687  0.54153  1.0000 -0.4788128679
O   O41       1.0  0.83472  0.84662  0.93385  1.0000 -0.5383950619
O   O42       1.0  0.16528  0.34662  0.56615  1.0000 -0.5383950619
O   O43       1.0  0.16528  0.15338  0.06615  1.0000 -0.5383950619
O   O44       1.0  0.83472  0.65338  0.43385  1.0000 -0.5383950619
O   O45       1.0  0.79476  0.62902  0.89717  1.0000 -0.4788128679
O   O46       1.0  0.20524  0.12902  0.60283  1.0000 -0.4788128679
O   O47       1.0  0.20524  0.37098  0.10283  1.0000 -0.4788128679
O   O48       1.0  0.79476  0.87098  0.39717  1.0000 -0.4788128679
