# DDEC6 charges by PACMAN v1.1 (https://github.com/mtap-research/PACMAN-charge/)
data_2007[CuCe][nan]3[FSR]1
_chemical_formula_sum              "Ce4 Cu4 H32 C56 N8 O32"
_cell_length_a       11.5726
_cell_length_b       11.5726
_cell_length_c       17.3954
_cell_angle_alpha    74.9811
_cell_angle_beta     105.019
_cell_angle_gamma    132.395

_symmetry_space_group_name_H-M    "P 1"
_symmetry_Int_Tables_number       1

loop_
  _symmetry_equiv_pos_as_xyz
  'x, y, z'

loop_
  _atom_site_type_symbol
  _atom_site_label
  _atom_site_symmetry_multiplicity
  _atom_site_fract_x
  _atom_site_fract_y
  _atom_site_fract_z
  _atom_site_occupancy
  _atom_site_charge
Ce  Ce1       1.0  0.30253  0.33013  0.92695  1.0000 1.9564505339
Ce  Ce2       1.0  0.33013  0.30253  0.57305  1.0000 1.9564505339
Ce  Ce3       1.0  0.69747  0.66987  0.07305  1.0000 1.9564505339
Ce  Ce4       1.0  0.66987  0.69747  0.42695  1.0000 1.9564505339
Cu  Cu1       1.0  0.23536  0.90544  0.13590  1.0000 0.3190381125
Cu  Cu2       1.0  0.90544  0.23536  0.36410  1.0000 0.3190381125
Cu  Cu3       1.0  0.76464  0.09456  0.86410  1.0000 0.3190381125
Cu  Cu4       1.0  0.09456  0.76464  0.63590  1.0000 0.3190381125
H   H1        1.0  0.63740  0.44020  0.77960  1.0000 0.149613601
H   H2        1.0  0.44020  0.63740  0.72040  1.0000 0.149613601
H   H3        1.0  0.36260  0.55980  0.22040  1.0000 0.149613601
H   H4        1.0  0.55980  0.36260  0.27960  1.0000 0.149613601
H   H5        1.0  0.79710  0.49950  0.69160  1.0000 0.1113357142
H   H6        1.0  0.49950  0.79710  0.80840  1.0000 0.1113357142
H   H7        1.0  0.20290  0.50050  0.30840  1.0000 0.1113357142
H   H8        1.0  0.50050  0.20290  0.19160  1.0000 0.1113357142
H   H9        1.0  0.13950  0.90870  0.76830  1.0000 0.1183999971
H   H10       1.0  0.90870  0.13950  0.73170  1.0000 0.1183999971
H   H11       1.0  0.86050  0.09130  0.23170  1.0000 0.1183999971
H   H12       1.0  0.09130  0.86050  0.26830  1.0000 0.1183999971
H   H13       1.0  0.99380  0.85920  0.85660  1.0000 0.149613601
H   H14       1.0  0.85920  0.99380  0.64340  1.0000 0.149613601
H   H15       1.0  0.00620  0.14080  0.14340  1.0000 0.149613601
H   H16       1.0  0.14080  0.00620  0.35660  1.0000 0.149613601
H   H17       1.0  0.53470  0.81510  0.05490  1.0000 0.1433166236
H   H18       1.0  0.81510  0.53470  0.44510  1.0000 0.1433166236
H   H19       1.0  0.46530  0.18490  0.94510  1.0000 0.1433166236
H   H20       1.0  0.18490  0.46530  0.55490  1.0000 0.1433166236
H   H21       1.0  0.48140  0.91760  0.12120  1.0000 0.1113357142
H   H22       1.0  0.91760  0.48140  0.37880  1.0000 0.1113357142
H   H23       1.0  0.51860  0.08240  0.87880  1.0000 0.1113357142
H   H24       1.0  0.08240  0.51860  0.62120  1.0000 0.1113357142
H   H25       1.0  0.06860  0.71060  0.00230  1.0000 0.1183999971
H   H26       1.0  0.71060  0.06860  0.49770  1.0000 0.1183999971
H   H27       1.0  0.93140  0.28940  0.99770  1.0000 0.1183999971
H   H28       1.0  0.28940  0.93140  0.50230  1.0000 0.1183999971
H   H29       1.0  0.11300  0.61020  0.92840  1.0000 0.1344442189
H   H30       1.0  0.61020  0.11300  0.57160  1.0000 0.1344442189
H   H31       1.0  0.88700  0.38980  0.07160  1.0000 0.1344442189
H   H32       1.0  0.38980  0.88700  0.42840  1.0000 0.1344442189
C   C1        1.0  0.68490  0.60310  0.88140  1.0000 0.5952967525
C   C2        1.0  0.60310  0.68490  0.61860  1.0000 0.5952967525
C   C3        1.0  0.31510  0.39690  0.11860  1.0000 0.5952967525
C   C4        1.0  0.39690  0.31510  0.38140  1.0000 0.5952967525
C   C5        1.0  0.79750  0.64890  0.82630  1.0000 0.0225313766
C   C6        1.0  0.64890  0.79750  0.67370  1.0000 0.0225313766
C   C7        1.0  0.20250  0.35110  0.17370  1.0000 0.0225313766
C   C8        1.0  0.35110  0.20250  0.32630  1.0000 0.0225313766
C   C9        1.0  0.73870  0.53730  0.77720  1.0000 -0.1513123616
C   C10       1.0  0.53730  0.73870  0.72280  1.0000 -0.1513123616
C   C11       1.0  0.26130  0.46270  0.22280  1.0000 -0.1513123616
C   C12       1.0  0.46270  0.26130  0.27720  1.0000 -0.1513123616
C   C13       1.0  0.83470  0.57330  0.72410  1.0000 0.0870737702
C   C14       1.0  0.57330  0.83470  0.77590  1.0000 0.0870737702
C   C15       1.0  0.16530  0.42670  0.27590  1.0000 0.0870737702
C   C16       1.0  0.42670  0.16530  0.22410  1.0000 0.0870737702
C   C17       1.0  0.03600  0.81400  0.76970  1.0000 0.0637888804
C   C18       1.0  0.81400  0.03600  0.73030  1.0000 0.0637888804
C   C19       1.0  0.96400  0.18600  0.23030  1.0000 0.0637888804
C   C20       1.0  0.18600  0.96400  0.26970  1.0000 0.0637888804
C   C21       1.0  0.94910  0.78490  0.82240  1.0000 -0.1513123616
C   C22       1.0  0.78490  0.94910  0.67760  1.0000 -0.1513123616
C   C23       1.0  0.05090  0.21510  0.17760  1.0000 -0.1513123616
C   C24       1.0  0.21510  0.05090  0.32240  1.0000 -0.1513123616
C   C25       1.0  0.35190  0.60810  0.95000  1.0000 0.5775641919
C   C26       1.0  0.60810  0.35190  0.55000  1.0000 0.5775641919
C   C27       1.0  0.64810  0.39190  0.05000  1.0000 0.5775641919
C   C28       1.0  0.39190  0.64810  0.45000  1.0000 0.5775641919
C   C29       1.0  0.32640  0.69560  0.98600  1.0000 0.028266114
C   C30       1.0  0.69560  0.32640  0.51400  1.0000 0.028266114
C   C31       1.0  0.67360  0.30440  0.01400  1.0000 0.028266114
C   C32       1.0  0.30440  0.67360  0.48600  1.0000 0.028266114
C   C33       1.0  0.43840  0.79160  0.04310  1.0000 -0.1407955318
C   C34       1.0  0.79160  0.43840  0.45690  1.0000 -0.1407955318
C   C35       1.0  0.56160  0.20840  0.95690  1.0000 -0.1407955318
C   C36       1.0  0.20840  0.56160  0.54310  1.0000 -0.1407955318
C   C37       1.0  0.40420  0.85180  0.08270  1.0000 0.0225313766
C   C38       1.0  0.85180  0.40420  0.41730  1.0000 0.0225313766
C   C39       1.0  0.59580  0.14820  0.91730  1.0000 0.0225313766
C   C40       1.0  0.14820  0.59580  0.58270  1.0000 0.0225313766
C   C41       1.0  0.16470  0.73330  0.01340  1.0000 0.0779939953
C   C42       1.0  0.73330  0.16470  0.48660  1.0000 0.0779939953
C   C43       1.0  0.83530  0.26670  0.98660  1.0000 0.0779939953
C   C44       1.0  0.26670  0.83530  0.51340  1.0000 0.0779939953
C   C45       1.0  0.18860  0.66940  0.96920  1.0000 -0.1795903797
C   C46       1.0  0.66940  0.18860  0.53080  1.0000 -0.1795903797
C   C47       1.0  0.81140  0.33060  0.03080  1.0000 -0.1795903797
C   C48       1.0  0.33060  0.81140  0.46920  1.0000 -0.1795903797
C   C49       1.0  0.94840  0.01980  0.97620  1.0000 0.4824686766
C   C50       1.0  0.01980  0.94840  0.52380  1.0000 0.4824686766
C   C51       1.0  0.05160  0.98020  0.02380  1.0000 0.4824686766
C   C52       1.0  0.98020  0.05160  0.47620  1.0000 0.4824686766
C   C53       1.0  0.21800  0.29820  0.73060  1.0000 0.4692954243
C   C54       1.0  0.29820  0.21800  0.76940  1.0000 0.4692954243
C   C55       1.0  0.78200  0.70180  0.26940  1.0000 0.4692954243
C   C56       1.0  0.70180  0.78200  0.23060  1.0000 0.4692954243
N   N1        1.0  0.97840  0.71160  0.71980  1.0000 -0.1795903797
N   N2        1.0  0.71160  0.97840  0.78020  1.0000 -0.1795903797
N   N3        1.0  0.02160  0.28840  0.28020  1.0000 -0.1795903797
N   N4        1.0  0.28840  0.02160  0.21980  1.0000 -0.1795903797
N   N5        1.0  0.26700  0.82300  0.06980  1.0000 -0.1795903797
N   N6        1.0  0.82300  0.26700  0.43020  1.0000 -0.1795903797
N   N7        1.0  0.73300  0.17700  0.93020  1.0000 -0.1795903797
N   N8        1.0  0.17700  0.73300  0.56980  1.0000 -0.1795903797
O   O1        1.0  0.54590  0.50910  0.86490  1.0000 -0.5529271841
O   O2        1.0  0.50910  0.54590  0.63510  1.0000 -0.5529271841
O   O3        1.0  0.45410  0.49090  0.13510  1.0000 -0.5529271841
O   O4        1.0  0.49090  0.45410  0.36490  1.0000 -0.5529271841
O   O5        1.0  0.76170  0.68310  0.94310  1.0000 -0.6614779114
O   O6        1.0  0.68310  0.76170  0.55690  1.0000 -0.6614779114
O   O7        1.0  0.23830  0.31690  0.05690  1.0000 -0.6614779114
O   O8        1.0  0.31690  0.23830  0.44310  1.0000 -0.6614779114
O   O9        1.0  0.24100  0.51300  0.90050  1.0000 -0.5928905263
O   O10       1.0  0.51300  0.24100  0.59950  1.0000 -0.5928905263
O   O11       1.0  0.75900  0.48700  0.09950  1.0000 -0.5928905263
O   O12       1.0  0.48700  0.75900  0.40050  1.0000 -0.5928905263
O   O13       1.0  0.47520  0.62620  0.97220  1.0000 -0.6690199851
O   O14       1.0  0.62620  0.47520  0.52780  1.0000 -0.6690199851
O   O15       1.0  0.52480  0.37380  0.02780  1.0000 -0.6690199851
O   O16       1.0  0.37380  0.52480  0.47220  1.0000 -0.6690199851
O   O17       1.0  0.00940  0.13760  0.92370  1.0000 -0.5588021159
O   O18       1.0  0.13760  0.00940  0.57630  1.0000 -0.5588021159
O   O19       1.0  0.99060  0.86240  0.07630  1.0000 -0.5588021159
O   O20       1.0  0.86240  0.99060  0.42370  1.0000 -0.5588021159
O   O21       1.0  0.80970  0.93250  0.99600  1.0000 -0.5928905263
O   O22       1.0  0.93250  0.80970  0.50400  1.0000 -0.5928905263
O   O23       1.0  0.19030  0.06750  0.00400  1.0000 -0.5928905263
O   O24       1.0  0.06750  0.19030  0.49600  1.0000 -0.5928905263
O   O25       1.0  0.20320  0.34740  0.77970  1.0000 -0.5588021159
O   O26       1.0  0.34740  0.20320  0.72030  1.0000 -0.5588021159
O   O27       1.0  0.79680  0.65260  0.22030  1.0000 -0.5588021159
O   O28       1.0  0.65260  0.79680  0.27970  1.0000 -0.5588021159
O   O29       1.0  0.17480  0.29240  0.65740  1.0000 -0.5697569131
O   O30       1.0  0.29240  0.17480  0.84260  1.0000 -0.5697569131
O   O31       1.0  0.82520  0.70760  0.34260  1.0000 -0.5697569131
O   O32       1.0  0.70760  0.82520  0.15740  1.0000 -0.5697569131
