# DDEC6 charges by PACMAN v1.1 (https://github.com/mtap-research/PACMAN-charge/)
data_2007[Fe][dia]3[FSR]15
_chemical_formula_sum              "Fe12 H24 C24 O48"
_cell_length_a       11.52
_cell_length_b       10.0853
_cell_length_c       18.6462
_cell_angle_alpha    90
_cell_angle_beta     126.676
_cell_angle_gamma    90

_symmetry_space_group_name_H-M    "P 1"
_symmetry_Int_Tables_number       1

loop_
  _symmetry_equiv_pos_as_xyz
  'x, y, z'

loop_
  _atom_site_type_symbol
  _atom_site_label
  _atom_site_symmetry_multiplicity
  _atom_site_fract_x
  _atom_site_fract_y
  _atom_site_fract_z
  _atom_site_occupancy
  _atom_site_charge
Fe  Fe1       1.0  0.62222  0.92791  0.86639  1.0000 0.8795728673
Fe  Fe2       1.0  0.37778  0.42791  0.63361  1.0000 0.8795728673
Fe  Fe3       1.0  0.37778  0.07209  0.13361  1.0000 0.8795728673
Fe  Fe4       1.0  0.62222  0.57209  0.36639  1.0000 0.8795728673
Fe  Fe5       1.0  0.56544  0.87800  0.30584  1.0000 0.9059363891
Fe  Fe6       1.0  0.43456  0.37800  0.19416  1.0000 0.9059363891
Fe  Fe7       1.0  0.43456  0.12200  0.69416  1.0000 0.9059363891
Fe  Fe8       1.0  0.56544  0.62200  0.80584  1.0000 0.9059363891
Fe  Fe9       1.0  0.50000  0.00000  0.00000  1.0000 0.939704596
Fe  Fe10      1.0  0.50000  0.50000  0.50000  1.0000 0.939704596
Fe  Fe11      1.0  0.00000  0.00000  0.00000  1.0000 0.9457482089
Fe  Fe12      1.0  0.00000  0.50000  0.50000  1.0000 0.9457482089
H   H1        1.0  0.47400  0.77200  0.62840  1.0000 0.1096855143
H   H2        1.0  0.52600  0.27200  0.87160  1.0000 0.1096855143
H   H3        1.0  0.52600  0.22800  0.37160  1.0000 0.1096855143
H   H4        1.0  0.47400  0.72800  0.12840  1.0000 0.1096855143
H   H5        1.0  0.21500  0.06100  0.74120  1.0000 0.0973499053
H   H6        1.0  0.78500  0.56100  0.75880  1.0000 0.0973499053
H   H7        1.0  0.78500  0.93900  0.25880  1.0000 0.0973499053
H   H8        1.0  0.21500  0.43900  0.24120  1.0000 0.0973499053
H   H9        1.0  0.50400  0.62300  0.94500  1.0000 0.1096855143
H   H10       1.0  0.49600  0.12300  0.55500  1.0000 0.1096855143
H   H11       1.0  0.49600  0.37700  0.05500  1.0000 0.1096855143
H   H12       1.0  0.50400  0.87700  0.44500  1.0000 0.1096855143
H   H13       1.0  0.75500  0.21800  0.78480  1.0000 0.1096855143
H   H14       1.0  0.24500  0.71800  0.71520  1.0000 0.1096855143
H   H15       1.0  0.24500  0.78200  0.21520  1.0000 0.1096855143
H   H16       1.0  0.75500  0.28200  0.28480  1.0000 0.1096855143
H   H17       1.0  0.77400  0.13800  0.07590  1.0000 0.141736661
H   H18       1.0  0.22600  0.63800  0.42410  1.0000 0.141736661
H   H19       1.0  0.22600  0.86200  0.92410  1.0000 0.141736661
H   H20       1.0  0.77400  0.36200  0.57590  1.0000 0.141736661
H   H21       1.0  0.96800  0.71500  0.97250  1.0000 0.141736661
H   H22       1.0  0.03200  0.21500  0.52750  1.0000 0.141736661
H   H23       1.0  0.03200  0.28500  0.02750  1.0000 0.141736661
H   H24       1.0  0.96800  0.78500  0.47250  1.0000 0.141736661
C   C1        1.0  0.48680  0.84110  0.66766  1.0000 0.4404876768
C   C2        1.0  0.51320  0.34110  0.83234  1.0000 0.4404876768
C   C3        1.0  0.51320  0.15890  0.33234  1.0000 0.4404876768
C   C4        1.0  0.48680  0.65890  0.16766  1.0000 0.4404876768
C   C5        1.0  0.31570  0.03690  0.79525  1.0000 0.4404876768
C   C6        1.0  0.68430  0.53690  0.70475  1.0000 0.4404876768
C   C7        1.0  0.68430  0.96310  0.20475  1.0000 0.4404876768
C   C8        1.0  0.31570  0.46310  0.29525  1.0000 0.4404876768
C   C9        1.0  0.51220  0.71850  0.94075  1.0000 0.4404876768
C   C10       1.0  0.48780  0.21850  0.55925  1.0000 0.4404876768
C   C11       1.0  0.48780  0.28150  0.05925  1.0000 0.4404876768
C   C12       1.0  0.51220  0.78150  0.44075  1.0000 0.4404876768
C   C13       1.0  0.77000  0.14310  0.82189  1.0000 0.4336033975
C   C14       1.0  0.23000  0.64310  0.67811  1.0000 0.4336033975
C   C15       1.0  0.23000  0.85690  0.17811  1.0000 0.4336033975
C   C16       1.0  0.77000  0.35690  0.32189  1.0000 0.4336033975
C   C17       1.0  0.77860  0.09160  0.03604  1.0000 0.4583783996
C   C18       1.0  0.22140  0.59160  0.46396  1.0000 0.4583783996
C   C19       1.0  0.22140  0.90840  0.96396  1.0000 0.4583783996
C   C20       1.0  0.77860  0.40840  0.53604  1.0000 0.4583783996
C   C21       1.0  0.87050  0.73100  0.93606  1.0000 0.4583783996
C   C22       1.0  0.12950  0.23100  0.56394  1.0000 0.4583783996
C   C23       1.0  0.12950  0.26900  0.06394  1.0000 0.4583783996
C   C24       1.0  0.87050  0.76900  0.43606  1.0000 0.4583783996
O   O1        1.0  0.55152  0.81188  0.74952  1.0000 -0.53894958
O   O2        1.0  0.44848  0.31188  0.75048  1.0000 -0.53894958
O   O3        1.0  0.44848  0.18812  0.25048  1.0000 -0.53894958
O   O4        1.0  0.55152  0.68812  0.24952  1.0000 -0.53894958
O   O5        1.0  0.43935  0.95124  0.63374  1.0000 -0.4705360368
O   O6        1.0  0.56065  0.45124  0.86626  1.0000 -0.4705360368
O   O7        1.0  0.56065  0.04876  0.36626  1.0000 -0.4705360368
O   O8        1.0  0.43935  0.54876  0.13374  1.0000 -0.4705360368
O   O9        1.0  0.41574  0.02030  0.78671  1.0000 -0.53894958
O   O10       1.0  0.58426  0.52030  0.71329  1.0000 -0.53894958
O   O11       1.0  0.58426  0.97970  0.21329  1.0000 -0.53894958
O   O12       1.0  0.41574  0.47970  0.28671  1.0000 -0.53894958
O   O13       1.0  0.32426  0.01856  0.86340  1.0000 -0.4705360368
O   O14       1.0  0.67574  0.51856  0.63660  1.0000 -0.4705360368
O   O15       1.0  0.67574  0.98144  0.13660  1.0000 -0.4705360368
O   O16       1.0  0.32426  0.48144  0.36340  1.0000 -0.4705360368
O   O17       1.0  0.54161  0.75054  0.88760  1.0000 -0.53894958
O   O18       1.0  0.45839  0.25054  0.61240  1.0000 -0.53894958
O   O19       1.0  0.45839  0.24946  0.11240  1.0000 -0.53894958
O   O20       1.0  0.54161  0.74946  0.38760  1.0000 -0.53894958
O   O21       1.0  0.50149  0.79383  0.98872  1.0000 -0.4919386293
O   O22       1.0  0.49851  0.29383  0.51128  1.0000 -0.4919386293
O   O23       1.0  0.49851  0.20617  0.01128  1.0000 -0.4919386293
O   O24       1.0  0.50149  0.70617  0.48872  1.0000 -0.4919386293
O   O25       1.0  0.65744  0.08968  0.80645  1.0000 -0.53894958
O   O26       1.0  0.34256  0.58968  0.69355  1.0000 -0.53894958
O   O27       1.0  0.34256  0.91032  0.19355  1.0000 -0.53894958
O   O28       1.0  0.65744  0.41032  0.30645  1.0000 -0.53894958
O   O29       1.0  0.89563  0.11856  0.88406  1.0000 -0.4705360368
O   O30       1.0  0.10437  0.61856  0.61594  1.0000 -0.4705360368
O   O31       1.0  0.10437  0.88144  0.11594  1.0000 -0.4705360368
O   O32       1.0  0.89563  0.38144  0.38406  1.0000 -0.4705360368
O   O33       1.0  0.66618  0.02478  0.97905  1.0000 -0.5499696295
O   O34       1.0  0.33382  0.52478  0.52095  1.0000 -0.5499696295
O   O35       1.0  0.33382  0.97522  0.02095  1.0000 -0.5499696295
O   O36       1.0  0.66618  0.47522  0.47905  1.0000 -0.5499696295
O   O37       1.0  0.89025  0.09854  0.04217  1.0000 -0.4808371934
O   O38       1.0  0.10975  0.59854  0.45783  1.0000 -0.4808371934
O   O39       1.0  0.10975  0.90146  0.95783  1.0000 -0.4808371934
O   O40       1.0  0.89025  0.40146  0.54217  1.0000 -0.4808371934
O   O41       1.0  0.83294  0.85028  0.93267  1.0000 -0.53894958
O   O42       1.0  0.16706  0.35028  0.56733  1.0000 -0.53894958
O   O43       1.0  0.16706  0.14972  0.06733  1.0000 -0.53894958
O   O44       1.0  0.83294  0.64972  0.43267  1.0000 -0.53894958
O   O45       1.0  0.78958  0.63629  0.89478  1.0000 -0.4808371934
O   O46       1.0  0.21042  0.13629  0.60522  1.0000 -0.4808371934
O   O47       1.0  0.21042  0.36371  0.10522  1.0000 -0.4808371934
O   O48       1.0  0.78958  0.86371  0.39478  1.0000 -0.4808371934
