# DDEC6 charges by PACMAN v1.1 (https://github.com/mtap-research/PACMAN-charge/)
data_2007[Eu][pcu]3[FSR]1
_chemical_formula_sum              "Eu4 H56 C56 O32"
_cell_length_a       11.716
_cell_length_b       13.693
_cell_length_c       16.5731
_cell_angle_alpha    90
_cell_angle_beta     124.775
_cell_angle_gamma    90

_symmetry_space_group_name_H-M    "P 1"
_symmetry_Int_Tables_number       1

loop_
  _symmetry_equiv_pos_as_xyz
  'x, y, z'

loop_
  _atom_site_type_symbol
  _atom_site_label
  _atom_site_symmetry_multiplicity
  _atom_site_fract_x
  _atom_site_fract_y
  _atom_site_fract_z
  _atom_site_occupancy
  _atom_site_charge
Eu  Eu1       1.0  0.70010  0.95984  0.08658  1.0000 2.0187784608
Eu  Eu2       1.0  0.29990  0.45984  0.41342  1.0000 2.0187784608
Eu  Eu3       1.0  0.29990  0.04016  0.91342  1.0000 2.0187784608
Eu  Eu4       1.0  0.70010  0.54016  0.58658  1.0000 2.0187784608
H   H1        1.0  0.79650  0.23450  0.94100  1.0000 0.1185034196
H   H2        1.0  0.20350  0.73450  0.55900  1.0000 0.1185034196
H   H3        1.0  0.20350  0.76550  0.05900  1.0000 0.1185034196
H   H4        1.0  0.79650  0.26550  0.44100  1.0000 0.1185034196
H   H5        1.0  0.75960  0.33670  0.81780  1.0000 0.1185034196
H   H6        1.0  0.24040  0.83670  0.68220  1.0000 0.1185034196
H   H7        1.0  0.24040  0.66330  0.18220  1.0000 0.1185034196
H   H8        1.0  0.75960  0.16330  0.31780  1.0000 0.1185034196
H   H9        1.0  0.34930  0.29410  0.67130  1.0000 0.1185034196
H   H10       1.0  0.65070  0.79410  0.82870  1.0000 0.1185034196
H   H11       1.0  0.65070  0.70590  0.32870  1.0000 0.1185034196
H   H12       1.0  0.34930  0.20590  0.17130  1.0000 0.1185034196
H   H13       1.0  0.38450  0.18950  0.79320  1.0000 0.1305452164
H   H14       1.0  0.61550  0.68950  0.70680  1.0000 0.1305452164
H   H15       1.0  0.61550  0.81050  0.20680  1.0000 0.1305452164
H   H16       1.0  0.38450  0.31050  0.29320  1.0000 0.1305452164
H   H17       1.0  0.84130  0.87660  0.41140  1.0000 0.1185034196
H   H18       1.0  0.15870  0.37660  0.08860  1.0000 0.1185034196
H   H19       1.0  0.15870  0.12340  0.58860  1.0000 0.1185034196
H   H20       1.0  0.84130  0.62340  0.91140  1.0000 0.1185034196
H   H21       1.0  0.07510  0.09900  0.42630  1.0000 0.1185034196
H   H22       1.0  0.92490  0.59900  0.07370  1.0000 0.1185034196
H   H23       1.0  0.92490  0.90100  0.57370  1.0000 0.1185034196
H   H24       1.0  0.07510  0.40100  0.92630  1.0000 0.1185034196
H   H25       1.0  0.94200  0.97850  0.11060  1.0000 0.344156443
H   H26       1.0  0.05800  0.47850  0.38940  1.0000 0.344156443
H   H27       1.0  0.05800  0.02150  0.88940  1.0000 0.344156443
H   H28       1.0  0.94200  0.52150  0.61060  1.0000 0.344156443
H   H29       1.0  0.03460  0.86930  0.06490  1.0000 0.1185034196
H   H30       1.0  0.96540  0.36930  0.43510  1.0000 0.1185034196
H   H31       1.0  0.96540  0.13070  0.93510  1.0000 0.1185034196
H   H32       1.0  0.03460  0.63070  0.56490  1.0000 0.1185034196
H   H33       1.0  0.89850  0.80900  0.02470  1.0000 0.1144174885
H   H34       1.0  0.10150  0.30900  0.47530  1.0000 0.1144174885
H   H35       1.0  0.10150  0.19100  0.97530  1.0000 0.1144174885
H   H36       1.0  0.89850  0.69100  0.52470  1.0000 0.1144174885
H   H37       1.0  0.89110  0.91000  0.97740  1.0000 0.1185034196
H   H38       1.0  0.10890  0.41000  0.52260  1.0000 0.1185034196
H   H39       1.0  0.10890  0.09000  0.02260  1.0000 0.1185034196
H   H40       1.0  0.89110  0.59000  0.47740  1.0000 0.1185034196
H   H41       1.0  0.78730  0.75340  0.13790  1.0000 0.344156443
H   H42       1.0  0.21270  0.25340  0.36210  1.0000 0.344156443
H   H43       1.0  0.21270  0.24660  0.86210  1.0000 0.344156443
H   H44       1.0  0.78730  0.74660  0.63790  1.0000 0.344156443
H   H45       1.0  0.67080  0.64280  0.04870  1.0000 0.1185034196
H   H46       1.0  0.32920  0.14280  0.45130  1.0000 0.1185034196
H   H47       1.0  0.32920  0.35720  0.95130  1.0000 0.1185034196
H   H48       1.0  0.67080  0.85720  0.54870  1.0000 0.1185034196
H   H49       1.0  0.54340  0.70840  0.02050  1.0000 0.1305452164
H   H50       1.0  0.45660  0.20840  0.47950  1.0000 0.1305452164
H   H51       1.0  0.45660  0.29160  0.97950  1.0000 0.1305452164
H   H52       1.0  0.54340  0.79160  0.52050  1.0000 0.1305452164
H   H53       1.0  0.60890  0.71600  0.96050  1.0000 0.1185034196
H   H54       1.0  0.39110  0.21600  0.53950  1.0000 0.1185034196
H   H55       1.0  0.39110  0.28400  0.03950  1.0000 0.1185034196
H   H56       1.0  0.60890  0.78400  0.46050  1.0000 0.1185034196
C   C1        1.0  0.62090  0.12800  0.95610  1.0000 0.6180474337
C   C2        1.0  0.37910  0.62800  0.54390  1.0000 0.6180474337
C   C3        1.0  0.37910  0.87200  0.04390  1.0000 0.6180474337
C   C4        1.0  0.62090  0.37200  0.45610  1.0000 0.6180474337
C   C5        1.0  0.59480  0.20010  0.87900  1.0000 -0.017271233
C   C6        1.0  0.40520  0.70010  0.62100  1.0000 -0.017271233
C   C7        1.0  0.40520  0.79990  0.12100  1.0000 -0.017271233
C   C8        1.0  0.59480  0.29990  0.37900  1.0000 -0.017271233
C   C9        1.0  0.70660  0.24570  0.88640  1.0000 -0.1180452259
C   C10       1.0  0.29340  0.74570  0.61360  1.0000 -0.1180452259
C   C11       1.0  0.29340  0.75430  0.11360  1.0000 -0.1180452259
C   C12       1.0  0.70660  0.25430  0.38640  1.0000 -0.1180452259
C   C13       1.0  0.68430  0.30730  0.81290  1.0000 -0.10217872
C   C14       1.0  0.31570  0.80730  0.68710  1.0000 -0.10217872
C   C15       1.0  0.31570  0.69270  0.18710  1.0000 -0.10217872
C   C16       1.0  0.68430  0.19270  0.31290  1.0000 -0.10217872
C   C17       1.0  0.55030  0.32580  0.73140  1.0000 -0.0277076212
C   C18       1.0  0.44970  0.82580  0.76860  1.0000 -0.0277076212
C   C19       1.0  0.44970  0.67420  0.26860  1.0000 -0.0277076212
C   C20       1.0  0.55030  0.17420  0.23140  1.0000 -0.0277076212
C   C21       1.0  0.43930  0.28150  0.72530  1.0000 -0.1118237015
C   C22       1.0  0.56070  0.78150  0.77470  1.0000 -0.1118237015
C   C23       1.0  0.56070  0.71850  0.27470  1.0000 -0.1118237015
C   C24       1.0  0.43930  0.21850  0.22530  1.0000 -0.1118237015
C   C25       1.0  0.45990  0.21880  0.79820  1.0000 -0.1118237015
C   C26       1.0  0.54010  0.71880  0.70180  1.0000 -0.1118237015
C   C27       1.0  0.54010  0.78120  0.20180  1.0000 -0.1118237015
C   C28       1.0  0.45990  0.28120  0.29820  1.0000 -0.1118237015
C   C29       1.0  0.52640  0.39220  0.65020  1.0000 0.6250324425
C   C30       1.0  0.47360  0.89220  0.84980  1.0000 0.6250324425
C   C31       1.0  0.47360  0.60780  0.34980  1.0000 0.6250324425
C   C32       1.0  0.52640  0.10780  0.15020  1.0000 0.6250324425
C   C33       1.0  0.89080  0.97000  0.29490  1.0000 0.5716732916
C   C34       1.0  0.10920  0.47000  0.20510  1.0000 0.5716732916
C   C35       1.0  0.10920  0.03000  0.70510  1.0000 0.5716732916
C   C36       1.0  0.89080  0.53000  0.79490  1.0000 0.5716732916
C   C37       1.0  0.94980  0.98530  0.40190  1.0000 -0.0080407755
C   C38       1.0  0.05020  0.48530  0.09810  1.0000 -0.0080407755
C   C39       1.0  0.05020  0.01470  0.59810  1.0000 -0.0080407755
C   C40       1.0  0.94980  0.51470  0.90190  1.0000 -0.0080407755
C   C41       1.0  0.90510  0.92620  0.44690  1.0000 -0.1118237015
C   C42       1.0  0.09490  0.42620  0.05310  1.0000 -0.1118237015
C   C43       1.0  0.09490  0.07380  0.55310  1.0000 -0.1118237015
C   C44       1.0  0.90510  0.57380  0.94690  1.0000 -0.1118237015
C   C45       1.0  0.04480  0.05910  0.45590  1.0000 -0.1180452259
C   C46       1.0  0.95520  0.55910  0.04410  1.0000 -0.1180452259
C   C47       1.0  0.95520  0.94090  0.54410  1.0000 -0.1180452259
C   C48       1.0  0.04480  0.44090  0.95590  1.0000 -0.1180452259
C   C49       1.0  0.93720  0.87350  0.03760  1.0000 -0.1901200462
C   C50       1.0  0.06280  0.37350  0.46240  1.0000 -0.1901200462
C   C51       1.0  0.06280  0.12650  0.96240  1.0000 -0.1901200462
C   C52       1.0  0.93720  0.62650  0.53760  1.0000 -0.1901200462
C   C53       1.0  0.62850  0.70570  0.02460  1.0000 -0.1732074518
C   C54       1.0  0.37150  0.20570  0.47540  1.0000 -0.1732074518
C   C55       1.0  0.37150  0.29430  0.97540  1.0000 -0.1732074518
C   C56       1.0  0.62850  0.79430  0.52460  1.0000 -0.1732074518
O   O1        1.0  0.74226  0.10144  0.02019  1.0000 -0.6222040627
O   O2        1.0  0.25774  0.60144  0.47981  1.0000 -0.6222040627
O   O3        1.0  0.25774  0.89856  0.97981  1.0000 -0.6222040627
O   O4        1.0  0.74226  0.39856  0.52019  1.0000 -0.6222040627
O   O5        1.0  0.51790  0.09368  0.95428  1.0000 -0.7425544385
O   O6        1.0  0.48210  0.59368  0.54572  1.0000 -0.7425544385
O   O7        1.0  0.48210  0.90632  0.04572  1.0000 -0.7425544385
O   O8        1.0  0.51790  0.40632  0.45428  1.0000 -0.7425544385
O   O9        1.0  0.63261  0.42840  0.66137  1.0000 -0.6431442324
O   O10       1.0  0.36739  0.92840  0.83863  1.0000 -0.6431442324
O   O11       1.0  0.36739  0.57160  0.33863  1.0000 -0.6431442324
O   O12       1.0  0.63261  0.07160  0.16137  1.0000 -0.6431442324
O   O13       1.0  0.40256  0.40527  0.57755  1.0000 -0.6719566408
O   O14       1.0  0.59744  0.90527  0.92245  1.0000 -0.6719566408
O   O15       1.0  0.59744  0.59473  0.42245  1.0000 -0.6719566408
O   O16       1.0  0.40256  0.09473  0.07755  1.0000 -0.6719566408
O   O17       1.0  0.81138  0.89779  0.25165  1.0000 -0.6576070611
O   O18       1.0  0.18862  0.39779  0.24835  1.0000 -0.6576070611
O   O19       1.0  0.18862  0.10221  0.74835  1.0000 -0.6576070611
O   O20       1.0  0.81138  0.60221  0.75165  1.0000 -0.6576070611
O   O21       1.0  0.91543  0.02971  0.24880  1.0000 -0.6222040627
O   O22       1.0  0.08457  0.52971  0.25120  1.0000 -0.6222040627
O   O23       1.0  0.08457  0.97029  0.75120  1.0000 -0.6222040627
O   O24       1.0  0.91543  0.47029  0.74880  1.0000 -0.6222040627
O   O25       1.0  0.91852  0.92111  0.10522  1.0000 -0.4493853647
O   O26       1.0  0.08148  0.42111  0.39478  1.0000 -0.4493853647
O   O27       1.0  0.08148  0.07889  0.89478  1.0000 -0.4493853647
O   O28       1.0  0.91852  0.57889  0.60522  1.0000 -0.4493853647
O   O29       1.0  0.71965  0.77889  0.08905  1.0000 -0.4647399459
O   O30       1.0  0.28035  0.27889  0.41095  1.0000 -0.4647399459
O   O31       1.0  0.28035  0.22111  0.91095  1.0000 -0.4647399459
O   O32       1.0  0.71965  0.72111  0.58905  1.0000 -0.4647399459
