# DDEC6 charges by PACMAN v1.1 (https://github.com/mtap-research/PACMAN-charge/)
data_2007[Fe][dia]3[FSR]16
_chemical_formula_sum              "Fe12 H24 C24 O48"
_cell_length_a       11.319
_cell_length_b       9.7577
_cell_length_c       18.241
_cell_angle_alpha    90
_cell_angle_beta     127.285
_cell_angle_gamma    90

_symmetry_space_group_name_H-M    "P 1"
_symmetry_Int_Tables_number       1

loop_
  _symmetry_equiv_pos_as_xyz
  'x, y, z'

loop_
  _atom_site_type_symbol
  _atom_site_label
  _atom_site_symmetry_multiplicity
  _atom_site_fract_x
  _atom_site_fract_y
  _atom_site_fract_z
  _atom_site_occupancy
  _atom_site_charge
Fe  Fe1       1.0  0.62444  0.91571  0.86857  1.0000 0.9033714337
Fe  Fe2       1.0  0.37556  0.41571  0.63143  1.0000 0.9033714337
Fe  Fe3       1.0  0.37556  0.08429  0.13143  1.0000 0.9033714337
Fe  Fe4       1.0  0.62444  0.58429  0.36857  1.0000 0.9033714337
Fe  Fe5       1.0  0.57633  0.90021  0.31499  1.0000 0.9053005619
Fe  Fe6       1.0  0.42367  0.40021  0.18501  1.0000 0.9033714337
Fe  Fe7       1.0  0.42367  0.09979  0.68501  1.0000 0.9053005619
Fe  Fe8       1.0  0.57633  0.59979  0.81499  1.0000 0.9053005619
Fe  Fe9       1.0  0.50000  0.00000  0.00000  1.0000 0.9414749189
Fe  Fe10      1.0  0.50000  0.50000  0.50000  1.0000 0.9414749189
Fe  Fe11      1.0  0.00000  0.00000  0.00000  1.0000 0.9628938479
Fe  Fe12      1.0  0.00000  0.50000  0.50000  1.0000 0.9628938479
H   H1        1.0  0.50200  0.74340  0.63490  1.0000 0.1110716766
H   H2        1.0  0.49800  0.24340  0.86510  1.0000 0.1110716766
H   H3        1.0  0.49800  0.25660  0.36510  1.0000 0.1110716766
H   H4        1.0  0.50200  0.75660  0.13490  1.0000 0.1110716766
H   H5        1.0  0.20170  0.01620  0.73020  1.0000 0.1110716766
H   H6        1.0  0.79830  0.51620  0.76980  1.0000 0.1110716766
H   H7        1.0  0.79830  0.98380  0.26980  1.0000 0.1110716766
H   H8        1.0  0.20170  0.48380  0.23020  1.0000 0.1110716766
H   H9        1.0  0.52660  0.61120  0.96710  1.0000 0.1110716766
H   H10       1.0  0.47340  0.11120  0.53290  1.0000 0.1110716766
H   H11       1.0  0.47340  0.38880  0.03290  1.0000 0.1110716766
H   H12       1.0  0.52660  0.88880  0.46710  1.0000 0.1110716766
H   H13       1.0  0.74540  0.18380  0.76160  1.0000 0.1110716766
H   H14       1.0  0.25460  0.68380  0.73840  1.0000 0.1110716766
H   H15       1.0  0.25460  0.81620  0.23840  1.0000 0.1110716766
H   H16       1.0  0.74540  0.31620  0.26160  1.0000 0.1110716766
H   H17       1.0  0.76070  0.17860  0.06310  1.0000 0.1110716766
H   H18       1.0  0.23930  0.67860  0.43690  1.0000 0.1110716766
H   H19       1.0  0.23930  0.82140  0.93690  1.0000 0.1110716766
H   H20       1.0  0.76070  0.32140  0.56310  1.0000 0.1110716766
H   H21       1.0  0.98890  0.69570  0.99710  1.0000 0.1182753412
H   H22       1.0  0.01110  0.19570  0.50290  1.0000 0.1182753412
H   H23       1.0  0.01110  0.30430  0.00290  1.0000 0.1182753412
H   H24       1.0  0.98890  0.80430  0.49710  1.0000 0.1182753412
C   C1        1.0  0.50510  0.81620  0.67063  1.0000 0.451412168
C   C2        1.0  0.49490  0.31620  0.82937  1.0000 0.451412168
C   C3        1.0  0.49490  0.18380  0.32937  1.0000 0.451412168
C   C4        1.0  0.50510  0.68380  0.17063  1.0000 0.451412168
C   C5        1.0  0.29870  0.00090  0.78547  1.0000 0.4335013021
C   C6        1.0  0.70130  0.50090  0.71453  1.0000 0.4335013021
C   C7        1.0  0.70130  0.99910  0.21453  1.0000 0.4335013021
C   C8        1.0  0.29870  0.49910  0.28547  1.0000 0.4335013021
C   C9        1.0  0.53520  0.70550  0.95811  1.0000 0.4335013021
C   C10       1.0  0.46480  0.20550  0.54189  1.0000 0.4335013021
C   C11       1.0  0.46480  0.29450  0.04189  1.0000 0.4335013021
C   C12       1.0  0.53520  0.79450  0.45811  1.0000 0.4335013021
C   C13       1.0  0.76520  0.12640  0.80993  1.0000 0.4335013021
C   C14       1.0  0.23480  0.62640  0.69007  1.0000 0.4335013021
C   C15       1.0  0.23480  0.87360  0.19007  1.0000 0.4360477371
C   C16       1.0  0.76520  0.37360  0.30993  1.0000 0.4335013021
C   C17       1.0  0.77130  0.11420  0.02832  1.0000 0.4634239419
C   C18       1.0  0.22870  0.61420  0.47168  1.0000 0.4634239419
C   C19       1.0  0.22870  0.88580  0.97168  1.0000 0.4655424101
C   C20       1.0  0.77130  0.38580  0.52832  1.0000 0.4634239419
C   C21       1.0  0.88520  0.71160  0.95389  1.0000 0.4634239419
C   C22       1.0  0.11480  0.21160  0.54611  1.0000 0.4634239419
C   C23       1.0  0.11480  0.28840  0.04611  1.0000 0.4655424101
C   C24       1.0  0.88520  0.78840  0.45389  1.0000 0.4634239419
O   O1        1.0  0.56780  0.79149  0.75550  1.0000 -0.5339399534
O   O2        1.0  0.43220  0.29149  0.74450  1.0000 -0.5339399534
O   O3        1.0  0.43220  0.20851  0.24450  1.0000 -0.5339399534
O   O4        1.0  0.56780  0.70851  0.25550  1.0000 -0.5339399534
O   O5        1.0  0.44796  0.92600  0.63051  1.0000 -0.469531353
O   O6        1.0  0.55204  0.42600  0.86949  1.0000 -0.469531353
O   O7        1.0  0.55204  0.07400  0.36949  1.0000 -0.469531353
O   O8        1.0  0.44796  0.57400  0.13051  1.0000 -0.469531353
O   O9        1.0  0.40423  0.99370  0.77891  1.0000 -0.5391864237
O   O10       1.0  0.59577  0.49370  0.72109  1.0000 -0.5391864237
O   O11       1.0  0.59577  0.00630  0.22109  1.0000 -0.5391864237
O   O12       1.0  0.40423  0.50630  0.27891  1.0000 -0.5391864237
O   O13       1.0  0.31137  0.98983  0.85745  1.0000 -0.4810501327
O   O14       1.0  0.68863  0.48983  0.64255  1.0000 -0.4810501327
O   O15       1.0  0.68863  0.01017  0.14255  1.0000 -0.4810501327
O   O16       1.0  0.31137  0.51017  0.35745  1.0000 -0.4810501327
O   O17       1.0  0.54786  0.73471  0.89562  1.0000 -0.5339399534
O   O18       1.0  0.45214  0.23471  0.60438  1.0000 -0.5339399534
O   O19       1.0  0.45214  0.26529  0.10438  1.0000 -0.5339399534
O   O20       1.0  0.54786  0.76529  0.39562  1.0000 -0.5339399534
O   O21       1.0  0.53300  0.78871  0.00884  1.0000 -0.4883471344
O   O22       1.0  0.46700  0.28871  0.49116  1.0000 -0.4883471344
O   O23       1.0  0.46700  0.21129  0.99116  1.0000 -0.4883471344
O   O24       1.0  0.53300  0.71129  0.50884  1.0000 -0.4883471344
O   O25       1.0  0.65282  0.07996  0.80241  1.0000 -0.5391864237
O   O26       1.0  0.34718  0.57996  0.69759  1.0000 -0.5391864237
O   O27       1.0  0.34718  0.92004  0.19759  1.0000 -0.5391864237
O   O28       1.0  0.65282  0.42004  0.30241  1.0000 -0.5391864237
O   O29       1.0  0.89677  0.10418  0.87371  1.0000 -0.469531353
O   O30       1.0  0.10323  0.60418  0.62629  1.0000 -0.469531353
O   O31       1.0  0.10323  0.89582  0.12629  1.0000 -0.469531353
O   O32       1.0  0.89677  0.39582  0.37371  1.0000 -0.469531353
O   O33       1.0  0.66246  0.03177  0.97613  1.0000 -0.5529954539
O   O34       1.0  0.33754  0.53177  0.52387  1.0000 -0.5529954539
O   O35       1.0  0.33754  0.96823  0.02387  1.0000 -0.5529954539
O   O36       1.0  0.66246  0.46823  0.47613  1.0000 -0.5529954539
O   O37       1.0  0.88834  0.11717  0.03722  1.0000 -0.4810501327
O   O38       1.0  0.11166  0.61717  0.46278  1.0000 -0.4810501327
O   O39       1.0  0.11166  0.88283  0.96278  1.0000 -0.4883471344
O   O40       1.0  0.88834  0.38283  0.53722  1.0000 -0.4810501327
O   O41       1.0  0.84098  0.83593  0.94301  1.0000 -0.5391864237
O   O42       1.0  0.15902  0.33593  0.55699  1.0000 -0.5391864237
O   O43       1.0  0.15902  0.16407  0.05699  1.0000 -0.5391864237
O   O44       1.0  0.84098  0.66407  0.44301  1.0000 -0.5391864237
O   O45       1.0  0.80499  0.60985  0.91321  1.0000 -0.4883471344
O   O46       1.0  0.19501  0.10985  0.58679  1.0000 -0.4810501327
O   O47       1.0  0.19501  0.39015  0.08679  1.0000 -0.4810501327
O   O48       1.0  0.80499  0.89015  0.41321  1.0000 -0.4883471344
