# DDEC6 charges by PACMAN v1.1 (https://github.com/mtap-research/PACMAN-charge/)
data_2007[LaCu][nan]3[FSR]1
_chemical_formula_sum              "La4 Cu4 H32 C56 N8 O32"
_cell_length_a       11.5186
_cell_length_b       11.5186
_cell_length_c       17.5535
_cell_angle_alpha    74.7114
_cell_angle_beta     105.289
_cell_angle_gamma    131.87

_symmetry_space_group_name_H-M    "P 1"
_symmetry_Int_Tables_number       1

loop_
  _symmetry_equiv_pos_as_xyz
  'x, y, z'

loop_
  _atom_site_type_symbol
  _atom_site_label
  _atom_site_symmetry_multiplicity
  _atom_site_fract_x
  _atom_site_fract_y
  _atom_site_fract_z
  _atom_site_occupancy
  _atom_site_charge
La  La1       1.0  0.30276  0.33142  0.92668  1.0000 1.8557560988
La  La2       1.0  0.33142  0.30276  0.57332  1.0000 1.8557560988
La  La3       1.0  0.69724  0.66858  0.07332  1.0000 1.8557560988
La  La4       1.0  0.66858  0.69724  0.42668  1.0000 1.8557560988
Cu  Cu1       1.0  0.23494  0.90488  0.13784  1.0000 0.3129239626
Cu  Cu2       1.0  0.90488  0.23494  0.36216  1.0000 0.3129239626
Cu  Cu3       1.0  0.76506  0.09512  0.86216  1.0000 0.3129239626
Cu  Cu4       1.0  0.09512  0.76506  0.63784  1.0000 0.3129239626
H   H1        1.0  0.63810  0.44290  0.77850  1.0000 0.1483173629
H   H2        1.0  0.44290  0.63810  0.72150  1.0000 0.1483173629
H   H3        1.0  0.36190  0.55710  0.22150  1.0000 0.1483173629
H   H4        1.0  0.55710  0.36190  0.27850  1.0000 0.1483173629
H   H5        1.0  0.79490  0.50190  0.69230  1.0000 0.1184837909
H   H6        1.0  0.50190  0.79490  0.80770  1.0000 0.1184837909
H   H7        1.0  0.20510  0.49810  0.30770  1.0000 0.1184837909
H   H8        1.0  0.49810  0.20510  0.19230  1.0000 0.1184837909
H   H9        1.0  0.13870  0.90710  0.76820  1.0000 0.1184837909
H   H10       1.0  0.90710  0.13870  0.73180  1.0000 0.1184837909
H   H11       1.0  0.86130  0.09290  0.23180  1.0000 0.1184837909
H   H12       1.0  0.09290  0.86130  0.26820  1.0000 0.1184837909
H   H13       1.0  0.99360  0.85700  0.85890  1.0000 0.1483173629
H   H14       1.0  0.85700  0.99360  0.64110  1.0000 0.1483173629
H   H15       1.0  0.00640  0.14300  0.14110  1.0000 0.1483173629
H   H16       1.0  0.14300  0.00640  0.35890  1.0000 0.1483173629
H   H17       1.0  0.53700  0.82180  0.05150  1.0000 0.1483173629
H   H18       1.0  0.82180  0.53700  0.44850  1.0000 0.1483173629
H   H19       1.0  0.46300  0.17820  0.94850  1.0000 0.1483173629
H   H20       1.0  0.17820  0.46300  0.55150  1.0000 0.1483173629
H   H21       1.0  0.48250  0.91730  0.12300  1.0000 0.1145397596
H   H22       1.0  0.91730  0.48250  0.37700  1.0000 0.1145397596
H   H23       1.0  0.51750  0.08270  0.87700  1.0000 0.1145397596
H   H24       1.0  0.08270  0.51750  0.62300  1.0000 0.1145397596
H   H25       1.0  0.07030  0.72070  0.00230  1.0000 0.1184837909
H   H26       1.0  0.72070  0.07030  0.49770  1.0000 0.1184837909
H   H27       1.0  0.92970  0.27930  0.99770  1.0000 0.1184837909
H   H28       1.0  0.27930  0.92970  0.50230  1.0000 0.1184837909
H   H29       1.0  0.11090  0.61290  0.92990  1.0000 0.1366226025
H   H30       1.0  0.61290  0.11090  0.57010  1.0000 0.1366226025
H   H31       1.0  0.88910  0.38710  0.07010  1.0000 0.1366226025
H   H32       1.0  0.38710  0.88910  0.42990  1.0000 0.1366226025
C   C1        1.0  0.69619  0.61061  0.88368  1.0000 0.6024495907
C   C2        1.0  0.61061  0.69619  0.61632  1.0000 0.6024495907
C   C3        1.0  0.30381  0.38939  0.11632  1.0000 0.6024495907
C   C4        1.0  0.38939  0.30381  0.38368  1.0000 0.6024495907
C   C5        1.0  0.79756  0.64544  0.82739  1.0000 0.0078695066
C   C6        1.0  0.64544  0.79756  0.67261  1.0000 0.0078695066
C   C7        1.0  0.20244  0.35456  0.17261  1.0000 0.0078695066
C   C8        1.0  0.35456  0.20244  0.32739  1.0000 0.0078695066
C   C9        1.0  0.73980  0.53880  0.77730  1.0000 -0.1385493927
C   C10       1.0  0.53880  0.73980  0.72270  1.0000 -0.1385493927
C   C11       1.0  0.26020  0.46120  0.22270  1.0000 -0.1385493927
C   C12       1.0  0.46120  0.26020  0.27730  1.0000 -0.1385493927
C   C13       1.0  0.83430  0.57570  0.72520  1.0000 0.0692520667
C   C14       1.0  0.57570  0.83430  0.77480  1.0000 0.0692520667
C   C15       1.0  0.16570  0.42430  0.27480  1.0000 0.0692520667
C   C16       1.0  0.42430  0.16570  0.22520  1.0000 0.0692520667
C   C17       1.0  0.03620  0.81280  0.76990  1.0000 0.0692520667
C   C18       1.0  0.81280  0.03620  0.73010  1.0000 0.0692520667
C   C19       1.0  0.96380  0.18720  0.23010  1.0000 0.0692520667
C   C20       1.0  0.18720  0.96380  0.26990  1.0000 0.0692520667
C   C21       1.0  0.94950  0.78390  0.82460  1.0000 -0.1571956776
C   C22       1.0  0.78390  0.94950  0.67540  1.0000 -0.1571956776
C   C23       1.0  0.05050  0.21610  0.17540  1.0000 -0.1571956776
C   C24       1.0  0.21610  0.05050  0.32460  1.0000 -0.1571956776
C   C25       1.0  0.34769  0.60991  0.94854  1.0000 0.5644180127
C   C26       1.0  0.60991  0.34769  0.55146  1.0000 0.5644180127
C   C27       1.0  0.65231  0.39009  0.05146  1.0000 0.5644180127
C   C28       1.0  0.39009  0.65231  0.44854  1.0000 0.5644180127
C   C29       1.0  0.32528  0.69632  0.98639  1.0000 0.0246935304
C   C30       1.0  0.69632  0.32528  0.51361  1.0000 0.0246935304
C   C31       1.0  0.67472  0.30368  0.01361  1.0000 0.0246935304
C   C32       1.0  0.30368  0.67472  0.48639  1.0000 0.0246935304
C   C33       1.0  0.43871  0.79489  0.04220  1.0000 -0.1453352325
C   C34       1.0  0.79489  0.43871  0.45780  1.0000 -0.1453352325
C   C35       1.0  0.56129  0.20511  0.95780  1.0000 -0.1453352325
C   C36       1.0  0.20511  0.56129  0.54220  1.0000 -0.1453352325
C   C37       1.0  0.40570  0.85370  0.08410  1.0000 0.0591666554
C   C38       1.0  0.85370  0.40570  0.41590  1.0000 0.0591666554
C   C39       1.0  0.59430  0.14630  0.91590  1.0000 0.0591666554
C   C40       1.0  0.14630  0.59430  0.58410  1.0000 0.0591666554
C   C41       1.0  0.16390  0.73790  0.01390  1.0000 0.0773983323
C   C42       1.0  0.73790  0.16390  0.48610  1.0000 0.0773983323
C   C43       1.0  0.83610  0.26210  0.98610  1.0000 0.0773983323
C   C44       1.0  0.26210  0.83610  0.51390  1.0000 0.0773983323
C   C45       1.0  0.18759  0.67241  0.97010  1.0000 -0.1663200907
C   C46       1.0  0.67241  0.18759  0.52990  1.0000 -0.1663200907
C   C47       1.0  0.81241  0.32759  0.02990  1.0000 -0.1663200907
C   C48       1.0  0.32759  0.81241  0.47010  1.0000 -0.1663200907
C   C49       1.0  0.94669  0.01971  0.97621  1.0000 0.4766096421
C   C50       1.0  0.01971  0.94669  0.52379  1.0000 0.4766096421
C   C51       1.0  0.05331  0.98029  0.02379  1.0000 0.4766096421
C   C52       1.0  0.98029  0.05331  0.47621  1.0000 0.4766096421
C   C53       1.0  0.21800  0.29400  0.73177  1.0000 0.4618560322
C   C54       1.0  0.29400  0.21800  0.76823  1.0000 0.4618560322
C   C55       1.0  0.78200  0.70600  0.26823  1.0000 0.4618560322
C   C56       1.0  0.70600  0.78200  0.23177  1.0000 0.4618560322
N   N1        1.0  0.97973  0.71227  0.71982  1.0000 -0.1820368186
N   N2        1.0  0.71227  0.97973  0.78018  1.0000 -0.1820368186
N   N3        1.0  0.02027  0.28773  0.28018  1.0000 -0.1820368186
N   N4        1.0  0.28773  0.02027  0.21982  1.0000 -0.1820368186
N   N5        1.0  0.26932  0.82408  0.07185  1.0000 -0.1820368186
N   N6        1.0  0.82408  0.26932  0.42815  1.0000 -0.1820368186
N   N7        1.0  0.73068  0.17592  0.92815  1.0000 -0.1820368186
N   N8        1.0  0.17592  0.73068  0.57185  1.0000 -0.1820368186
O   O1        1.0  0.55045  0.51075  0.86598  1.0000 -0.60799179
O   O2        1.0  0.51075  0.55045  0.63402  1.0000 -0.60799179
O   O3        1.0  0.44955  0.48925  0.13402  1.0000 -0.60799179
O   O4        1.0  0.48925  0.44955  0.36598  1.0000 -0.60799179
O   O5        1.0  0.76492  0.68228  0.94366  1.0000 -0.60799179
O   O6        1.0  0.68228  0.76492  0.55634  1.0000 -0.60799179
O   O7        1.0  0.23508  0.31772  0.05634  1.0000 -0.60799179
O   O8        1.0  0.31772  0.23508  0.44366  1.0000 -0.60799179
O   O9        1.0  0.23939  0.51781  0.89999  1.0000 -0.5584979482
O   O10       1.0  0.51781  0.23939  0.60001  1.0000 -0.5584979482
O   O11       1.0  0.76061  0.48219  0.10001  1.0000 -0.5584979482
O   O12       1.0  0.48219  0.76061  0.39999  1.0000 -0.5584979482
O   O13       1.0  0.47124  0.62576  0.97092  1.0000 -0.6496328764
O   O14       1.0  0.62576  0.47124  0.52908  1.0000 -0.6496328764
O   O15       1.0  0.52876  0.37424  0.02908  1.0000 -0.6496328764
O   O16       1.0  0.37424  0.52876  0.47092  1.0000 -0.6496328764
O   O17       1.0  0.00430  0.13470  0.92299  1.0000 -0.5462260597
O   O18       1.0  0.13470  0.00430  0.57701  1.0000 -0.5462260597
O   O19       1.0  0.99570  0.86530  0.07701  1.0000 -0.5462260597
O   O20       1.0  0.86530  0.99570  0.42299  1.0000 -0.5462260597
O   O21       1.0  0.81136  0.93444  0.99512  1.0000 -0.5584979482
O   O22       1.0  0.93444  0.81136  0.50488  1.0000 -0.5584979482
O   O23       1.0  0.18864  0.06556  0.00488  1.0000 -0.5584979482
O   O24       1.0  0.06556  0.18864  0.49512  1.0000 -0.5584979482
O   O25       1.0  0.20197  0.34623  0.77914  1.0000 -0.5664494387
O   O26       1.0  0.34623  0.20197  0.72086  1.0000 -0.5664494387
O   O27       1.0  0.79803  0.65377  0.22086  1.0000 -0.5664494387
O   O28       1.0  0.65377  0.79803  0.27914  1.0000 -0.5664494387
O   O29       1.0  0.17567  0.29393  0.65847  1.0000 -0.5664494387
O   O30       1.0  0.29393  0.17567  0.84153  1.0000 -0.5664494387
O   O31       1.0  0.82433  0.70607  0.34153  1.0000 -0.5664494387
O   O32       1.0  0.70607  0.82433  0.15847  1.0000 -0.5664494387
