# DDEC6 charges by PACMAN v1.1 (https://github.com/mtap-research/PACMAN-charge/)
data_2007[Mn][dia]3[FSR]4
_chemical_formula_sum              "Mn12 H24 C24 O48"
_cell_length_a       11.7856
_cell_length_b       10.1959
_cell_length_c       14.9224
_cell_angle_alpha    90
_cell_angle_beta     91.8559
_cell_angle_gamma    90

_symmetry_space_group_name_H-M    "P 1"
_symmetry_Int_Tables_number       1

loop_
  _symmetry_equiv_pos_as_xyz
  'x, y, z'

loop_
  _atom_site_type_symbol
  _atom_site_label
  _atom_site_symmetry_multiplicity
  _atom_site_fract_x
  _atom_site_fract_y
  _atom_site_fract_z
  _atom_site_occupancy
  _atom_site_charge
Mn  Mn1       1.0  0.01017  0.93307  0.43727  1.0000 0.9733387356
Mn  Mn2       1.0  0.98983  0.43307  0.56273  1.0000 0.9733387356
Mn  Mn3       1.0  0.00971  0.62075  0.38115  1.0000 0.9783083027
Mn  Mn4       1.0  0.99029  0.12075  0.61885  1.0000 0.9783083027
Mn  Mn5       1.0  0.25526  0.54154  0.25221  1.0000 1.0056443041
Mn  Mn6       1.0  0.74474  0.04154  0.74779  1.0000 1.0056443041
Mn  Mn7       1.0  0.49648  0.45677  0.11876  1.0000 0.9783083027
Mn  Mn8       1.0  0.50352  0.95677  0.88124  1.0000 0.9783083027
Mn  Mn9       1.0  0.48743  0.14347  0.06444  1.0000 0.9783083027
Mn  Mn10      1.0  0.51257  0.64347  0.93556  1.0000 0.9783083027
Mn  Mn11      1.0  0.75494  0.54004  0.24799  1.0000 0.9931817477
Mn  Mn12      1.0  0.24506  0.04004  0.75201  1.0000 0.9931817477
H   H1        1.0  0.09830  0.78270  0.61960  1.0000 0.1023618208
H   H2        1.0  0.90170  0.28270  0.38040  1.0000 0.1023618208
H   H3        1.0  0.81790  0.91760  0.28850  1.0000 0.0914202578
H   H4        1.0  0.18210  0.41760  0.71150  1.0000 0.0914202578
H   H5        1.0  0.26620  0.99670  0.49090  1.0000 0.0914202578
H   H6        1.0  0.73380  0.49670  0.50910  1.0000 0.0914202578
H   H7        1.0  0.25350  0.83760  0.27710  1.0000 0.1023618208
H   H8        1.0  0.74650  0.33760  0.72290  1.0000 0.1023618208
H   H9        1.0  0.95280  0.39110  0.17400  1.0000 0.0914202578
H   H10       1.0  0.04720  0.89110  0.82600  1.0000 0.0914202578
H   H11       1.0  0.78510  0.83200  0.52740  1.0000 0.1023618208
H   H12       1.0  0.21490  0.33200  0.47260  1.0000 0.1023618208
H   H13       1.0  0.24930  0.25710  0.22580  1.0000 0.1023618208
H   H14       1.0  0.75070  0.75710  0.77420  1.0000 0.1023618208
H   H15       1.0  0.55830  0.69280  0.32390  1.0000 0.1023618208
H   H16       1.0  0.44170  0.19280  0.67610  1.0000 0.1023618208
H   H17       1.0  0.29590  0.74920  0.03200  1.0000 0.1023618208
H   H18       1.0  0.70410  0.24920  0.96800  1.0000 0.1023618208
H   H19       1.0  0.39570  0.29340  0.88570  1.0000 0.0914202578
H   H20       1.0  0.60430  0.79340  0.11430  1.0000 0.0914202578
H   H21       1.0  0.69330  0.16390  0.20870  1.0000 0.1090464717
H   H22       1.0  0.30670  0.66390  0.79130  1.0000 0.1090464717
H   H23       1.0  0.77090  0.56730  0.98660  1.0000 0.1023618208
H   H24       1.0  0.22910  0.06730  0.01340  1.0000 0.1023618208
C   C1        1.0  0.07280  0.71450  0.58290  1.0000 0.4687888076
C   C2        1.0  0.92720  0.21450  0.41710  1.0000 0.4687888076
C   C3        1.0  0.83270  0.82870  0.29680  1.0000 0.4687888076
C   C4        1.0  0.16730  0.32870  0.70320  1.0000 0.4687888076
C   C5        1.0  0.22740  0.02040  0.54170  1.0000 0.4588939105
C   C6        1.0  0.77260  0.52040  0.45830  1.0000 0.4588939105
C   C7        1.0  0.19090  0.82010  0.31160  1.0000 0.4791952943
C   C8        1.0  0.80910  0.32010  0.68840  1.0000 0.4791952943
C   C9        1.0  0.99440  0.44590  0.21270  1.0000 0.4791952943
C   C10       1.0  0.00560  0.94590  0.78730  1.0000 0.4791952943
C   C11       1.0  0.80620  0.89910  0.56660  1.0000 0.4588939105
C   C12       1.0  0.19380  0.39910  0.43340  1.0000 0.4588939105
C   C13       1.0  0.31280  0.26990  0.19150  1.0000 0.4861171966
C   C14       1.0  0.68720  0.76990  0.80850  1.0000 0.4861171966
C   C15       1.0  0.51410  0.63950  0.28600  1.0000 0.4791952943
C   C16       1.0  0.48590  0.13950  0.71400  1.0000 0.4791952943
C   C17       1.0  0.31540  0.68210  0.07180  1.0000 0.4588939105
C   C18       1.0  0.68460  0.18210  0.92820  1.0000 0.4588939105
C   C19       1.0  0.42510  0.36170  0.92060  1.0000 0.4791952943
C   C20       1.0  0.57490  0.86170  0.07940  1.0000 0.4791952943
C   C21       1.0  0.67630  0.25230  0.20030  1.0000 0.4588939105
C   C22       1.0  0.32370  0.75230  0.79970  1.0000 0.4588939105
C   C23       1.0  0.73260  0.55060  0.03890  1.0000 0.4588939105
C   C24       1.0  0.26740  0.05060  0.96110  1.0000 0.4588939105
O   O1        1.0  0.05380  0.74240  0.49970  1.0000 -0.5678470038
O   O2        1.0  0.94620  0.24240  0.50030  1.0000 -0.5678470038
O   O3        1.0  0.06100  0.60850  0.61860  1.0000 -0.4777202979
O   O4        1.0  0.93900  0.10850  0.38140  1.0000 -0.4777202979
O   O5        1.0  0.90770  0.79810  0.35510  1.0000 -0.558675088
O   O6        1.0  0.09230  0.29810  0.64490  1.0000 -0.558675088
O   O7        1.0  0.77590  0.74890  0.24860  1.0000 -0.5188828583
O   O8        1.0  0.22410  0.24890  0.75140  1.0000 -0.5188828583
O   O9        1.0  0.11970  0.03200  0.53490  1.0000 -0.5678470038
O   O10       1.0  0.88030  0.53200  0.46510  1.0000 -0.5678470038
O   O11       1.0  0.28360  0.03930  0.61330  1.0000 -0.5119255061
O   O12       1.0  0.71640  0.53930  0.38670  1.0000 -0.5119255061
O   O13       1.0  0.14670  0.91390  0.34870  1.0000 -0.5030809591
O   O14       1.0  0.85330  0.41390  0.65130  1.0000 -0.5030809591
O   O15       1.0  0.15800  0.69850  0.31650  1.0000 -0.5678470038
O   O16       1.0  0.84200  0.19850  0.68350  1.0000 -0.558675088
O   O17       1.0  0.94050  0.51470  0.26800  1.0000 -0.5530076499
O   O18       1.0  0.05950  0.01470  0.73200  1.0000 -0.5530076499
O   O19       1.0  0.10140  0.44740  0.20700  1.0000 -0.5282556588
O   O20       1.0  0.89860  0.94740  0.79300  1.0000 -0.5282556588
O   O21       1.0  0.89850  0.95820  0.55220  1.0000 -0.558675088
O   O22       1.0  0.10150  0.45820  0.44780  1.0000 -0.558675088
O   O23       1.0  0.74140  0.92350  0.62910  1.0000 -0.5030809591
O   O24       1.0  0.25860  0.42350  0.37090  1.0000 -0.5030809591
O   O25       1.0  0.35030  0.38320  0.18770  1.0000 -0.5282556588
O   O26       1.0  0.64970  0.88320  0.81230  1.0000 -0.5282556588
O   O27       1.0  0.35270  0.17010  0.15360  1.0000 -0.5188828583
O   O28       1.0  0.64730  0.67010  0.84640  1.0000 -0.5188828583
O   O29       1.0  0.41270  0.64020  0.29660  1.0000 -0.4893416042
O   O30       1.0  0.58730  0.14020  0.70340  1.0000 -0.4893416042
O   O31       1.0  0.56720  0.57150  0.22710  1.0000 -0.5678470038
O   O32       1.0  0.43280  0.07150  0.77290  1.0000 -0.5678470038
O   O33       1.0  0.25200  0.66430  0.13380  1.0000 -0.4777202979
O   O34       1.0  0.74800  0.16430  0.86620  1.0000 -0.4777202979
O   O35       1.0  0.40520  0.61830  0.05600  1.0000 -0.558675088
O   O36       1.0  0.59480  0.11830  0.94400  1.0000 -0.558675088
O   O37       1.0  0.44580  0.33850  0.00260  1.0000 -0.558675088
O   O38       1.0  0.55420  0.83850  0.99740  1.0000 -0.558675088
O   O39       1.0  0.44120  0.47040  0.88220  1.0000 -0.5188828583
O   O40       1.0  0.55880  0.97040  0.11780  1.0000 -0.5188828583
O   O41       1.0  0.59550  0.27860  0.14300  1.0000 -0.5678470038
O   O42       1.0  0.40450  0.77860  0.85700  1.0000 -0.5678470038
O   O43       1.0  0.73210  0.32830  0.24400  1.0000 -0.4777202979
O   O44       1.0  0.26790  0.82830  0.75600  1.0000 -0.4777202979
O   O45       1.0  0.62410  0.54120  0.03110  1.0000 -0.5678470038
O   O46       1.0  0.37590  0.04120  0.96890  1.0000 -0.5678470038
O   O47       1.0  0.79100  0.54010  0.10740  1.0000 -0.4893416042
O   O48       1.0  0.20900  0.04010  0.89260  1.0000 -0.4893416042
