# DDEC6 charges by PACMAN v1.1 (https://github.com/mtap-research/PACMAN-charge/)
data_2007[Zn][nan]3[FSR]7
_chemical_formula_sum              "Zn10 H120 C176 N8 O48"
_cell_length_a       15.648
_cell_length_b       16.342
_cell_length_c       16.984
_cell_angle_alpha    90
_cell_angle_beta     103.23
_cell_angle_gamma    90

_symmetry_space_group_name_H-M    "P 1"
_symmetry_Int_Tables_number       1

loop_
  _symmetry_equiv_pos_as_xyz
  'x, y, z'

loop_
  _atom_site_type_symbol
  _atom_site_label
  _atom_site_symmetry_multiplicity
  _atom_site_fract_x
  _atom_site_fract_y
  _atom_site_fract_z
  _atom_site_occupancy
  _atom_site_charge
Zn  Zn1       1.0  0.63423  0.04109  0.55877  1.0000 0.7994087908
Zn  Zn2       1.0  0.86577  0.54109  0.44123  1.0000 0.7994087908
Zn  Zn3       1.0  0.36577  0.95891  0.44123  1.0000 0.7994087908
Zn  Zn4       1.0  0.13423  0.45891  0.55877  1.0000 0.7994087908
Zn  Zn5       1.0  0.94659  0.99220  0.17468  1.0000 0.9105343494
Zn  Zn6       1.0  0.55341  0.49220  0.82532  1.0000 0.9105343494
Zn  Zn7       1.0  0.05341  0.00780  0.82532  1.0000 0.9105343494
Zn  Zn8       1.0  0.44659  0.50780  0.17468  1.0000 0.9105343494
Zn  Zn9       1.0  0.00000  0.00000  0.00000  1.0000 0.9910433265
Zn  Zn10      1.0  0.50000  0.50000  0.00000  1.0000 0.9910433265
H   H1        1.0  0.79850  0.96330  0.65310  1.0000 0.1124504033
H   H2        1.0  0.70150  0.46330  0.34690  1.0000 0.1124504033
H   H3        1.0  0.20150  0.03670  0.34690  1.0000 0.1124504033
H   H4        1.0  0.29850  0.53670  0.65310  1.0000 0.1124504033
H   H5        1.0  0.84450  0.84190  0.70920  1.0000 0.1374140057
H   H6        1.0  0.65550  0.34190  0.29080  1.0000 0.1374140057
H   H7        1.0  0.15550  0.15810  0.29080  1.0000 0.1374140057
H   H8        1.0  0.34450  0.65810  0.70920  1.0000 0.1374140057
H   H9        1.0  0.74970  0.73540  0.70920  1.0000 0.1374140057
H   H10       1.0  0.75030  0.23540  0.29080  1.0000 0.1374140057
H   H11       1.0  0.25030  0.26460  0.29080  1.0000 0.1374140057
H   H12       1.0  0.24970  0.76460  0.70920  1.0000 0.1374140057
H   H13       1.0  0.55470  0.89340  0.61350  1.0000 0.1188345788
H   H14       1.0  0.94530  0.39340  0.38650  1.0000 0.1188345788
H   H15       1.0  0.44530  0.10660  0.38650  1.0000 0.1188345788
H   H16       1.0  0.05470  0.60660  0.61350  1.0000 0.1188345788
H   H17       1.0  0.45550  0.71500  0.64060  1.0000 0.1188345788
H   H18       1.0  0.04450  0.21500  0.35940  1.0000 0.1188345788
H   H19       1.0  0.54450  0.28500  0.35940  1.0000 0.1188345788
H   H20       1.0  0.95550  0.78500  0.64060  1.0000 0.1188345788
H   H21       1.0  0.47140  0.80230  0.60810  1.0000 0.1124504033
H   H22       1.0  0.02860  0.30230  0.39190  1.0000 0.1124504033
H   H23       1.0  0.52860  0.19770  0.39190  1.0000 0.1124504033
H   H24       1.0  0.97140  0.69770  0.60810  1.0000 0.1124504033
H   H25       1.0  0.41230  0.90440  0.67980  1.0000 0.1304907992
H   H26       1.0  0.08770  0.40440  0.32020  1.0000 0.1304907992
H   H27       1.0  0.58770  0.09560  0.32020  1.0000 0.1304907992
H   H28       1.0  0.91230  0.59560  0.67980  1.0000 0.1304907992
H   H29       1.0  0.38370  0.95970  0.79680  1.0000 0.1188345788
H   H30       1.0  0.11630  0.45970  0.20320  1.0000 0.1188345788
H   H31       1.0  0.61630  0.04030  0.20320  1.0000 0.1188345788
H   H32       1.0  0.88370  0.54030  0.79680  1.0000 0.1188345788
H   H33       1.0  0.49820  0.76570  0.91900  1.0000 0.1188345788
H   H34       1.0  0.00180  0.26570  0.08100  1.0000 0.1188345788
H   H35       1.0  0.50180  0.23430  0.08100  1.0000 0.1188345788
H   H36       1.0  0.99820  0.73430  0.91900  1.0000 0.1188345788
H   H37       1.0  0.52440  0.71400  0.80200  1.0000 0.1374140057
H   H38       1.0  0.97560  0.21400  0.19800  1.0000 0.1374140057
H   H39       1.0  0.47560  0.28600  0.19800  1.0000 0.1374140057
H   H40       1.0  0.02440  0.78600  0.80200  1.0000 0.1374140057
H   H41       1.0  0.33190  0.99130  0.89860  1.0000 0.1188345788
H   H42       1.0  0.16810  0.49130  0.10140  1.0000 0.1188345788
H   H43       1.0  0.66810  0.00870  0.10140  1.0000 0.1188345788
H   H44       1.0  0.83190  0.50870  0.89860  1.0000 0.1188345788
H   H45       1.0  0.30820  0.04250  0.01770  1.0000 0.1188345788
H   H46       1.0  0.19180  0.54250  0.98230  1.0000 0.1188345788
H   H47       1.0  0.69180  0.95750  0.98230  1.0000 0.1188345788
H   H48       1.0  0.80820  0.45750  0.01770  1.0000 0.1188345788
H   H49       1.0  0.46510  0.87610  0.14230  1.0000 0.1304907992
H   H50       1.0  0.03490  0.37610  0.85770  1.0000 0.1304907992
H   H51       1.0  0.53490  0.12390  0.85770  1.0000 0.1304907992
H   H52       1.0  0.96510  0.62390  0.14230  1.0000 0.1304907992
H   H53       1.0  0.49840  0.82890  0.02510  1.0000 0.1188345788
H   H54       1.0  0.00160  0.32890  0.97490  1.0000 0.1188345788
H   H55       1.0  0.50160  0.17110  0.97490  1.0000 0.1188345788
H   H56       1.0  0.99840  0.67110  0.02510  1.0000 0.1188345788
H   H57       1.0  0.35610  0.05620  0.16540  1.0000 0.1304907992
H   H58       1.0  0.14390  0.55620  0.83460  1.0000 0.1304907992
H   H59       1.0  0.64390  0.94380  0.83460  1.0000 0.1304907992
H   H60       1.0  0.85610  0.44380  0.16540  1.0000 0.1304907992
H   H61       1.0  0.41430  0.98690  0.21470  1.0000 0.1304907992
H   H62       1.0  0.08570  0.48690  0.78530  1.0000 0.1304907992
H   H63       1.0  0.58570  0.01310  0.78530  1.0000 0.1304907992
H   H64       1.0  0.91430  0.51310  0.21470  1.0000 0.1304907992
H   H65       1.0  0.20060  0.03580  0.11860  1.0000 0.1304907992
H   H66       1.0  0.29940  0.53580  0.88140  1.0000 0.1304907992
H   H67       1.0  0.79940  0.96420  0.88140  1.0000 0.1304907992
H   H68       1.0  0.70060  0.46420  0.11860  1.0000 0.1304907992
H   H69       1.0  0.08490  0.86130  0.22350  1.0000 0.151056883
H   H70       1.0  0.41510  0.36130  0.77650  1.0000 0.151056883
H   H71       1.0  0.91510  0.13870  0.77650  1.0000 0.151056883
H   H72       1.0  0.58490  0.63870  0.22350  1.0000 0.151056883
H   H73       1.0  0.22270  0.81040  0.28130  1.0000 0.1304907992
H   H74       1.0  0.27730  0.31040  0.71870  1.0000 0.1304907992
H   H75       1.0  0.77730  0.18960  0.71870  1.0000 0.1304907992
H   H76       1.0  0.72270  0.68960  0.28130  1.0000 0.1304907992
H   H77       1.0  0.34550  0.86740  0.25360  1.0000 0.1304907992
H   H78       1.0  0.15450  0.36740  0.74640  1.0000 0.1304907992
H   H79       1.0  0.65450  0.13260  0.74640  1.0000 0.1304907992
H   H80       1.0  0.84550  0.63260  0.25360  1.0000 0.1304907992
H   H81       1.0  0.90390  0.16790  0.55830  1.0000 0.1304907992
H   H82       1.0  0.59610  0.66790  0.44170  1.0000 0.1304907992
H   H83       1.0  0.09610  0.83210  0.44170  1.0000 0.1304907992
H   H84       1.0  0.40390  0.33210  0.55830  1.0000 0.1304907992
H   H85       1.0  0.99320  0.28150  0.57700  1.0000 0.1304907992
H   H86       1.0  0.50680  0.78150  0.42300  1.0000 0.1304907992
H   H87       1.0  0.00680  0.71850  0.42300  1.0000 0.1304907992
H   H88       1.0  0.49320  0.21850  0.57700  1.0000 0.1304907992
H   H89       1.0  0.78610  0.42690  0.55580  1.0000 0.1188345788
H   H90       1.0  0.71390  0.92690  0.44420  1.0000 0.1188345788
H   H91       1.0  0.21390  0.57310  0.44420  1.0000 0.1188345788
H   H92       1.0  0.28610  0.07310  0.55580  1.0000 0.1188345788
H   H93       1.0  0.69470  0.31320  0.53700  1.0000 0.1188345788
H   H94       1.0  0.80530  0.81320  0.46300  1.0000 0.1188345788
H   H95       1.0  0.30530  0.68680  0.46300  1.0000 0.1188345788
H   H96       1.0  0.19470  0.18680  0.53700  1.0000 0.1188345788
H   H97       1.0  0.67490  0.30630  0.09560  1.0000 0.1188345788
H   H98       1.0  0.82510  0.80630  0.90440  1.0000 0.1188345788
H   H99       1.0  0.32510  0.69370  0.90440  1.0000 0.1188345788
H   H100      1.0  0.17490  0.19370  0.09560  1.0000 0.1188345788
H   H101      1.0  0.74550  0.30280  0.88230  1.0000 0.1188345788
H   H102      1.0  0.75450  0.80280  0.11770  1.0000 0.1188345788
H   H103      1.0  0.25450  0.69720  0.11770  1.0000 0.1188345788
H   H104      1.0  0.24550  0.19720  0.88230  1.0000 0.1188345788
H   H105      1.0  0.84400  0.19970  0.92920  1.0000 0.1188345788
H   H106      1.0  0.65600  0.69970  0.07080  1.0000 0.1188345788
H   H107      1.0  0.15600  0.80030  0.07080  1.0000 0.1188345788
H   H108      1.0  0.34400  0.30030  0.92920  1.0000 0.1188345788
H   H109      1.0  0.77140  0.19970  0.14010  1.0000 0.1188345788
H   H110      1.0  0.72860  0.69970  0.85990  1.0000 0.1188345788
H   H111      1.0  0.22860  0.80030  0.85990  1.0000 0.1188345788
H   H112      1.0  0.27140  0.30030  0.14010  1.0000 0.1188345788
H   H113      1.0  0.89570  0.92520  0.41150  1.0000 0.1188345788
H   H114      1.0  0.60430  0.42520  0.58850  1.0000 0.1188345788
H   H115      1.0  0.10430  0.07480  0.58850  1.0000 0.1188345788
H   H116      1.0  0.39570  0.57480  0.41150  1.0000 0.1188345788
H   H117      1.0  0.09280  0.08310  0.44940  1.0000 0.1124504033
H   H118      1.0  0.40720  0.58310  0.55060  1.0000 0.1124504033
H   H119      1.0  0.90720  0.91690  0.55060  1.0000 0.1124504033
H   H120      1.0  0.59280  0.41690  0.44940  1.0000 0.1124504033
C   C1        1.0  0.75630  0.92360  0.65460  1.0000 0.0835852745
C   C2        1.0  0.74370  0.42360  0.34540  1.0000 0.0835852745
C   C3        1.0  0.24370  0.07640  0.34540  1.0000 0.0835852745
C   C4        1.0  0.25630  0.57640  0.65460  1.0000 0.0835852745
C   C5        1.0  0.78480  0.84950  0.68780  1.0000 -0.1389092681
C   C6        1.0  0.71520  0.34950  0.31220  1.0000 -0.1389092681
C   C7        1.0  0.21520  0.15050  0.31220  1.0000 -0.1389092681
C   C8        1.0  0.28480  0.65050  0.68780  1.0000 -0.1389092681
C   C9        1.0  0.72920  0.78690  0.69070  1.0000 -0.1724104759
C   C10       1.0  0.77080  0.28690  0.30930  1.0000 -0.1724104759
C   C11       1.0  0.27080  0.21310  0.30930  1.0000 -0.1724104759
C   C12       1.0  0.22920  0.71310  0.69070  1.0000 -0.1724104759
C   C13       1.0  0.63120  0.80460  0.66200  1.0000 0.2874372575
C   C14       1.0  0.86880  0.30460  0.33800  1.0000 0.2874372575
C   C15       1.0  0.36880  0.19540  0.33800  1.0000 0.2874372575
C   C16       1.0  0.13120  0.69540  0.66200  1.0000 0.2874372575
C   C17       1.0  0.61350  0.87950  0.63220  1.0000 -0.2310378243
C   C18       1.0  0.88650  0.37950  0.36780  1.0000 -0.2310378243
C   C19       1.0  0.38650  0.12050  0.36780  1.0000 -0.2310378243
C   C20       1.0  0.11350  0.62050  0.63220  1.0000 -0.2310378243
C   C21       1.0  0.48960  0.76480  0.65320  1.0000 -0.1106315136
C   C22       1.0  0.01040  0.26480  0.34680  1.0000 -0.1106315136
C   C23       1.0  0.51040  0.23520  0.34680  1.0000 -0.1106315136
C   C24       1.0  0.98960  0.73520  0.65320  1.0000 -0.1106315136
C   C25       1.0  0.47110  0.80340  0.72960  1.0000 0.0690482356
C   C26       1.0  0.02890  0.30340  0.27040  1.0000 0.0690482356
C   C27       1.0  0.52890  0.19660  0.27040  1.0000 0.0690482356
C   C28       1.0  0.97110  0.69660  0.72960  1.0000 0.0690482356
C   C29       1.0  0.42980  0.87620  0.72840  1.0000 -0.158766535
C   C30       1.0  0.07020  0.37620  0.27160  1.0000 -0.158766535
C   C31       1.0  0.57020  0.12380  0.27160  1.0000 -0.158766535
C   C32       1.0  0.92980  0.62380  0.72840  1.0000 -0.158766535
C   C33       1.0  0.41280  0.90980  0.79930  1.0000 -0.1490860934
C   C34       1.0  0.08720  0.40980  0.20070  1.0000 -0.1490860934
C   C35       1.0  0.58720  0.09020  0.20070  1.0000 -0.1490860934
C   C36       1.0  0.91280  0.59020  0.79930  1.0000 -0.1490860934
C   C37       1.0  0.43820  0.87050  0.87200  1.0000 0.0690482356
C   C38       1.0  0.06180  0.37050  0.12800  1.0000 0.0690482356
C   C39       1.0  0.56180  0.12950  0.12800  1.0000 0.0690482356
C   C40       1.0  0.93820  0.62950  0.87200  1.0000 0.0690482356
C   C41       1.0  0.48040  0.79510  0.87120  1.0000 -0.1490860934
C   C42       1.0  0.01960  0.29510  0.12880  1.0000 -0.1490860934
C   C43       1.0  0.51960  0.20490  0.12880  1.0000 -0.1490860934
C   C44       1.0  0.98040  0.70490  0.87120  1.0000 -0.1490860934
C   C45       1.0  0.49580  0.76400  0.80060  1.0000 -0.1317511917
C   C46       1.0  0.00420  0.26400  0.19940  1.0000 -0.1317511917
C   C47       1.0  0.50420  0.23600  0.19940  1.0000 -0.1317511917
C   C48       1.0  0.99580  0.73600  0.80060  1.0000 -0.1317511917
C   C49       1.0  0.41980  0.90360  0.94770  1.0000 0.0690482356
C   C50       1.0  0.08020  0.40360  0.05230  1.0000 0.0690482356
C   C51       1.0  0.58020  0.09640  0.05230  1.0000 0.0690482356
C   C52       1.0  0.91980  0.59640  0.94770  1.0000 0.0690482356
C   C53       1.0  0.36100  0.96830  0.94740  1.0000 -0.1317511917
C   C54       1.0  0.13900  0.46830  0.05260  1.0000 -0.1317511917
C   C55       1.0  0.63900  0.03170  0.05260  1.0000 -0.1317511917
C   C56       1.0  0.86100  0.53170  0.94740  1.0000 -0.1317511917
C   C57       1.0  0.34580  0.99820  0.01930  1.0000 -0.1490860934
C   C58       1.0  0.15420  0.49820  0.98070  1.0000 -0.1490860934
C   C59       1.0  0.65420  0.00180  0.98070  1.0000 -0.1490860934
C   C60       1.0  0.84580  0.50180  0.01930  1.0000 -0.1490860934
C   C61       1.0  0.38430  0.96480  0.09250  1.0000 0.0931208554
C   C62       1.0  0.11570  0.46480  0.90750  1.0000 0.0931208554
C   C63       1.0  0.61570  0.03520  0.90750  1.0000 0.0931208554
C   C64       1.0  0.88430  0.53520  0.09250  1.0000 0.0931208554
C   C65       1.0  0.43940  0.90090  0.09340  1.0000 -0.158766535
C   C66       1.0  0.06060  0.40090  0.90660  1.0000 -0.158766535
C   C67       1.0  0.56060  0.09910  0.90660  1.0000 -0.158766535
C   C68       1.0  0.93940  0.59910  0.09340  1.0000 -0.158766535
C   C69       1.0  0.45840  0.87150  0.02210  1.0000 -0.1317511917
C   C70       1.0  0.04160  0.37150  0.97790  1.0000 -0.1317511917
C   C71       1.0  0.54160  0.12850  0.97790  1.0000 -0.1317511917
C   C72       1.0  0.95840  0.62850  0.02210  1.0000 -0.1317511917
C   C73       1.0  0.36470  0.99750  0.16980  1.0000 -0.2043115449
C   C74       1.0  0.13530  0.49750  0.83020  1.0000 -0.2043115449
C   C75       1.0  0.63530  0.00250  0.83020  1.0000 -0.2043115449
C   C76       1.0  0.86470  0.50250  0.16980  1.0000 -0.2043115449
C   C77       1.0  0.20350  0.98990  0.15150  1.0000 -0.1490860934
C   C78       1.0  0.29650  0.48990  0.84850  1.0000 -0.1490860934
C   C79       1.0  0.79650  0.01010  0.84850  1.0000 -0.1490860934
C   C80       1.0  0.70350  0.51010  0.15150  1.0000 -0.1490860934
C   C81       1.0  0.12650  0.95580  0.16410  1.0000 0.3189768168
C   C82       1.0  0.37350  0.45580  0.83590  1.0000 0.3189768168
C   C83       1.0  0.87350  0.04420  0.83590  1.0000 0.3189768168
C   C84       1.0  0.62650  0.54420  0.16410  1.0000 0.3189768168
C   C85       1.0  0.13460  0.88650  0.21350  1.0000 -0.185551661
C   C86       1.0  0.36540  0.38650  0.78650  1.0000 -0.185551661
C   C87       1.0  0.86540  0.11350  0.78650  1.0000 -0.185551661
C   C88       1.0  0.63460  0.61350  0.21350  1.0000 -0.185551661
C   C89       1.0  0.21730  0.85570  0.24740  1.0000 -0.1317511917
C   C90       1.0  0.28270  0.35570  0.75260  1.0000 -0.1317511917
C   C91       1.0  0.78270  0.14430  0.75260  1.0000 -0.1317511917
C   C92       1.0  0.71730  0.64430  0.24740  1.0000 -0.1317511917
C   C93       1.0  0.29060  0.89020  0.23230  1.0000 -0.0606956379
C   C94       1.0  0.20940  0.39020  0.76770  1.0000 -0.0606956379
C   C95       1.0  0.70940  0.10980  0.76770  1.0000 -0.0606956379
C   C96       1.0  0.79060  0.60980  0.23230  1.0000 -0.0606956379
C   C97       1.0  0.73170  0.15560  0.54540  1.0000 0.4885189804
C   C98       1.0  0.76830  0.65560  0.45460  1.0000 0.4885189804
C   C99       1.0  0.26830  0.84440  0.45460  1.0000 0.4885189804
C   C100      1.0  0.23170  0.34440  0.54540  1.0000 0.4885189804
C   C101      1.0  0.79330  0.22770  0.54980  1.0000 5.43726e-05
C   C102      1.0  0.70670  0.72770  0.45020  1.0000 5.43726e-05
C   C103      1.0  0.20670  0.77230  0.45020  1.0000 -0.0026427712
C   C104      1.0  0.29330  0.27230  0.54980  1.0000 -0.0026427712
C   C105      1.0  0.87940  0.21960  0.55900  1.0000 -0.1031734343
C   C106      1.0  0.62060  0.71960  0.44100  1.0000 -0.1031734343
C   C107      1.0  0.12060  0.78040  0.44100  1.0000 -0.1031734343
C   C108      1.0  0.37940  0.28040  0.55900  1.0000 -0.1031734343
C   C109      1.0  0.93280  0.28810  0.56960  1.0000 -0.1031734343
C   C110      1.0  0.56720  0.78810  0.43040  1.0000 -0.1031734343
C   C111      1.0  0.06720  0.71190  0.43040  1.0000 -0.1031734343
C   C112      1.0  0.43280  0.21190  0.56960  1.0000 -0.1031734343
C   C113      1.0  0.89900  0.36520  0.56950  1.0000 -0.0306442295
C   C114      1.0  0.60100  0.86520  0.43050  1.0000 -0.0306442295
C   C115      1.0  0.10100  0.63480  0.43050  1.0000 -0.0306442295
C   C116      1.0  0.39900  0.13480  0.56950  1.0000 -0.0306442295
C   C117      1.0  0.95830  0.43780  0.57810  1.0000 0.5767182085
C   C118      1.0  0.54170  0.93780  0.42190  1.0000 0.5767182085
C   C119      1.0  0.04170  0.56220  0.42190  1.0000 0.5767182085
C   C120      1.0  0.45830  0.06220  0.57810  1.0000 0.5767182085
C   C121      1.0  0.81000  0.37470  0.55710  1.0000 -0.1197172443
C   C122      1.0  0.69000  0.87470  0.44290  1.0000 -0.1197172443
C   C123      1.0  0.19000  0.62530  0.44290  1.0000 -0.1197172443
C   C124      1.0  0.31000  0.12530  0.55710  1.0000 -0.1197172443
C   C125      1.0  0.75530  0.30690  0.54630  1.0000 -0.1197172443
C   C126      1.0  0.74470  0.80690  0.45370  1.0000 -0.1197172443
C   C127      1.0  0.24470  0.69310  0.45370  1.0000 -0.1197172443
C   C128      1.0  0.25530  0.19310  0.54630  1.0000 -0.1197172443
C   C129      1.0  0.63350  0.38000  0.95270  1.0000 0.5722001466
C   C130      1.0  0.86650  0.88000  0.04730  1.0000 0.5722001466
C   C131      1.0  0.36650  0.62000  0.04730  1.0000 0.5722001466
C   C132      1.0  0.13350  0.12000  0.95270  1.0000 0.5722001466
C   C133      1.0  0.70740  0.28380  0.06150  1.0000 -0.1197172443
C   C134      1.0  0.79260  0.78380  0.93850  1.0000 -0.1197172443
C   C135      1.0  0.29260  0.71620  0.93850  1.0000 -0.1197172443
C   C136      1.0  0.20740  0.21620  0.06150  1.0000 -0.1197172443
C   C137      1.0  0.69800  0.31410  0.98280  1.0000 -0.04088902
C   C138      1.0  0.80200  0.81410  0.01720  1.0000 -0.04088902
C   C139      1.0  0.30200  0.68590  0.01720  1.0000 -0.04088902
C   C140      1.0  0.19800  0.18590  0.98280  1.0000 -0.04088902
C   C141      1.0  0.75020  0.28200  0.93410  1.0000 -0.1106315136
C   C142      1.0  0.74980  0.78200  0.06590  1.0000 -0.1106315136
C   C143      1.0  0.24980  0.71800  0.06590  1.0000 -0.1106315136
C   C144      1.0  0.25020  0.21800  0.93410  1.0000 -0.1106315136
C   C145      1.0  0.80850  0.21980  0.96180  1.0000 -0.1106315136
C   C146      1.0  0.69150  0.71980  0.03820  1.0000 -0.1106315136
C   C147      1.0  0.19150  0.78020  0.03820  1.0000 -0.1106315136
C   C148      1.0  0.30850  0.28020  0.96180  1.0000 -0.1106315136
C   C149      1.0  0.81450  0.18710  0.03810  1.0000 -0.0306442295
C   C150      1.0  0.68550  0.68710  0.96190  1.0000 -0.0306442295
C   C151      1.0  0.18550  0.81290  0.96190  1.0000 -0.0306442295
C   C152      1.0  0.31450  0.31290  0.03810  1.0000 -0.0306442295
C   C153      1.0  0.76550  0.22020  0.08810  1.0000 -0.1106315136
C   C154      1.0  0.73450  0.72020  0.91190  1.0000 -0.1106315136
C   C155      1.0  0.23450  0.77980  0.91190  1.0000 -0.1106315136
C   C156      1.0  0.26550  0.27980  0.08810  1.0000 -0.1106315136
C   C157      1.0  0.87400  0.11700  0.06480  1.0000 0.5722001466
C   C158      1.0  0.62600  0.61700  0.93520  1.0000 0.5722001466
C   C159      1.0  0.12600  0.88300  0.93520  1.0000 0.5722001466
C   C160      1.0  0.37400  0.38300  0.06480  1.0000 0.5722001466
C   C161      1.0  0.98920  0.00840  0.32870  1.0000 0.5469354364
C   C162      1.0  0.51080  0.50840  0.67130  1.0000 0.5469354364
C   C163      1.0  0.01080  0.99160  0.67130  1.0000 0.5469354364
C   C164      1.0  0.48920  0.49160  0.32870  1.0000 0.5469354364
C   C165      1.0  0.99480  0.00420  0.41830  1.0000 -0.0026427712
C   C166      1.0  0.50520  0.50420  0.58170  1.0000 -0.0026427712
C   C167      1.0  0.00520  0.99580  0.58170  1.0000 -0.0053217184
C   C168      1.0  0.49480  0.49580  0.41830  1.0000 -0.0053217184
C   C169      1.0  0.93830  0.95540  0.44700  1.0000 -0.1106315136
C   C170      1.0  0.56170  0.45540  0.55300  1.0000 -0.1106315136
C   C171      1.0  0.06170  0.04460  0.55300  1.0000 -0.1106315136
C   C172      1.0  0.43830  0.54460  0.44700  1.0000 -0.1106315136
C   C173      1.0  0.05520  0.04900  0.46960  1.0000 -0.1106315136
C   C174      1.0  0.44480  0.54900  0.53040  1.0000 -0.1106315136
C   C175      1.0  0.94480  0.95100  0.53040  1.0000 -0.1106315136
C   C176      1.0  0.55520  0.45100  0.46960  1.0000 -0.1106315136
N   N1        1.0  0.67840  0.94180  0.62630  1.0000 -0.2310378243
N   N2        1.0  0.82160  0.44180  0.37370  1.0000 -0.2310378243
N   N3        1.0  0.32160  0.05820  0.37370  1.0000 -0.2310378243
N   N4        1.0  0.17840  0.55820  0.62630  1.0000 -0.2310378243
N   N5        1.0  0.28300  0.95740  0.18630  1.0000 0.1304907992
N   N6        1.0  0.21700  0.45740  0.81370  1.0000 0.1304907992
N   N7        1.0  0.71700  0.04260  0.81370  1.0000 0.1304907992
N   N8        1.0  0.78300  0.54260  0.18630  1.0000 0.1304907992
O   O1        1.0  0.75860  0.08640  0.55660  1.0000 -0.4466123086
O   O2        1.0  0.74140  0.58640  0.44340  1.0000 -0.4466123086
O   O3        1.0  0.24140  0.91360  0.44340  1.0000 -0.4466123086
O   O4        1.0  0.25860  0.41360  0.55660  1.0000 -0.4466123086
O   O5        1.0  0.65510  0.16550  0.53940  1.0000 -0.4265859154
O   O6        1.0  0.84490  0.66550  0.46060  1.0000 -0.4265859154
O   O7        1.0  0.34490  0.83450  0.46060  1.0000 -0.4265859154
O   O8        1.0  0.15510  0.33450  0.53940  1.0000 -0.4265859154
O   O9        1.0  0.03910  0.42700  0.61260  1.0000 -0.5321709615
O   O10       1.0  0.46090  0.92700  0.38740  1.0000 -0.5321709615
O   O11       1.0  0.96090  0.57300  0.38740  1.0000 -0.5321709615
O   O12       1.0  0.53910  0.07300  0.61260  1.0000 -0.5321709615
O   O13       1.0  0.92980  0.50510  0.55030  1.0000 -0.5321709615
O   O14       1.0  0.57020  0.00510  0.44970  1.0000 -0.5321709615
O   O15       1.0  0.07020  0.49490  0.44970  1.0000 -0.5321709615
O   O16       1.0  0.42980  0.99490  0.55030  1.0000 -0.5321709615
O   O17       1.0  0.91520  0.08950  0.01631  1.0000 -0.5423219827
O   O18       1.0  0.58480  0.58950  0.98369  1.0000 -0.5423219827
O   O19       1.0  0.08480  0.91050  0.98369  1.0000 -0.5423219827
O   O20       1.0  0.41520  0.41050  0.01631  1.0000 -0.5423219827
O   O21       1.0  0.87840  0.08897  0.13438  1.0000 -0.5321709615
O   O22       1.0  0.62160  0.58897  0.86562  1.0000 -0.5321709615
O   O23       1.0  0.12160  0.91103  0.86562  1.0000 -0.5321709615
O   O24       1.0  0.37840  0.41103  0.13438  1.0000 -0.5321709615
O   O25       1.0  0.62330  0.39880  0.87924  1.0000 -0.5321709615
O   O26       1.0  0.87670  0.89880  0.12076  1.0000 -0.5321709615
O   O27       1.0  0.37670  0.60120  0.12076  1.0000 -0.5321709615
O   O28       1.0  0.12330  0.10120  0.87924  1.0000 -0.5321709615
O   O29       1.0  0.59510  0.41210  0.00100  1.0000 -0.5485197556
O   O30       1.0  0.90490  0.91210  0.99900  1.0000 -0.5485197556
O   O31       1.0  0.40490  0.58790  0.99900  1.0000 -0.5485197556
O   O32       1.0  0.09510  0.08790  0.00100  1.0000 -0.5485197556
O   O33       1.0  0.03360  0.05930  0.30050  1.0000 -0.5485197556
O   O34       1.0  0.46640  0.55930  0.69950  1.0000 -0.5485197556
O   O35       1.0  0.96640  0.94070  0.69950  1.0000 -0.5485197556
O   O36       1.0  0.53360  0.44070  0.30050  1.0000 -0.5485197556
O   O37       1.0  0.94220  0.95730  0.28428  1.0000 -0.5093166259
O   O38       1.0  0.55780  0.45730  0.71572  1.0000 -0.5093166259
O   O39       1.0  0.05780  0.04270  0.71572  1.0000 -0.5093166259
O   O40       1.0  0.44220  0.54270  0.28428  1.0000 -0.5093166259
O   O41       1.0  0.05069  0.98789  0.12882  1.0000 -0.5662331608
O   O42       1.0  0.44931  0.48789  0.87118  1.0000 -0.5662331608
O   O43       1.0  0.94931  0.01211  0.87118  1.0000 -0.5662331608
O   O44       1.0  0.55069  0.51211  0.12882  1.0000 -0.5662331608
O   O45       1.0  0.58520  0.74540  0.66370  1.0000 -0.1031734343
O   O46       1.0  0.91480  0.24540  0.33630  1.0000 -0.1031734343
O   O47       1.0  0.41480  0.25460  0.33630  1.0000 -0.1031734343
O   O48       1.0  0.08520  0.75460  0.66370  1.0000 -0.1031734343
