# DDEC6 charges by PACMAN v1.1 (https://github.com/mtap-research/PACMAN-charge/)
data_2007[Co][dmc]3[FSR]1
_chemical_formula_sum              "Co10 H52 C44 O64"
_cell_length_a       12.6162
_cell_length_b       11.3768
_cell_length_c       15.3401
_cell_angle_alpha    90
_cell_angle_beta     91.539
_cell_angle_gamma    90

_symmetry_space_group_name_H-M    "P 1"
_symmetry_Int_Tables_number       1

loop_
  _symmetry_equiv_pos_as_xyz
  'x, y, z'

loop_
  _atom_site_type_symbol
  _atom_site_label
  _atom_site_symmetry_multiplicity
  _atom_site_fract_x
  _atom_site_fract_y
  _atom_site_fract_z
  _atom_site_occupancy
  _atom_site_charge
Co  Co1       1.0  0.00000  0.00000  0.00000  1.0000 1.0831896646
Co  Co2       1.0  0.00000  0.50000  0.50000  1.0000 1.0831896646
Co  Co3       1.0  0.28766  0.90004  0.77122  1.0000 1.0417430385
Co  Co4       1.0  0.71234  0.40004  0.72878  1.0000 1.0417430385
Co  Co5       1.0  0.71234  0.09996  0.22878  1.0000 1.0417430385
Co  Co6       1.0  0.28766  0.59996  0.27122  1.0000 1.0417430385
Co  Co7       1.0  0.50599  0.99803  0.70758  1.0000 1.0549607857
Co  Co8       1.0  0.49401  0.49803  0.79242  1.0000 1.0549607857
Co  Co9       1.0  0.49401  0.00197  0.29242  1.0000 1.0549607857
Co  Co10      1.0  0.50599  0.50197  0.20758  1.0000 1.0549607857
H   H1        1.0  0.32000  0.07400  0.06400  1.0000 0.1404137297
H   H2        1.0  0.68000  0.57400  0.43600  1.0000 0.1404137297
H   H3        1.0  0.68000  0.92600  0.93600  1.0000 0.1404137297
H   H4        1.0  0.32000  0.42600  0.56400  1.0000 0.1404137297
H   H5        1.0  0.91900  0.00000  0.83600  1.0000 0.3989340672
H   H6        1.0  0.08100  0.50000  0.66400  1.0000 0.3989340672
H   H7        1.0  0.08100  0.00000  0.16400  1.0000 0.3989340672
H   H8        1.0  0.91900  0.50000  0.33600  1.0000 0.3989340672
H   H9        1.0  0.03990  0.98300  0.84300  1.0000 0.3877988032
H   H10       1.0  0.96010  0.48300  0.65700  1.0000 0.3877988032
H   H11       1.0  0.96010  0.01700  0.15700  1.0000 0.3877988032
H   H12       1.0  0.03990  0.51700  0.34300  1.0000 0.3877988032
H   H13       1.0  0.85450  0.17200  0.98100  1.0000 0.40855228
H   H14       1.0  0.14550  0.67200  0.51900  1.0000 0.40855228
H   H15       1.0  0.14550  0.82800  0.01900  1.0000 0.40855228
H   H16       1.0  0.85450  0.32800  0.48100  1.0000 0.40855228
H   H17       1.0  0.96100  0.20600  0.94400  1.0000 0.3877988032
H   H18       1.0  0.03900  0.70600  0.55600  1.0000 0.3877988032
H   H19       1.0  0.03900  0.79400  0.05600  1.0000 0.3877988032
H   H20       1.0  0.96100  0.29400  0.44400  1.0000 0.3877988032
H   H21       1.0  0.25500  0.71800  0.87100  1.0000 0.40855228
H   H22       1.0  0.74500  0.21800  0.62900  1.0000 0.40855228
H   H23       1.0  0.74500  0.28200  0.12900  1.0000 0.40855228
H   H24       1.0  0.25500  0.78200  0.37100  1.0000 0.40855228
H   H25       1.0  0.20800  0.69100  0.78210  1.0000 0.3989340672
H   H26       1.0  0.79200  0.19100  0.71790  1.0000 0.3989340672
H   H27       1.0  0.79200  0.30900  0.21790  1.0000 0.3989340672
H   H28       1.0  0.20800  0.80900  0.28210  1.0000 0.3989340672
H   H29       1.0  0.12660  0.85500  0.66400  1.0000 0.3877988032
H   H30       1.0  0.87340  0.35500  0.83600  1.0000 0.3877988032
H   H31       1.0  0.87340  0.14500  0.33600  1.0000 0.3877988032
H   H32       1.0  0.12660  0.64500  0.16400  1.0000 0.3877988032
H   H33       1.0  0.22900  0.82400  0.62100  1.0000 0.3877988032
H   H34       1.0  0.77100  0.32400  0.87900  1.0000 0.3877988032
H   H35       1.0  0.77100  0.17600  0.37900  1.0000 0.3877988032
H   H36       1.0  0.22900  0.67600  0.12100  1.0000 0.3877988032
H   H37       1.0  0.54100  0.10900  0.56100  1.0000 0.3877988032
H   H38       1.0  0.45900  0.60900  0.93900  1.0000 0.3877988032
H   H39       1.0  0.45900  0.89100  0.43900  1.0000 0.3877988032
H   H40       1.0  0.54100  0.39100  0.06100  1.0000 0.3877988032
H   H41       1.0  0.42780  0.06600  0.55300  1.0000 0.4161470516
H   H42       1.0  0.57220  0.56600  0.94700  1.0000 0.4161470516
H   H43       1.0  0.57220  0.93400  0.44700  1.0000 0.4161470516
H   H44       1.0  0.42780  0.43400  0.05300  1.0000 0.4161470516
H   H45       1.0  0.67700  0.93500  0.61950  1.0000 0.3989340672
H   H46       1.0  0.32300  0.43500  0.88050  1.0000 0.3989340672
H   H47       1.0  0.32300  0.06500  0.38050  1.0000 0.3989340672
H   H48       1.0  0.67700  0.56500  0.11950  1.0000 0.3989340672
H   H49       1.0  0.68600  0.87000  0.70400  1.0000 0.3877988032
H   H50       1.0  0.31400  0.37000  0.79600  1.0000 0.3877988032
H   H51       1.0  0.31400  0.13000  0.29600  1.0000 0.3877988032
H   H52       1.0  0.68600  0.63000  0.20400  1.0000 0.3877988032
C   C1        1.0  0.31790  0.11190  0.92948  1.0000 -0.0435506392
C   C2        1.0  0.68210  0.61190  0.57052  1.0000 -0.0435506392
C   C3        1.0  0.68210  0.88810  0.07052  1.0000 -0.0435506392
C   C4        1.0  0.31790  0.38810  0.42948  1.0000 -0.0435506392
C   C5        1.0  0.37890  0.15280  0.86109  1.0000 -0.0912288462
C   C6        1.0  0.62110  0.65280  0.63891  1.0000 -0.0912288462
C   C7        1.0  0.62110  0.84720  0.13891  1.0000 -0.0912288462
C   C8        1.0  0.37890  0.34720  0.36109  1.0000 -0.0912288462
C   C9        1.0  0.48250  0.19360  0.87821  1.0000 -0.0912288462
C   C10       1.0  0.51750  0.69360  0.62179  1.0000 -0.0912288462
C   C11       1.0  0.51750  0.80640  0.12179  1.0000 -0.0912288462
C   C12       1.0  0.48250  0.30640  0.37821  1.0000 -0.0912288462
C   C13       1.0  0.52740  0.18900  0.96226  1.0000 -0.0457474643
C   C14       1.0  0.47260  0.68900  0.53774  1.0000 -0.0457474643
C   C15       1.0  0.47260  0.81100  0.03774  1.0000 -0.0457474643
C   C16       1.0  0.52740  0.31100  0.46226  1.0000 -0.0457474643
C   C17       1.0  0.46740  0.14050  0.02933  1.0000 -0.0592663751
C   C18       1.0  0.53260  0.64050  0.47067  1.0000 -0.0592663751
C   C19       1.0  0.53260  0.85950  0.97067  1.0000 -0.0592663751
C   C20       1.0  0.46740  0.35950  0.52933  1.0000 -0.0592663751
C   C21       1.0  0.36320  0.10720  0.01299  1.0000 -0.0912288462
C   C22       1.0  0.63680  0.60720  0.48701  1.0000 -0.0912288462
C   C23       1.0  0.63680  0.89280  0.98701  1.0000 -0.0912288462
C   C24       1.0  0.36320  0.39280  0.51299  1.0000 -0.0912288462
C   C25       1.0  0.20830  0.06310  0.91562  1.0000 0.6056882127
C   C26       1.0  0.79170  0.56310  0.58438  1.0000 0.6056882127
C   C27       1.0  0.79170  0.93690  0.08438  1.0000 0.6056882127
C   C28       1.0  0.20830  0.43690  0.41562  1.0000 0.6056882127
C   C29       1.0  0.33460  0.15210  0.76873  1.0000 0.5931158149
C   C30       1.0  0.66540  0.65210  0.73127  1.0000 0.5931158149
C   C31       1.0  0.66540  0.84790  0.23127  1.0000 0.5931158149
C   C32       1.0  0.33460  0.34790  0.26873  1.0000 0.5931158149
C   C33       1.0  0.54920  0.23380  0.80420  1.0000 0.6029887779
C   C34       1.0  0.45080  0.73380  0.69580  1.0000 0.6029887779
C   C35       1.0  0.45080  0.76620  0.19580  1.0000 0.6029887779
C   C36       1.0  0.54920  0.26620  0.30420  1.0000 0.6029887779
C   C37       1.0  0.64000  0.23330  0.97750  1.0000 0.5931158149
C   C38       1.0  0.36000  0.73330  0.52250  1.0000 0.5931158149
C   C39       1.0  0.36000  0.76670  0.02250  1.0000 0.5931158149
C   C40       1.0  0.64000  0.26670  0.47750  1.0000 0.5931158149
C   C41       1.0  0.51670  0.10880  0.11586  1.0000 0.5931158149
C   C42       1.0  0.48330  0.60880  0.38414  1.0000 0.5931158149
C   C43       1.0  0.48330  0.89120  0.88414  1.0000 0.5931158149
C   C44       1.0  0.51670  0.39120  0.61586  1.0000 0.5931158149
O   O1        1.0  0.14565  0.07881  0.97667  1.0000 -0.5789469397
O   O2        1.0  0.85435  0.57881  0.52333  1.0000 -0.5789469397
O   O3        1.0  0.85435  0.92119  0.02333  1.0000 -0.5789469397
O   O4        1.0  0.14565  0.42119  0.47667  1.0000 -0.5789469397
O   O5        1.0  0.18520  0.00811  0.84568  1.0000 -0.5883289294
O   O6        1.0  0.81480  0.50811  0.65432  1.0000 -0.5883289294
O   O7        1.0  0.81480  0.99189  0.15432  1.0000 -0.5883289294
O   O8        1.0  0.18520  0.49189  0.34568  1.0000 -0.5883289294
O   O9        1.0  0.34849  0.05758  0.72448  1.0000 -0.6201316879
O   O10       1.0  0.65151  0.55758  0.77552  1.0000 -0.6201316879
O   O11       1.0  0.65151  0.94242  0.27552  1.0000 -0.6201316879
O   O12       1.0  0.34849  0.44242  0.22448  1.0000 -0.6201316879
O   O13       1.0  0.28910  0.24048  0.74003  1.0000 -0.4672272966
O   O14       1.0  0.71090  0.74048  0.75997  1.0000 -0.4672272966
O   O15       1.0  0.71090  0.75952  0.25997  1.0000 -0.4672272966
O   O16       1.0  0.28910  0.25952  0.24003  1.0000 -0.4672272966
O   O17       1.0  0.56497  0.16590  0.74240  1.0000 -0.5293041037
O   O18       1.0  0.43503  0.66590  0.75760  1.0000 -0.5293041037
O   O19       1.0  0.43503  0.83410  0.25760  1.0000 -0.5293041037
O   O20       1.0  0.56497  0.33410  0.24240  1.0000 -0.5293041037
O   O21       1.0  0.58893  0.33691  0.81084  1.0000 -0.6201316879
O   O22       1.0  0.41107  0.83691  0.68916  1.0000 -0.6201316879
O   O23       1.0  0.41107  0.66309  0.18916  1.0000 -0.6201316879
O   O24       1.0  0.58893  0.16309  0.31084  1.0000 -0.6201316879
O   O25       1.0  0.71278  0.18143  0.93825  1.0000 -0.5789469397
O   O26       1.0  0.28722  0.68143  0.56175  1.0000 -0.5789469397
O   O27       1.0  0.28722  0.81857  0.06175  1.0000 -0.5789469397
O   O28       1.0  0.71278  0.31857  0.43825  1.0000 -0.5789469397
O   O29       1.0  0.65348  0.32275  0.02459  1.0000 -0.5732842402
O   O30       1.0  0.34652  0.82275  0.47541  1.0000 -0.5732842402
O   O31       1.0  0.34652  0.67725  0.97541  1.0000 -0.5732842402
O   O32       1.0  0.65348  0.17725  0.52459  1.0000 -0.5732842402
O   O33       1.0  0.45653  0.07045  0.17373  1.0000 -0.5583622621
O   O34       1.0  0.54347  0.57045  0.32627  1.0000 -0.5583622621
O   O35       1.0  0.54347  0.92955  0.82627  1.0000 -0.5583622621
O   O36       1.0  0.45653  0.42955  0.67373  1.0000 -0.5583622621
O   O37       1.0  0.61612  0.11596  0.12230  1.0000 -0.5789469397
O   O38       1.0  0.38388  0.61596  0.37770  1.0000 -0.5789469397
O   O39       1.0  0.38388  0.88404  0.87770  1.0000 -0.5789469397
O   O40       1.0  0.61612  0.38404  0.62230  1.0000 -0.5789469397
O   O41       1.0  0.97399  0.96485  0.86752  1.0000 -0.7502917217
O   O42       1.0  0.02601  0.46485  0.63248  1.0000 -0.7502917217
O   O43       1.0  0.02601  0.03515  0.13248  1.0000 -0.7502917217
O   O44       1.0  0.97399  0.53515  0.36752  1.0000 -0.7502917217
O   O45       1.0  0.92777  0.16514  0.98762  1.0000 -0.7375694827
O   O46       1.0  0.07223  0.66514  0.51238  1.0000 -0.7375694827
O   O47       1.0  0.07223  0.83486  0.01238  1.0000 -0.7375694827
O   O48       1.0  0.92777  0.33486  0.48762  1.0000 -0.7375694827
O   O49       1.0  0.21742  0.74838  0.82438  1.0000 -0.7241242395
O   O50       1.0  0.78258  0.24838  0.67562  1.0000 -0.7241242395
O   O51       1.0  0.78258  0.25162  0.17562  1.0000 -0.7241242395
O   O52       1.0  0.21742  0.75162  0.32438  1.0000 -0.7241242395
O   O53       1.0  0.19482  0.87562  0.66055  1.0000 -0.7078747617
O   O54       1.0  0.80518  0.37562  0.83945  1.0000 -0.7078747617
O   O55       1.0  0.80518  0.12438  0.33945  1.0000 -0.7078747617
O   O56       1.0  0.19482  0.62438  0.16055  1.0000 -0.7078747617
O   O57       1.0  0.49087  0.05651  0.58525  1.0000 -0.7502917217
O   O58       1.0  0.50913  0.55651  0.91475  1.0000 -0.7502917217
O   O59       1.0  0.50913  0.94349  0.41475  1.0000 -0.7502917217
O   O60       1.0  0.49087  0.44349  0.08525  1.0000 -0.7502917217
O   O61       1.0  0.66003  0.94014  0.67818  1.0000 -0.7375694827
O   O62       1.0  0.33997  0.44014  0.82182  1.0000 -0.7375694827
O   O63       1.0  0.33997  0.05986  0.32182  1.0000 -0.7375694827
O   O64       1.0  0.66003  0.55986  0.17818  1.0000 -0.7375694827
