# DDEC6 charges by PACMAN v1.1 (https://github.com/mtap-research/PACMAN-charge/)
data_2007[Ni][pcu]3[FSR]2
_chemical_formula_sum              "Ni2 H48 C52 N14"
_cell_length_a       13.5145
_cell_length_b       13.5145
_cell_length_c       8.63
_cell_angle_alpha    83.1148
_cell_angle_beta     96.8852
_cell_angle_gamma    85.112

_symmetry_space_group_name_H-M    "P 1"
_symmetry_Int_Tables_number       1

loop_
  _symmetry_equiv_pos_as_xyz
  'x, y, z'

loop_
  _atom_site_type_symbol
  _atom_site_label
  _atom_site_symmetry_multiplicity
  _atom_site_fract_x
  _atom_site_fract_y
  _atom_site_fract_z
  _atom_site_occupancy
  _atom_site_charge
Ni  Ni1       1.0  0.67556  0.67556  0.25000  1.0000 0.5988546108
Ni  Ni2       1.0  0.32444  0.32444  0.75000  1.0000 0.5988546108
H   H1        1.0  0.86320  0.60520  0.49680  1.0000 0.097805045
H   H2        1.0  0.60520  0.86320  0.00320  1.0000 0.097805045
H   H3        1.0  0.03680  0.60040  0.51500  1.0000 0.1230141018
H   H4        1.0  0.60040  0.03680  0.98500  1.0000 0.1230141018
H   H5        1.0  0.00520  0.74540  0.07010  1.0000 0.1230141018
H   H6        1.0  0.74540  0.00520  0.42990  1.0000 0.1230141018
H   H7        1.0  0.83130  0.74610  0.06140  1.0000 0.097805045
H   H8        1.0  0.74610  0.83130  0.43860  1.0000 0.097805045
H   H9        1.0  0.18030  0.59850  0.32850  1.0000 0.1230141018
H   H10       1.0  0.59850  0.18030  0.17150  1.0000 0.1230141018
H   H11       1.0  0.17730  0.70230  0.38830  1.0000 0.1116631646
H   H12       1.0  0.70230  0.17730  0.11170  1.0000 0.1116631646
H   H13       1.0  0.50120  0.57220  0.09790  1.0000 0.097805045
H   H14       1.0  0.57220  0.50120  0.40210  1.0000 0.097805045
H   H15       1.0  0.32770  0.57270  0.08260  1.0000 0.1230141018
H   H16       1.0  0.57270  0.32770  0.41740  1.0000 0.1230141018
H   H17       1.0  0.32350  0.82610  0.29500  1.0000 0.1263470147
H   H18       1.0  0.82610  0.32350  0.20500  1.0000 0.1263470147
H   H19       1.0  0.49870  0.80890  0.32260  1.0000 0.0940512009
H   H20       1.0  0.80890  0.49870  0.17740  1.0000 0.0940512009
H   H21       1.0  0.16860  0.67440  0.07740  1.0000 0.1116631646
H   H22       1.0  0.67440  0.16860  0.42260  1.0000 0.1116631646
H   H23       1.0  0.16640  0.77800  0.13780  1.0000 0.1116631646
H   H24       1.0  0.77800  0.16640  0.36220  1.0000 0.1116631646
H   H25       1.0  0.13680  0.39480  0.50320  1.0000 0.097805045
H   H26       1.0  0.39480  0.13680  0.99680  1.0000 0.097805045
H   H27       1.0  0.96320  0.39960  0.48500  1.0000 0.1230141018
H   H28       1.0  0.39960  0.96320  0.01500  1.0000 0.1230141018
H   H29       1.0  0.99480  0.25460  0.92990  1.0000 0.1230141018
H   H30       1.0  0.25460  0.99480  0.57010  1.0000 0.1230141018
H   H31       1.0  0.16870  0.25390  0.93860  1.0000 0.097805045
H   H32       1.0  0.25390  0.16870  0.56140  1.0000 0.097805045
H   H33       1.0  0.81970  0.40150  0.67150  1.0000 0.1230141018
H   H34       1.0  0.40150  0.81970  0.82850  1.0000 0.1230141018
H   H35       1.0  0.82270  0.29770  0.61170  1.0000 0.1116631646
H   H36       1.0  0.29770  0.82270  0.88830  1.0000 0.1116631646
H   H37       1.0  0.49880  0.42780  0.90210  1.0000 0.097805045
H   H38       1.0  0.42780  0.49880  0.59790  1.0000 0.097805045
H   H39       1.0  0.67230  0.42730  0.91740  1.0000 0.1230141018
H   H40       1.0  0.42730  0.67230  0.58260  1.0000 0.1230141018
H   H41       1.0  0.67650  0.17390  0.70500  1.0000 0.1263470147
H   H42       1.0  0.17390  0.67650  0.79500  1.0000 0.1263470147
H   H43       1.0  0.50130  0.19110  0.67740  1.0000 0.0940512009
H   H44       1.0  0.19110  0.50130  0.82260  1.0000 0.0940512009
H   H45       1.0  0.83140  0.32560  0.92260  1.0000 0.1116631646
H   H46       1.0  0.32560  0.83140  0.57740  1.0000 0.1116631646
H   H47       1.0  0.83360  0.22200  0.86220  1.0000 0.1116631646
H   H48       1.0  0.22200  0.83360  0.63780  1.0000 0.1116631646
C   C1        1.0  0.89270  0.63410  0.40800  1.0000 0.0518817651
C   C2        1.0  0.63410  0.89270  0.09200  1.0000 0.0518817651
C   C3        1.0  0.99580  0.63160  0.42100  1.0000 -0.22966828
C   C4        1.0  0.63160  0.99580  0.07900  1.0000 -0.22966828
C   C5        1.0  0.04010  0.67230  0.29600  1.0000 0.1605135296
C   C6        1.0  0.67230  0.04010  0.20400  1.0000 0.1605135296
C   C7        1.0  0.97720  0.71400  0.15900  1.0000 -0.2114001568
C   C8        1.0  0.71400  0.97720  0.34100  1.0000 -0.2114001568
C   C9        1.0  0.87520  0.71400  0.15600  1.0000 0.0740761106
C   C10       1.0  0.71400  0.87520  0.34400  1.0000 0.0740761106
C   C11       1.0  0.15300  0.66780  0.30600  1.0000 -0.2501456048
C   C12       1.0  0.66780  0.15300  0.19400  1.0000 -0.2501456048
C   C13       1.0  0.46400  0.62320  0.14500  1.0000 0.0594846849
C   C14       1.0  0.62320  0.46400  0.35500  1.0000 0.0594846849
C   C15       1.0  0.36130  0.62650  0.13200  1.0000 -0.2114001568
C   C16       1.0  0.62650  0.36130  0.36800  1.0000 -0.2114001568
C   C17       1.0  0.30670  0.70270  0.18500  1.0000 0.1507346128
C   C18       1.0  0.70270  0.30670  0.31500  1.0000 0.1507346128
C   C19       1.0  0.35810  0.77110  0.25400  1.0000 -0.220822346
C   C20       1.0  0.77110  0.35810  0.24600  1.0000 -0.220822346
C   C21       1.0  0.46210  0.76090  0.26900  1.0000 0.0518817651
C   C22       1.0  0.76090  0.46210  0.23100  1.0000 0.0518817651
C   C23       1.0  0.19350  0.70890  0.16700  1.0000 -0.2501456048
C   C24       1.0  0.70890  0.19350  0.33300  1.0000 -0.2501456048
C   C25       1.0  0.65290  0.65270  0.61700  1.0000 0.4193156455
C   C26       1.0  0.65270  0.65290  0.88300  1.0000 0.4193156455
C   C27       1.0  0.10730  0.36590  0.59200  1.0000 0.0518817651
C   C28       1.0  0.36590  0.10730  0.90800  1.0000 0.0518817651
C   C29       1.0  0.00420  0.36840  0.57900  1.0000 -0.22966828
C   C30       1.0  0.36840  0.00420  0.92100  1.0000 -0.22966828
C   C31       1.0  0.95990  0.32770  0.70400  1.0000 0.1605135296
C   C32       1.0  0.32770  0.95990  0.79600  1.0000 0.1605135296
C   C33       1.0  0.02280  0.28600  0.84100  1.0000 -0.2114001568
C   C34       1.0  0.28600  0.02280  0.65900  1.0000 -0.2114001568
C   C35       1.0  0.12480  0.28600  0.84400  1.0000 0.0740761106
C   C36       1.0  0.28600  0.12480  0.65600  1.0000 0.0740761106
C   C37       1.0  0.84700  0.33220  0.69400  1.0000 -0.2501456048
C   C38       1.0  0.33220  0.84700  0.80600  1.0000 -0.2501456048
C   C39       1.0  0.53600  0.37680  0.85500  1.0000 0.0594846849
C   C40       1.0  0.37680  0.53600  0.64500  1.0000 0.0594846849
C   C41       1.0  0.63870  0.37350  0.86800  1.0000 -0.2114001568
C   C42       1.0  0.37350  0.63870  0.63200  1.0000 -0.2114001568
C   C43       1.0  0.69330  0.29730  0.81500  1.0000 0.1507346128
C   C44       1.0  0.29730  0.69330  0.68500  1.0000 0.1507346128
C   C45       1.0  0.64190  0.22890  0.74600  1.0000 -0.220822346
C   C46       1.0  0.22890  0.64190  0.75400  1.0000 -0.220822346
C   C47       1.0  0.53790  0.23910  0.73100  1.0000 0.0518817651
C   C48       1.0  0.23910  0.53790  0.76900  1.0000 0.0518817651
C   C49       1.0  0.80650  0.29110  0.83300  1.0000 -0.2501456048
C   C50       1.0  0.29110  0.80650  0.66700  1.0000 -0.2501456048
C   C51       1.0  0.34710  0.34730  0.38300  1.0000 0.4193156455
C   C52       1.0  0.34730  0.34710  0.11700  1.0000 0.4193156455
N   N1        1.0  0.83200  0.67320  0.27560  1.0000 -0.220822346
N   N2        1.0  0.67320  0.83200  0.22440  1.0000 -0.220822346
N   N3        1.0  0.51550  0.68790  0.21700  1.0000 -0.220822346
N   N4        1.0  0.68790  0.51550  0.28300  1.0000 -0.220822346
N   N5        1.0  0.66940  0.66840  0.48950  1.0000 -0.5743315722
N   N6        1.0  0.66840  0.66940  0.01050  1.0000 -0.5743315722
N   N7        1.0  0.62430  0.62430  0.75000  1.0000 -0.4372325148
N   N8        1.0  0.16800  0.32680  0.72440  1.0000 -0.220822346
N   N9        1.0  0.32680  0.16800  0.77560  1.0000 -0.220822346
N   N10       1.0  0.48450  0.31210  0.78300  1.0000 -0.220822346
N   N11       1.0  0.31210  0.48450  0.71700  1.0000 -0.220822346
N   N12       1.0  0.33060  0.33160  0.51050  1.0000 -0.5743315722
N   N13       1.0  0.33160  0.33060  0.98950  1.0000 -0.5743315722
N   N14       1.0  0.37570  0.37570  0.25000  1.0000 -0.4372325148
