# DDEC6 charges by PACMAN v1.1 (https://github.com/mtap-research/PACMAN-charge/)
data_2007[Er][sqp]3[FSR]1
_chemical_formula_sum              "Er4 C12 Se4 O40"
_cell_length_a       8.754
_cell_length_b       15.873
_cell_length_c       11.738
_cell_angle_alpha    90
_cell_angle_beta     127.395
_cell_angle_gamma    90

_symmetry_space_group_name_H-M    "P 1"
_symmetry_Int_Tables_number       1

loop_
  _symmetry_equiv_pos_as_xyz
  'x, y, z'

loop_
  _atom_site_type_symbol
  _atom_site_label
  _atom_site_symmetry_multiplicity
  _atom_site_fract_x
  _atom_site_fract_y
  _atom_site_fract_z
  _atom_site_occupancy
  _atom_site_charge
Er  Er1       1.0  0.00381  0.19529  0.47549  1.0000 2.0199885309
Er  Er2       1.0  0.99619  0.69529  0.02451  1.0000 2.0199885309
Er  Er3       1.0  0.99619  0.80471  0.52451  1.0000 2.0199885309
Er  Er4       1.0  0.00382  0.30471  0.97549  1.0000 2.0199885309
C   C1        1.0  0.01999  0.20370  0.75100  1.0000 0.5412762553
C   C2        1.0  0.98001  0.70370  0.74900  1.0000 0.5412762553
C   C3        1.0  0.98001  0.79630  0.24900  1.0000 0.5412762553
C   C4        1.0  0.01999  0.29630  0.25100  1.0000 0.5412762553
C   C5        1.0  0.99450  0.29600  0.70200  1.0000 0.5479638517
C   C6        1.0  0.00550  0.79600  0.79800  1.0000 0.5479638517
C   C7        1.0  0.00551  0.70400  0.29800  1.0000 0.5479638517
C   C8        1.0  0.99450  0.20400  0.20200  1.0000 0.5479638517
C   C9        1.0  0.10900  0.99920  0.54150  1.0000 0.5341029108
C   C10       1.0  0.89100  0.49920  0.95850  1.0000 0.5341029108
C   C11       1.0  0.89101  0.00080  0.45850  1.0000 0.5341029108
C   C12       1.0  0.10899  0.50080  0.04150  1.0000 0.5341029108
Se  Se1       1.0  0.51331  0.27872  0.29129  1.0000 1.6094728053
Se  Se2       1.0  0.48668  0.77872  0.20871  1.0000 1.6094728053
Se  Se3       1.0  0.48668  0.72128  0.70871  1.0000 1.6094728053
Se  Se4       1.0  0.51331  0.22128  0.79129  1.0000 1.6094728053
O   O1        1.0  0.56720  0.37796  0.32590  1.0000 -0.4462938815
O   O2        1.0  0.43281  0.87796  0.17410  1.0000 -0.4426397145
O   O3        1.0  0.43280  0.62204  0.67410  1.0000 -0.4426397145
O   O4        1.0  0.56720  0.12204  0.82590  1.0000 -0.4462938815
O   O5        1.0  0.68519  0.22730  0.30260  1.0000 -0.709582471
O   O6        1.0  0.31481  0.72730  0.19740  1.0000 -0.709582471
O   O7        1.0  0.31481  0.77270  0.69740  1.0000 -0.709582471
O   O8        1.0  0.68519  0.27270  0.80260  1.0000 -0.709582471
O   O9        1.0  0.32210  0.26620  0.12520  1.0000 -0.709582471
O   O10       1.0  0.67790  0.76620  0.37480  1.0000 -0.7048144996
O   O11       1.0  0.67790  0.73380  0.87480  1.0000 -0.709582471
O   O12       1.0  0.32210  0.23380  0.62520  1.0000 -0.709582471
O   O13       1.0  0.47819  0.24140  0.40220  1.0000 -0.5222612083
O   O14       1.0  0.52180  0.74140  0.09780  1.0000 -0.5222612083
O   O15       1.0  0.52180  0.75860  0.59780  1.0000 -0.5222612083
O   O16       1.0  0.47819  0.25860  0.90220  1.0000 -0.5222612083
O   O17       1.0  0.02669  0.15003  0.67450  1.0000 -0.5424027105
O   O18       1.0  0.97330  0.65003  0.82550  1.0000 -0.5450217783
O   O19       1.0  0.97330  0.84997  0.32550  1.0000 -0.5424027105
O   O20       1.0  0.02669  0.34997  0.17450  1.0000 -0.5424027105
O   O21       1.0  0.02909  0.18904  0.85960  1.0000 -0.4338107988
O   O22       1.0  0.97091  0.68904  0.64040  1.0000 -0.4338107988
O   O23       1.0  0.97091  0.81096  0.14040  1.0000 -0.4338107988
O   O24       1.0  0.02910  0.31096  0.35960  1.0000 -0.4338107988
O   O25       1.0  0.98940  0.35013  0.77910  1.0000 -0.4923953533
O   O26       1.0  0.01060  0.85013  0.72090  1.0000 -0.4923953533
O   O27       1.0  0.01060  0.64987  0.22090  1.0000 -0.4923953533
O   O28       1.0  0.98940  0.14987  0.27910  1.0000 -0.4923953533
O   O29       1.0  0.98030  0.31024  0.59180  1.0000 -0.4955700696
O   O30       1.0  0.01970  0.81024  0.90820  1.0000 -0.4955700696
O   O31       1.0  0.01971  0.68976  0.40820  1.0000 -0.4955700696
O   O32       1.0  0.98030  0.18976  0.09180  1.0000 -0.4923953533
O   O33       1.0  0.18519  0.06748  0.54570  1.0000 -0.4702525794
O   O34       1.0  0.81481  0.56748  0.95430  1.0000 -0.4702525794
O   O35       1.0  0.81481  0.93252  0.45430  1.0000 -0.4702525794
O   O36       1.0  0.18519  0.43252  0.04570  1.0000 -0.4702525794
O   O37       1.0  0.19269  0.93063  0.59680  1.0000 -0.4338107988
O   O38       1.0  0.80730  0.43063  0.90320  1.0000 -0.4338107988
O   O39       1.0  0.80731  0.06937  0.40320  1.0000 -0.4338107988
O   O40       1.0  0.19270  0.56937  0.09680  1.0000 -0.4338107988
