# DDEC6 charges by PACMAN v1.1 (https://github.com/mtap-research/PACMAN-charge/)
data_2007[Zn][nan]3[FSR]3
_chemical_formula_sum              "Zn10 H8 C8 N36 O8"
_cell_length_a       9.10658
_cell_length_b       9.10658
_cell_length_c       14.2879
_cell_angle_alpha    71.0505
_cell_angle_beta     108.949
_cell_angle_gamma    124.779

_symmetry_space_group_name_H-M    "P 1"
_symmetry_Int_Tables_number       1

loop_
  _symmetry_equiv_pos_as_xyz
  'x, y, z'

loop_
  _atom_site_type_symbol
  _atom_site_label
  _atom_site_symmetry_multiplicity
  _atom_site_fract_x
  _atom_site_fract_y
  _atom_site_fract_z
  _atom_site_occupancy
  _atom_site_charge
Zn  Zn1       1.0  0.71011  0.15545  0.63332  1.0000 0.8012236581
Zn  Zn2       1.0  0.15545  0.71011  0.86668  1.0000 0.8012236581
Zn  Zn3       1.0  0.28989  0.84455  0.36668  1.0000 0.8012236581
Zn  Zn4       1.0  0.84455  0.28989  0.13332  1.0000 0.8012236581
Zn  Zn5       1.0  0.58933  0.77997  0.52926  1.0000 0.7557569966
Zn  Zn6       1.0  0.77997  0.58933  0.97074  1.0000 0.7557569966
Zn  Zn7       1.0  0.41067  0.22003  0.47074  1.0000 0.7557569966
Zn  Zn8       1.0  0.22003  0.41067  0.02926  1.0000 0.7557569966
Zn  Zn9       1.0  0.87780  0.87780  0.75000  1.0000 0.7228068337
Zn  Zn10      1.0  0.12220  0.12220  0.25000  1.0000 0.7228068337
H   H1        1.0  0.85400  0.04600  0.57800  1.0000 0.3654373959
H   H2        1.0  0.04600  0.85400  0.92200  1.0000 0.3654373959
H   H3        1.0  0.14600  0.95400  0.42200  1.0000 0.3654373959
H   H4        1.0  0.95400  0.14600  0.07800  1.0000 0.3654373959
H   H5        1.0  0.62900  0.18500  0.45000  1.0000 0.3552420661
H   H6        1.0  0.18500  0.62900  0.05000  1.0000 0.3552420661
H   H7        1.0  0.37100  0.81500  0.55000  1.0000 0.3552420661
H   H8        1.0  0.81500  0.37100  0.95000  1.0000 0.3552420661
C   C1        1.0  0.97231  0.34129  0.81957  1.0000 0.4379766062
C   C2        1.0  0.34129  0.97231  0.68043  1.0000 0.4379766062
C   C3        1.0  0.02769  0.65871  0.18043  1.0000 0.4379766062
C   C4        1.0  0.65871  0.02769  0.31957  1.0000 0.4379766062
C   C5        1.0  0.81843  0.49357  0.72531  1.0000 0.4501219914
C   C6        1.0  0.49357  0.81843  0.77469  1.0000 0.4501219914
C   C7        1.0  0.18157  0.50643  0.27469  1.0000 0.4501219914
C   C8        1.0  0.50643  0.18157  0.22531  1.0000 0.4501219914
N   N1        1.0  0.94163  0.47737  0.80715  1.0000 -0.5203246847
N   N2        1.0  0.47737  0.94163  0.69285  1.0000 -0.5203246847
N   N3        1.0  0.05837  0.52263  0.19285  1.0000 -0.5203246847
N   N4        1.0  0.52263  0.05837  0.30715  1.0000 -0.5203246847
N   N5        1.0  0.90796  0.22364  0.75861  1.0000 -0.311206553
N   N6        1.0  0.22364  0.90796  0.74139  1.0000 -0.311206553
N   N7        1.0  0.09204  0.77636  0.24139  1.0000 -0.311206553
N   N8        1.0  0.77636  0.09204  0.25861  1.0000 -0.311206553
N   N9        1.0  0.98438  0.12102  0.80504  1.0000 -0.0499543147
N   N10       1.0  0.12102  0.98438  0.69496  1.0000 -0.0499543147
N   N11       1.0  0.01562  0.87898  0.19496  1.0000 -0.0499543147
N   N12       1.0  0.87898  0.01562  0.30504  1.0000 -0.0499543147
N   N13       1.0  0.08825  0.17115  0.88916  1.0000 -0.0684679057
N   N14       1.0  0.17115  0.08825  0.61084  1.0000 -0.0684679057
N   N15       1.0  0.91175  0.82885  0.11084  1.0000 -0.0684679057
N   N16       1.0  0.82885  0.91175  0.38916  1.0000 -0.0684679057
N   N17       1.0  0.08321  0.30879  0.90105  1.0000 -0.311206553
N   N18       1.0  0.30879  0.08321  0.59895  1.0000 -0.311206553
N   N19       1.0  0.91679  0.69121  0.09895  1.0000 -0.311206553
N   N20       1.0  0.69121  0.91679  0.40105  1.0000 -0.311206553
N   N21       1.0  0.71726  0.38474  0.65566  1.0000 -0.3002709634
N   N22       1.0  0.38474  0.71726  0.84434  1.0000 -0.3002709634
N   N23       1.0  0.28274  0.61526  0.34434  1.0000 -0.3002709634
N   N24       1.0  0.61526  0.28274  0.15566  1.0000 -0.3002709634
N   N25       1.0  0.62128  0.45492  0.58772  1.0000 -0.0499543147
N   N26       1.0  0.45492  0.62128  0.91228  1.0000 -0.0499543147
N   N27       1.0  0.37872  0.54508  0.41228  1.0000 -0.0499543147
N   N28       1.0  0.54508  0.37872  0.08772  1.0000 -0.0499543147
N   N29       1.0  0.65991  0.59749  0.61534  1.0000 -0.0499543147
N   N30       1.0  0.59749  0.65991  0.88466  1.0000 -0.0499543147
N   N31       1.0  0.34009  0.40251  0.38466  1.0000 -0.0499543147
N   N32       1.0  0.40251  0.34009  0.11534  1.0000 -0.0499543147
N   N33       1.0  0.78246  0.62714  0.70223  1.0000 -0.3002709634
N   N34       1.0  0.62714  0.78246  0.79777  1.0000 -0.3002709634
N   N35       1.0  0.21754  0.37286  0.29777  1.0000 -0.3002709634
N   N36       1.0  0.37286  0.21754  0.20223  1.0000 -0.3002709634
O   O1        1.0  0.77455  0.98245  0.61231  1.0000 -0.7715939954
O   O2        1.0  0.98245  0.77455  0.88769  1.0000 -0.7715939954
O   O3        1.0  0.22545  0.01755  0.38769  1.0000 -0.7715939954
O   O4        1.0  0.01755  0.22545  0.11231  1.0000 -0.7715939954
O   O5        1.0  0.63798  0.23822  0.48885  1.0000 -0.7939575687
O   O6        1.0  0.23822  0.63798  0.01115  1.0000 -0.7939575687
O   O7        1.0  0.36202  0.76178  0.51115  1.0000 -0.7939575687
O   O8        1.0  0.76178  0.36202  0.98885  1.0000 -0.7939575687
