# DDEC6 charges by PACMAN v1.1 (https://github.com/mtap-research/PACMAN-charge/)
data_2007[Fe][dia]3[FSR]13
_chemical_formula_sum              "Fe12 H24 C24 O48"
_cell_length_a       11.4081
_cell_length_b       9.9146
_cell_length_c       18.5364
_cell_angle_alpha    90
_cell_angle_beta     126.809
_cell_angle_gamma    90

_symmetry_space_group_name_H-M    "P 1"
_symmetry_Int_Tables_number       1

loop_
  _symmetry_equiv_pos_as_xyz
  'x, y, z'

loop_
  _atom_site_type_symbol
  _atom_site_label
  _atom_site_symmetry_multiplicity
  _atom_site_fract_x
  _atom_site_fract_y
  _atom_site_fract_z
  _atom_site_occupancy
  _atom_site_charge
Fe  Fe1       1.0  0.62224  0.92162  0.86619  1.0000 0.9098375251
Fe  Fe2       1.0  0.37776  0.42162  0.63381  1.0000 0.9098375251
Fe  Fe3       1.0  0.37776  0.07838  0.13381  1.0000 0.9098375251
Fe  Fe4       1.0  0.62224  0.57838  0.36619  1.0000 0.9098375251
Fe  Fe5       1.0  0.56989  0.88796  0.30903  1.0000 0.9098375251
Fe  Fe6       1.0  0.43011  0.38796  0.19097  1.0000 0.9098375251
Fe  Fe7       1.0  0.43011  0.11204  0.69097  1.0000 0.9098375251
Fe  Fe8       1.0  0.56989  0.61204  0.80903  1.0000 0.9098375251
Fe  Fe9       1.0  0.50000  0.00000  0.00000  1.0000 0.9414189343
Fe  Fe10      1.0  0.50000  0.50000  0.50000  1.0000 0.9414189343
Fe  Fe11      1.0  0.00000  0.00000  0.00000  1.0000 0.960827667
Fe  Fe12      1.0  1.00000  0.50000  0.50000  1.0000 0.960827667
H   H1        1.0  0.47630  0.75280  0.63000  1.0000 0.1012012459
H   H2        1.0  0.52370  0.25280  0.87000  1.0000 0.1012012459
H   H3        1.0  0.52370  0.24720  0.37000  1.0000 0.1012012459
H   H4        1.0  0.47630  0.74720  0.13000  1.0000 0.1012012459
H   H5        1.0  0.21000  0.05400  0.73890  1.0000 0.1012012459
H   H6        1.0  0.79000  0.55400  0.76110  1.0000 0.1012012459
H   H7        1.0  0.79000  0.94600  0.26110  1.0000 0.1012012459
H   H8        1.0  0.21000  0.44600  0.23890  1.0000 0.1012012459
H   H9        1.0  0.49700  0.61500  0.94620  1.0000 0.1012012459
H   H10       1.0  0.50300  0.11500  0.55380  1.0000 0.1012012459
H   H11       1.0  0.50300  0.38500  0.05380  1.0000 0.1012012459
H   H12       1.0  0.49700  0.88500  0.44620  1.0000 0.1012012459
H   H13       1.0  0.74800  0.20000  0.77120  1.0000 0.1099861746
H   H14       1.0  0.25200  0.70000  0.72880  1.0000 0.1099861746
H   H15       1.0  0.25200  0.80000  0.22880  1.0000 0.1099861746
H   H16       1.0  0.74800  0.30000  0.27120  1.0000 0.1099861746
H   H17       1.0  0.76310  0.15440  0.07010  1.0000 0.1099861746
H   H18       1.0  0.23690  0.65440  0.42990  1.0000 0.1099861746
H   H19       1.0  0.23690  0.84560  0.92990  1.0000 0.1099861746
H   H20       1.0  0.76310  0.34560  0.57010  1.0000 0.1099861746
H   H21       1.0  0.97900  0.70690  0.97730  1.0000 0.1274164726
H   H22       1.0  0.02100  0.20690  0.52270  1.0000 0.1274164726
H   H23       1.0  0.02100  0.29310  0.02270  1.0000 0.1274164726
H   H24       1.0  0.97900  0.79310  0.47730  1.0000 0.1274164726
C   C1        1.0  0.48668  0.82850  0.66697  1.0000 0.4500998144
C   C2        1.0  0.51332  0.32850  0.83303  1.0000 0.4500998144
C   C3        1.0  0.51332  0.17150  0.33303  1.0000 0.4500998144
C   C4        1.0  0.48668  0.67150  0.16697  1.0000 0.4500998144
C   C5        1.0  0.30880  0.02810  0.79270  1.0000 0.440613467
C   C6        1.0  0.69120  0.52810  0.70730  1.0000 0.440613467
C   C7        1.0  0.69120  0.97190  0.20730  1.0000 0.440613467
C   C8        1.0  0.30880  0.47190  0.29270  1.0000 0.440613467
C   C9        1.0  0.51540  0.71000  0.94490  1.0000 0.440613467
C   C10       1.0  0.48460  0.21000  0.55510  1.0000 0.440613467
C   C11       1.0  0.48460  0.29000  0.05510  1.0000 0.440613467
C   C12       1.0  0.51540  0.79000  0.44490  1.0000 0.440613467
C   C13       1.0  0.76930  0.13600  0.81657  1.0000 0.440613467
C   C14       1.0  0.23070  0.63600  0.68343  1.0000 0.440613467
C   C15       1.0  0.23070  0.86400  0.18343  1.0000 0.440613467
C   C16       1.0  0.76930  0.36400  0.31657  1.0000 0.440613467
C   C17       1.0  0.77570  0.09772  0.03373  1.0000 0.4687496123
C   C18       1.0  0.22430  0.59772  0.46627  1.0000 0.4687496123
C   C19       1.0  0.22430  0.90228  0.96627  1.0000 0.4687496123
C   C20       1.0  0.77570  0.40228  0.53373  1.0000 0.4687496123
C   C21       1.0  0.87740  0.72290  0.93888  1.0000 0.4687496123
C   C22       1.0  0.12260  0.22290  0.56112  1.0000 0.4687496123
C   C23       1.0  0.12260  0.27710  0.06112  1.0000 0.4687496123
C   C24       1.0  0.87740  0.77710  0.43888  1.0000 0.4687496123
O   O1        1.0  0.55493  0.80302  0.75070  1.0000 -0.540853894
O   O2        1.0  0.44507  0.30302  0.74930  1.0000 -0.540853894
O   O3        1.0  0.44507  0.19698  0.24930  1.0000 -0.540853894
O   O4        1.0  0.55493  0.69698  0.25070  1.0000 -0.540853894
O   O5        1.0  0.43359  0.93892  0.62994  1.0000 -0.4716678997
O   O6        1.0  0.56641  0.43892  0.87006  1.0000 -0.4716678997
O   O7        1.0  0.56641  0.06108  0.37006  1.0000 -0.4716678997
O   O8        1.0  0.43359  0.56108  0.12994  1.0000 -0.4716678997
O   O9        1.0  0.41066  0.01013  0.78444  1.0000 -0.540853894
O   O10       1.0  0.58934  0.51013  0.71556  1.0000 -0.540853894
O   O11       1.0  0.58934  0.98987  0.21556  1.0000 -0.540853894
O   O12       1.0  0.41066  0.48987  0.28444  1.0000 -0.540853894
O   O13       1.0  0.31881  0.01409  0.86235  1.0000 -0.4716678997
O   O14       1.0  0.68119  0.51409  0.63765  1.0000 -0.4716678997
O   O15       1.0  0.68119  0.98591  0.13765  1.0000 -0.4716678997
O   O16       1.0  0.31881  0.48591  0.36235  1.0000 -0.4716678997
O   O17       1.0  0.54557  0.74250  0.89107  1.0000 -0.540853894
O   O18       1.0  0.45443  0.24250  0.60893  1.0000 -0.540853894
O   O19       1.0  0.45443  0.25750  0.10893  1.0000 -0.540853894
O   O20       1.0  0.54557  0.75750  0.39107  1.0000 -0.540853894
O   O21       1.0  0.50528  0.78947  0.99274  1.0000 -0.4913586716
O   O22       1.0  0.49472  0.28947  0.50726  1.0000 -0.4913586716
O   O23       1.0  0.49472  0.21053  0.00726  1.0000 -0.4913586716
O   O24       1.0  0.50528  0.71053  0.49274  1.0000 -0.4913586716
O   O25       1.0  0.65581  0.08363  0.80353  1.0000 -0.540853894
O   O26       1.0  0.34419  0.58363  0.69647  1.0000 -0.550345807
O   O27       1.0  0.34419  0.91637  0.19647  1.0000 -0.550345807
O   O28       1.0  0.65581  0.41637  0.30353  1.0000 -0.550345807
O   O29       1.0  0.89728  0.11458  0.88132  1.0000 -0.4716678997
O   O30       1.0  0.10272  0.61458  0.61868  1.0000 -0.4716678997
O   O31       1.0  0.10272  0.88542  0.11868  1.0000 -0.4716678997
O   O32       1.0  0.89728  0.38542  0.38132  1.0000 -0.4716678997
O   O33       1.0  0.66387  0.02456  0.97707  1.0000 -0.550345807
O   O34       1.0  0.33613  0.52456  0.52293  1.0000 -0.550345807
O   O35       1.0  0.33613  0.97544  0.02293  1.0000 -0.550345807
O   O36       1.0  0.66387  0.47544  0.47707  1.0000 -0.550345807
O   O37       1.0  0.89007  0.10511  0.04152  1.0000 -0.4815668839
O   O38       1.0  0.10993  0.60511  0.45848  1.0000 -0.4815668839
O   O39       1.0  0.10993  0.89489  0.95848  1.0000 -0.4815668839
O   O40       1.0  0.89007  0.39489  0.54152  1.0000 -0.4815668839
O   O41       1.0  0.83586  0.84445  0.93409  1.0000 -0.540853894
O   O42       1.0  0.16414  0.34445  0.56591  1.0000 -0.540853894
O   O43       1.0  0.16414  0.15555  0.06591  1.0000 -0.540853894
O   O44       1.0  0.83586  0.65555  0.43409  1.0000 -0.540853894
O   O45       1.0  0.79736  0.62438  0.89824  1.0000 -0.4815668839
O   O46       1.0  0.20264  0.12438  0.60176  1.0000 -0.4815668839
O   O47       1.0  0.20264  0.37562  0.10176  1.0000 -0.4815668839
O   O48       1.0  0.79736  0.87562  0.39824  1.0000 -0.4815668839
