# DDEC6 charges by PACMAN v1.1 (https://github.com/mtap-research/PACMAN-charge/)
data_2007[CdFe][pcu]3[FSR]1
_chemical_formula_sum              "Cd2 Fe2 H48 C60 S4 N8 O12"
_cell_length_a       11.6921
_cell_length_b       11.8429
_cell_length_c       13.4829
_cell_angle_alpha    90
_cell_angle_beta     90
_cell_angle_gamma    90

_symmetry_space_group_name_H-M    "P 1"
_symmetry_Int_Tables_number       1

loop_
  _symmetry_equiv_pos_as_xyz
  'x, y, z'

loop_
  _atom_site_type_symbol
  _atom_site_label
  _atom_site_symmetry_multiplicity
  _atom_site_fract_x
  _atom_site_fract_y
  _atom_site_fract_z
  _atom_site_occupancy
  _atom_site_charge
Cd  Cd1       1.0  0.71730  0.50000  0.50000  1.0000 0.7871203908
Cd  Cd2       1.0  0.28270  0.00000  0.00000  1.0000 0.7871203908
Fe  Fe1       1.0  0.78661  0.50000  0.00000  1.0000 0.2121414283
Fe  Fe2       1.0  0.21339  0.00000  0.50000  1.0000 0.2121414283
H   H1        1.0  0.85640  0.72390  0.42360  1.0000 0.1097658324
H   H2        1.0  0.85640  0.27610  0.57640  1.0000 0.1097658324
H   H3        1.0  0.86250  0.91750  0.43140  1.0000 0.1425742546
H   H4        1.0  0.86250  0.08250  0.56860  1.0000 0.1425742546
H   H5        1.0  0.56360  0.91250  0.57110  1.0000 0.1492584225
H   H6        1.0  0.56360  0.08750  0.42890  1.0000 0.1492584225
H   H7        1.0  0.57230  0.71660  0.57250  1.0000 0.1097658324
H   H8        1.0  0.57230  0.28340  0.42750  1.0000 0.1097658324
H   H9        1.0  0.93450  0.42140  0.37110  1.0000 0.1196705435
H   H10       1.0  0.93450  0.57860  0.62890  1.0000 0.1196705435
H   H11       1.0  0.13180  0.42360  0.36830  1.0000 0.1492584225
H   H12       1.0  0.13180  0.57640  0.63170  1.0000 0.1492584225
H   H13       1.0  0.30320  0.58490  0.37210  1.0000 0.1492584225
H   H14       1.0  0.30320  0.41510  0.62790  1.0000 0.1492584225
H   H15       1.0  0.50000  0.58390  0.37510  1.0000 0.1196705435
H   H16       1.0  0.50000  0.41610  0.62490  1.0000 0.1196705435
H   H17       1.0  0.60570  0.39240  0.08050  1.0000 0.1285250673
H   H18       1.0  0.60570  0.60760  0.91950  1.0000 0.1285250673
H   H19       1.0  0.72410  0.28380  0.95910  1.0000 0.1196705435
H   H20       1.0  0.72410  0.71620  0.04090  1.0000 0.1196705435
H   H21       1.0  0.93120  0.32410  0.99350  1.0000 0.1097658324
H   H22       1.0  0.93120  0.67590  0.00650  1.0000 0.1097658324
H   H23       1.0  0.94300  0.45050  0.14440  1.0000 0.1196705435
H   H24       1.0  0.94300  0.54950  0.85560  1.0000 0.1196705435
H   H25       1.0  0.14360  0.77610  0.92360  1.0000 0.1097658324
H   H26       1.0  0.14360  0.22390  0.07640  1.0000 0.1097658324
H   H27       1.0  0.13750  0.58250  0.93140  1.0000 0.1425742546
H   H28       1.0  0.13750  0.41750  0.06860  1.0000 0.1425742546
H   H29       1.0  0.43640  0.58750  0.07110  1.0000 0.1492584225
H   H30       1.0  0.43640  0.41250  0.92890  1.0000 0.1492584225
H   H31       1.0  0.42770  0.78340  0.07250  1.0000 0.1097658324
H   H32       1.0  0.42770  0.21660  0.92750  1.0000 0.1097658324
H   H33       1.0  0.06550  0.07860  0.87110  1.0000 0.1196705435
H   H34       1.0  0.06550  0.92140  0.12890  1.0000 0.1196705435
H   H35       1.0  0.86820  0.07640  0.86830  1.0000 0.1492584225
H   H36       1.0  0.86820  0.92360  0.13170  1.0000 0.1492584225
H   H37       1.0  0.69680  0.91510  0.87210  1.0000 0.1492584225
H   H38       1.0  0.69680  0.08490  0.12790  1.0000 0.1492584225
H   H39       1.0  0.50000  0.91610  0.87510  1.0000 0.1196705435
H   H40       1.0  0.50000  0.08390  0.12490  1.0000 0.1196705435
H   H41       1.0  0.39430  0.10760  0.58050  1.0000 0.1285250673
H   H42       1.0  0.39430  0.89240  0.41950  1.0000 0.1285250673
H   H43       1.0  0.27590  0.21620  0.45910  1.0000 0.1196705435
H   H44       1.0  0.27590  0.78380  0.54090  1.0000 0.1196705435
H   H45       1.0  0.06880  0.17590  0.49350  1.0000 0.1097658324
H   H46       1.0  0.06880  0.82410  0.50650  1.0000 0.1097658324
H   H47       1.0  0.05700  0.04950  0.64440  1.0000 0.1285250673
H   H48       1.0  0.05700  0.95050  0.35560  1.0000 0.1285250673
C   C1        1.0  0.79720  0.76180  0.45540  1.0000 0.0997935548
C   C2        1.0  0.79720  0.23820  0.54460  1.0000 0.0997935548
C   C3        1.0  0.80050  0.87880  0.45820  1.0000 -0.1795404123
C   C4        1.0  0.80050  0.12120  0.54180  1.0000 -0.1795404123
C   C5        1.0  0.71240  0.93670  0.50040  1.0000 0.1097658324
C   C6        1.0  0.71240  0.06330  0.49960  1.0000 0.1097658324
C   C7        1.0  0.62530  0.87560  0.54210  1.0000 -0.1662323585
C   C8        1.0  0.62530  0.12440  0.45790  1.0000 -0.1662323585
C   C9        1.0  0.62960  0.75750  0.54090  1.0000 0.0942767301
C   C10       1.0  0.62960  0.24250  0.45910  1.0000 0.0942767301
C   C11       1.0  0.97430  0.45390  0.42350  1.0000 0.083536707
C   C12       1.0  0.97430  0.54610  0.57650  1.0000 0.083536707
C   C13       1.0  0.09300  0.45430  0.42210  1.0000 -0.1795404123
C   C14       1.0  0.09300  0.54570  0.57790  1.0000 -0.1795404123
C   C15       1.0  0.15390  0.50000  0.50000  1.0000 0.0997935548
C   C16       1.0  0.27950  0.50000  0.50000  1.0000 0.1097658324
C   C17       1.0  0.34140  0.55030  0.42440  1.0000 -0.1795404123
C   C18       1.0  0.34140  0.44970  0.57560  1.0000 -0.1795404123
C   C19       1.0  0.46000  0.54930  0.42640  1.0000 0.083536707
C   C20       1.0  0.46000  0.45070  0.57360  1.0000 0.083536707
C   C21       1.0  0.75920  0.45070  0.14070  1.0000 -0.1179861611
C   C22       1.0  0.75920  0.54930  0.85930  1.0000 -0.1179861611
C   C23       1.0  0.68510  0.39160  0.07760  1.0000 -0.1636000274
C   C24       1.0  0.68510  0.60840  0.92240  1.0000 -0.1636000274
C   C25       1.0  0.75200  0.33040  0.00900  1.0000 -0.1327657139
C   C26       1.0  0.75200  0.66960  0.99100  1.0000 -0.1327657139
C   C27       1.0  0.86950  0.35240  0.02930  1.0000 -0.1427280268
C   C28       1.0  0.86950  0.64760  0.97070  1.0000 -0.1427280268
C   C29       1.0  0.87680  0.42500  0.11340  1.0000 -0.1795404123
C   C30       1.0  0.87680  0.57500  0.88660  1.0000 -0.1795404123
C   C31       1.0  0.20280  0.73820  0.95540  1.0000 0.0997935548
C   C32       1.0  0.20280  0.26180  0.04460  1.0000 0.0997935548
C   C33       1.0  0.19950  0.62120  0.95820  1.0000 -0.1795404123
C   C34       1.0  0.19950  0.37880  0.04180  1.0000 -0.1795404123
C   C35       1.0  0.28760  0.56330  0.00040  1.0000 0.1097658324
C   C36       1.0  0.28760  0.43670  0.99960  1.0000 0.1097658324
C   C37       1.0  0.37470  0.62440  0.04210  1.0000 -0.1662323585
C   C38       1.0  0.37470  0.37560  0.95790  1.0000 -0.1662323585
C   C39       1.0  0.37040  0.74250  0.04090  1.0000 0.0942767301
C   C40       1.0  0.37040  0.25750  0.95910  1.0000 0.0942767301
C   C41       1.0  0.02570  0.04610  0.92350  1.0000 0.083536707
C   C42       1.0  0.02570  0.95390  0.07650  1.0000 0.083536707
C   C43       1.0  0.90700  0.04570  0.92210  1.0000 -0.1795404123
C   C44       1.0  0.90700  0.95430  0.07790  1.0000 -0.1795404123
C   C45       1.0  0.84610  0.00000  0.00000  1.0000 0.0997935548
C   C46       1.0  0.72050  0.00000  0.00000  1.0000 0.1097658324
C   C47       1.0  0.65860  0.94970  0.92440  1.0000 -0.1795404123
C   C48       1.0  0.65860  0.05030  0.07560  1.0000 -0.1795404123
C   C49       1.0  0.54000  0.95070  0.92640  1.0000 0.083536707
C   C50       1.0  0.54000  0.04930  0.07360  1.0000 0.083536707
C   C51       1.0  0.24080  0.04930  0.64070  1.0000 -0.1179861611
C   C52       1.0  0.24080  0.95070  0.35930  1.0000 -0.1179861611
C   C53       1.0  0.31490  0.10840  0.57760  1.0000 -0.1636000274
C   C54       1.0  0.31490  0.89160  0.42240  1.0000 -0.1636000274
C   C55       1.0  0.24800  0.16960  0.50900  1.0000 -0.1327657139
C   C56       1.0  0.24800  0.83040  0.49100  1.0000 -0.1327657139
C   C57       1.0  0.13050  0.14760  0.52930  1.0000 -0.1427280268
C   C58       1.0  0.13050  0.85240  0.47070  1.0000 -0.1427280268
C   C59       1.0  0.12320  0.07500  0.61340  1.0000 -0.1795404123
C   C60       1.0  0.12320  0.92500  0.38660  1.0000 -0.1795404123
S   S1        1.0  0.72090  0.53847  0.24019  1.0000 1.1955990681
S   S2        1.0  0.72090  0.46153  0.75981  1.0000 1.1955990681
S   S3        1.0  0.27910  0.96153  0.74019  1.0000 1.1955990681
S   S4        1.0  0.27910  0.03847  0.25981  1.0000 1.1955990681
N   N1        1.0  0.71470  0.70190  0.49530  1.0000 -0.2289274147
N   N2        1.0  0.71470  0.29810  0.50470  1.0000 -0.2289274147
N   N3        1.0  0.91550  0.50000  0.50000  1.0000 -0.2470291144
N   N4        1.0  0.51870  0.50000  0.50000  1.0000 -0.2430778554
N   N5        1.0  0.28530  0.79810  0.99530  1.0000 -0.2289274147
N   N6        1.0  0.28530  0.20190  0.00470  1.0000 -0.2289274147
N   N7        1.0  0.08450  0.00000  0.00000  1.0000 -0.2470291144
N   N8        1.0  0.48130  0.00000  0.00000  1.0000 -0.2430778554
O   O1        1.0  0.71530  0.46420  0.32750  1.0000 -0.650726389
O   O2        1.0  0.71530  0.53580  0.67250  1.0000 -0.650726389
O   O3        1.0  0.61100  0.58410  0.21420  1.0000 -0.6180097497
O   O4        1.0  0.61100  0.41590  0.78580  1.0000 -0.6180097497
O   O5        1.0  0.80860  0.62180  0.24960  1.0000 -0.6180097497
O   O6        1.0  0.80860  0.37820  0.75040  1.0000 -0.6180097497
O   O7        1.0  0.28470  0.03580  0.82750  1.0000 -0.650726389
O   O8        1.0  0.28470  0.96420  0.17250  1.0000 -0.650726389
O   O9        1.0  0.38900  0.91590  0.71420  1.0000 -0.6180097497
O   O10       1.0  0.38900  0.08410  0.28580  1.0000 -0.6180097497
O   O11       1.0  0.19140  0.87820  0.74960  1.0000 -0.6180097497
O   O12       1.0  0.19140  0.12180  0.25040  1.0000 -0.6180097497
