# DDEC6 charges by PACMAN v1.1 (https://github.com/mtap-research/PACMAN-charge/)
data_2007[CdFe][pcu]3[FSR]2
_chemical_formula_sum              "Cd2 Fe2 H48 C60 S4 N8 O12"
_cell_length_a       11.7
_cell_length_b       11.831
_cell_length_c       13.49
_cell_angle_alpha    90
_cell_angle_beta     90
_cell_angle_gamma    90

_symmetry_space_group_name_H-M    "P 1"
_symmetry_Int_Tables_number       1

loop_
  _symmetry_equiv_pos_as_xyz
  'x, y, z'

loop_
  _atom_site_type_symbol
  _atom_site_label
  _atom_site_symmetry_multiplicity
  _atom_site_fract_x
  _atom_site_fract_y
  _atom_site_fract_z
  _atom_site_occupancy
  _atom_site_charge
Cd  Cd1       1.0  0.28255  0.50000  0.50000  1.0000 0.7918792759
Cd  Cd2       1.0  0.71745  0.00000  0.00000  1.0000 0.7918792759
Fe  Fe1       1.0  0.21276  0.50000  0.00000  1.0000 0.2285286282
Fe  Fe2       1.0  0.78724  0.00000  0.50000  1.0000 0.2285286282
H   H1        1.0  0.39850  0.60490  0.91970  1.0000 0.1261115168
H   H2        1.0  0.39850  0.39510  0.08030  1.0000 0.1261115168
H   H3        1.0  0.27590  0.72080  0.04050  1.0000 0.1205912833
H   H4        1.0  0.27590  0.27920  0.95950  1.0000 0.1205912833
H   H5        1.0  0.06470  0.67720  0.00770  1.0000 0.1113377374
H   H6        1.0  0.06470  0.32280  0.99230  1.0000 0.1113377374
H   H7        1.0  0.05640  0.54370  0.85510  1.0000 0.1205912833
H   H8        1.0  0.05640  0.45630  0.14490  1.0000 0.1205912833
H   H9        1.0  0.14450  0.27420  0.57900  1.0000 0.1113377374
H   H10       1.0  0.14450  0.72580  0.42100  1.0000 0.1113377374
H   H11       1.0  0.14170  0.08430  0.57440  1.0000 0.1439806019
H   H12       1.0  0.14170  0.91570  0.42560  1.0000 0.1439806019
H   H13       1.0  0.43640  0.08740  0.42720  1.0000 0.1498810494
H   H14       1.0  0.43640  0.91260  0.57280  1.0000 0.1498810494
H   H15       1.0  0.42720  0.28370  0.42790  1.0000 0.1113377374
H   H16       1.0  0.42720  0.71630  0.57210  1.0000 0.1113377374
H   H17       1.0  0.49920  0.40960  0.62260  1.0000 0.1113377374
H   H18       1.0  0.49920  0.59040  0.37740  1.0000 0.1113377374
H   H19       1.0  0.69840  0.41210  0.62550  1.0000 0.1498810494
H   H20       1.0  0.69840  0.58790  0.37450  1.0000 0.1498810494
H   H21       1.0  0.86920  0.42080  0.36830  1.0000 0.1498810494
H   H22       1.0  0.86920  0.57920  0.63170  1.0000 0.1498810494
H   H23       1.0  0.06750  0.42770  0.37030  1.0000 0.1113377374
H   H24       1.0  0.06750  0.57230  0.62970  1.0000 0.1113377374
H   H25       1.0  0.60150  0.89510  0.41970  1.0000 0.1261115168
H   H26       1.0  0.60150  0.10490  0.58030  1.0000 0.1261115168
H   H27       1.0  0.72410  0.77920  0.54050  1.0000 0.1205912833
H   H28       1.0  0.72410  0.22080  0.45950  1.0000 0.1205912833
H   H29       1.0  0.93530  0.82280  0.50770  1.0000 0.1113377374
H   H30       1.0  0.93530  0.17720  0.49230  1.0000 0.1113377374
H   H31       1.0  0.94360  0.95630  0.35510  1.0000 0.1205912833
H   H32       1.0  0.94360  0.04370  0.64490  1.0000 0.1205912833
H   H33       1.0  0.85550  0.22580  0.07900  1.0000 0.1113377374
H   H34       1.0  0.85550  0.77420  0.92100  1.0000 0.1113377374
H   H35       1.0  0.85830  0.41570  0.07440  1.0000 0.1439806019
H   H36       1.0  0.85830  0.58430  0.92560  1.0000 0.1439806019
H   H37       1.0  0.56360  0.41260  0.92720  1.0000 0.1498810494
H   H38       1.0  0.56360  0.58740  0.07280  1.0000 0.1498810494
H   H39       1.0  0.57280  0.21630  0.92790  1.0000 0.1113377374
H   H40       1.0  0.57280  0.78370  0.07210  1.0000 0.1113377374
H   H41       1.0  0.50080  0.09040  0.12260  1.0000 0.1113377374
H   H42       1.0  0.50080  0.90960  0.87740  1.0000 0.1113377374
H   H43       1.0  0.30160  0.08790  0.12550  1.0000 0.1498810494
H   H44       1.0  0.30160  0.91210  0.87450  1.0000 0.1498810494
H   H45       1.0  0.13080  0.07920  0.86830  1.0000 0.1498810494
H   H46       1.0  0.13080  0.92080  0.13170  1.0000 0.1498810494
H   H47       1.0  0.93250  0.07230  0.87030  1.0000 0.1113377374
H   H48       1.0  0.93250  0.92770  0.12970  1.0000 0.1113377374
C   C1        1.0  0.23930  0.54930  0.85930  1.0000 -0.1308044287
C   C2        1.0  0.23930  0.45070  0.14070  1.0000 -0.1308044287
C   C3        1.0  0.31490  0.60650  0.92250  1.0000 -0.1638998929
C   C4        1.0  0.31490  0.39350  0.07750  1.0000 -0.1638998929
C   C5        1.0  0.24660  0.67250  0.98720  1.0000 -0.1308044287
C   C6        1.0  0.24660  0.32750  0.01280  1.0000 -0.1308044287
C   C7        1.0  0.13010  0.64650  0.97120  1.0000 -0.1393750812
C   C8        1.0  0.13010  0.35350  0.02880  1.0000 -0.1393750812
C   C9        1.0  0.12560  0.57310  0.88690  1.0000 -0.1773695032
C   C10       1.0  0.12560  0.42690  0.11310  1.0000 -0.1773695032
C   C11       1.0  0.20330  0.23670  0.54630  1.0000 0.0706943516
C   C12       1.0  0.20330  0.76330  0.45370  1.0000 0.0706943516
C   C13       1.0  0.20160  0.12310  0.54450  1.0000 -0.1773695032
C   C14       1.0  0.20160  0.87690  0.45550  1.0000 -0.1773695032
C   C15       1.0  0.28820  0.06380  0.49860  1.0000 0.1113377374
C   C16       1.0  0.28820  0.93620  0.50140  1.0000 0.1113377374
C   C17       1.0  0.37480  0.12410  0.45670  1.0000 -0.1702952645
C   C18       1.0  0.37480  0.87590  0.54330  1.0000 -0.1702952645
C   C19       1.0  0.36940  0.24290  0.45890  1.0000 0.1113377374
C   C20       1.0  0.36940  0.75710  0.54110  1.0000 0.1113377374
C   C21       1.0  0.53910  0.44700  0.57280  1.0000 0.0896614288
C   C22       1.0  0.53910  0.55300  0.42720  1.0000 0.0896614288
C   C23       1.0  0.65910  0.55250  0.42580  1.0000 -0.1702952645
C   C24       1.0  0.65910  0.44750  0.57420  1.0000 -0.1702952645
C   C25       1.0  0.71780  0.50000  0.50000  1.0000 0.0959371273
C   C26       1.0  0.84560  0.50000  0.50000  1.0000 0.1205912833
C   C27       1.0  0.90720  0.45360  0.42160  1.0000 -0.1773695032
C   C28       1.0  0.90720  0.54640  0.57840  1.0000 -0.1773695032
C   C29       1.0  0.02670  0.45670  0.42380  1.0000 0.0896614288
C   C30       1.0  0.02670  0.54330  0.57620  1.0000 0.0896614288
C   C31       1.0  0.76070  0.95070  0.35930  1.0000 -0.1308044287
C   C32       1.0  0.76070  0.04930  0.64070  1.0000 -0.1308044287
C   C33       1.0  0.68510  0.89350  0.42250  1.0000 -0.1638998929
C   C34       1.0  0.68510  0.10650  0.57750  1.0000 -0.1638998929
C   C35       1.0  0.75340  0.82750  0.48720  1.0000 -0.1308044287
C   C36       1.0  0.75340  0.17250  0.51280  1.0000 -0.1308044287
C   C37       1.0  0.86990  0.85350  0.47120  1.0000 -0.1393750812
C   C38       1.0  0.86990  0.14650  0.52880  1.0000 -0.1393750812
C   C39       1.0  0.87440  0.92690  0.38690  1.0000 -0.1773695032
C   C40       1.0  0.87440  0.07310  0.61310  1.0000 -0.1773695032
C   C41       1.0  0.79670  0.26330  0.04630  1.0000 0.0706943516
C   C42       1.0  0.79670  0.73670  0.95370  1.0000 0.0706943516
C   C43       1.0  0.79840  0.37690  0.04450  1.0000 -0.1773695032
C   C44       1.0  0.79840  0.62310  0.95550  1.0000 -0.1773695032
C   C45       1.0  0.71180  0.43620  0.99860  1.0000 0.1113377374
C   C46       1.0  0.71180  0.56380  0.00140  1.0000 0.1113377374
C   C47       1.0  0.62520  0.37590  0.95670  1.0000 -0.1702952645
C   C48       1.0  0.62520  0.62410  0.04330  1.0000 -0.1702952645
C   C49       1.0  0.63060  0.25710  0.95890  1.0000 0.1113377374
C   C50       1.0  0.63060  0.74290  0.04110  1.0000 0.1113377374
C   C51       1.0  0.46090  0.05300  0.07280  1.0000 0.0896614288
C   C52       1.0  0.46090  0.94700  0.92720  1.0000 0.0896614288
C   C53       1.0  0.34090  0.94750  0.92580  1.0000 -0.1702952645
C   C54       1.0  0.34090  0.05250  0.07420  1.0000 -0.1702952645
C   C55       1.0  0.28220  0.00000  0.00000  1.0000 0.0959371273
C   C56       1.0  0.15440  0.00000  0.00000  1.0000 0.1205912833
C   C57       1.0  0.09280  0.04640  0.92160  1.0000 -0.1773695032
C   C58       1.0  0.09280  0.95360  0.07840  1.0000 -0.1773695032
C   C59       1.0  0.97330  0.04330  0.92380  1.0000 0.0896614288
C   C60       1.0  0.97330  0.95670  0.07620  1.0000 0.0896614288
S   S1        1.0  0.27840  0.46300  0.76011  1.0000 1.2014690732
S   S2        1.0  0.27840  0.53700  0.23989  1.0000 1.2014690732
S   S3        1.0  0.72160  0.03700  0.26011  1.0000 1.2014690732
S   S4        1.0  0.72160  0.96300  0.73989  1.0000 1.2014690732
N   N1        1.0  0.28610  0.29930  0.50300  1.0000 -0.2315407451
N   N2        1.0  0.28610  0.70070  0.49700  1.0000 -0.2315407451
N   N3        1.0  0.48100  0.50000  0.50000  1.0000 -0.247708505
N   N4        1.0  0.08370  0.50000  0.50000  1.0000 -0.2410777416
N   N5        1.0  0.71390  0.20070  0.00300  1.0000 -0.2315407451
N   N6        1.0  0.71390  0.79930  0.99700  1.0000 -0.2315407451
N   N7        1.0  0.51900  0.00000  0.00000  1.0000 -0.247708505
N   N8        1.0  0.91630  0.00000  0.00000  1.0000 -0.2410777416
O   O1        1.0  0.28370  0.53350  0.67270  1.0000 -0.6363880243
O   O2        1.0  0.28370  0.46650  0.32730  1.0000 -0.6363880243
O   O3        1.0  0.38950  0.41560  0.78450  1.0000 -0.6301658358
O   O4        1.0  0.38950  0.58440  0.21550  1.0000 -0.6301658358
O   O5        1.0  0.18810  0.37810  0.75040  1.0000 -0.6301658358
O   O6        1.0  0.18810  0.62190  0.24960  1.0000 -0.6301658358
O   O7        1.0  0.71630  0.96650  0.17270  1.0000 -0.6363880243
O   O8        1.0  0.71630  0.03350  0.82730  1.0000 -0.6363880243
O   O9        1.0  0.61050  0.08440  0.28450  1.0000 -0.6301658358
O   O10       1.0  0.61050  0.91560  0.71550  1.0000 -0.6301658358
O   O11       1.0  0.81190  0.12190  0.25040  1.0000 -0.6301658358
O   O12       1.0  0.81190  0.87810  0.74960  1.0000 -0.6301658358
