# DDEC6 charges by PACMAN v1.1 (https://github.com/mtap-research/PACMAN-charge/)
data_2007[Zn][nog]3[FSR]1
_chemical_formula_sum              "Zn20 H120 C120 N80"
_cell_length_a       24.359
_cell_length_b       9.6097
_cell_length_c       34.2227
_cell_angle_alpha    90
_cell_angle_beta     133.578
_cell_angle_gamma    90

_symmetry_space_group_name_H-M    "P 1"
_symmetry_Int_Tables_number       1

loop_
  _symmetry_equiv_pos_as_xyz
  'x, y, z'

loop_
  _atom_site_type_symbol
  _atom_site_label
  _atom_site_symmetry_multiplicity
  _atom_site_fract_x
  _atom_site_fract_y
  _atom_site_fract_z
  _atom_site_occupancy
  _atom_site_charge
Zn  Zn1       1.0  0.08531  0.03285  0.31794  1.0000 0.5915916906
Zn  Zn2       1.0  0.91469  0.53285  0.18206  1.0000 0.5915916906
Zn  Zn3       1.0  0.91469  0.96715  0.68206  1.0000 0.5915916906
Zn  Zn4       1.0  0.08531  0.46715  0.81794  1.0000 0.5915916906
Zn  Zn5       1.0  0.26303  0.25880  0.27589  1.0000 0.5848572061
Zn  Zn6       1.0  0.73697  0.75880  0.22411  1.0000 0.5915916906
Zn  Zn7       1.0  0.73697  0.74120  0.72411  1.0000 0.5915916906
Zn  Zn8       1.0  0.26303  0.24120  0.77589  1.0000 0.5848572061
Zn  Zn9       1.0  0.10534  0.76364  0.13747  1.0000 0.6001716361
Zn  Zn10      1.0  0.89466  0.26364  0.36253  1.0000 0.6001716361
Zn  Zn11      1.0  0.89466  0.23636  0.86253  1.0000 0.6001716361
Zn  Zn12      1.0  0.10534  0.73636  0.63747  1.0000 0.6001716361
Zn  Zn13      1.0  0.14128  0.67200  0.48226  1.0000 0.6001716361
Zn  Zn14      1.0  0.85872  0.17200  0.01774  1.0000 0.6001716361
Zn  Zn15      1.0  0.85872  0.32800  0.51774  1.0000 0.6001716361
Zn  Zn16      1.0  0.14128  0.82800  0.98226  1.0000 0.6001716361
Zn  Zn17      1.0  0.46732  0.55980  0.68391  1.0000 0.5915916906
Zn  Zn18      1.0  0.53268  0.05980  0.81609  1.0000 0.5915916906
Zn  Zn19      1.0  0.53268  0.44020  0.31609  1.0000 0.5915916906
Zn  Zn20      1.0  0.46732  0.94020  0.18391  1.0000 0.5915916906
H   H1        1.0  0.95520  0.82190  0.23550  1.0000 0.0832814275
H   H2        1.0  0.04480  0.32190  0.26450  1.0000 0.0832814275
H   H3        1.0  0.04480  0.17810  0.76450  1.0000 0.0832814275
H   H4        1.0  0.95520  0.67810  0.73550  1.0000 0.0832814275
H   H5        1.0  0.16490  0.77960  0.31010  1.0000 0.108530342
H   H6        1.0  0.83510  0.27960  0.18990  1.0000 0.108530342
H   H7        1.0  0.83510  0.22040  0.68990  1.0000 0.108530342
H   H8        1.0  0.16490  0.72040  0.81010  1.0000 0.108530342
H   H9        1.0  0.09990  0.57180  0.25810  1.0000 0.108530342
H   H10       1.0  0.90010  0.07180  0.24190  1.0000 0.108530342
H   H11       1.0  0.90010  0.42820  0.74190  1.0000 0.108530342
H   H12       1.0  0.09990  0.92820  0.75810  1.0000 0.108530342
H   H13       1.0  0.16370  0.07230  0.27770  1.0000 0.0881299548
H   H14       1.0  0.83630  0.57230  0.22230  1.0000 0.0881299548
H   H15       1.0  0.83630  0.92770  0.72230  1.0000 0.0881299548
H   H16       1.0  0.16370  0.42770  0.77770  1.0000 0.0881299548
H   H17       1.0  0.21730  0.25740  0.39720  1.0000 0.108530342
H   H18       1.0  0.78270  0.75740  0.10280  1.0000 0.108530342
H   H19       1.0  0.78270  0.74260  0.60280  1.0000 0.108530342
H   H20       1.0  0.21730  0.24260  0.89720  1.0000 0.108530342
H   H21       1.0  0.29760  0.34320  0.38440  1.0000 0.108530342
H   H22       1.0  0.70240  0.84320  0.11560  1.0000 0.108530342
H   H23       1.0  0.70240  0.65680  0.61560  1.0000 0.108530342
H   H24       1.0  0.29760  0.15680  0.88440  1.0000 0.108530342
H   H25       1.0  0.23370  0.56410  0.22780  1.0000 0.0832814275
H   H26       1.0  0.76630  0.06410  0.27220  1.0000 0.0881299548
H   H27       1.0  0.76630  0.43590  0.77220  1.0000 0.0832814275
H   H28       1.0  0.23370  0.93590  0.72780  1.0000 0.0832814275
H   H29       1.0  0.08130  0.28960  0.18030  1.0000 0.1003922439
H   H30       1.0  0.91870  0.78960  0.31970  1.0000 0.1003922439
H   H31       1.0  0.91870  0.71040  0.81970  1.0000 0.1003922439
H   H32       1.0  0.08130  0.21040  0.68030  1.0000 0.1003922439
H   H33       1.0  0.01780  0.49600  0.12520  1.0000 0.1003922439
H   H34       1.0  0.98220  0.99600  0.37480  1.0000 0.1003922439
H   H35       1.0  0.98220  0.50400  0.87480  1.0000 0.1003922439
H   H36       1.0  0.01780  0.00400  0.62520  1.0000 0.1003922439
H   H37       1.0  0.13780  0.04550  0.18920  1.0000 0.0881299548
H   H38       1.0  0.86220  0.54550  0.31080  1.0000 0.0881299548
H   H39       1.0  0.86220  0.95450  0.81080  1.0000 0.0881299548
H   H40       1.0  0.13780  0.45450  0.68920  1.0000 0.0881299548
H   H41       1.0  0.28900  0.80980  0.21450  1.0000 0.1003922439
H   H42       1.0  0.71100  0.30980  0.28550  1.0000 0.1003922439
H   H43       1.0  0.71100  0.19020  0.78550  1.0000 0.1003922439
H   H44       1.0  0.28900  0.69020  0.71450  1.0000 0.1003922439
H   H45       1.0  0.35230  0.01390  0.27130  1.0000 0.108530342
H   H46       1.0  0.64770  0.51390  0.22870  1.0000 0.108530342
H   H47       1.0  0.64770  0.98610  0.72870  1.0000 0.108530342
H   H48       1.0  0.35230  0.48610  0.77130  1.0000 0.108530342
H   H49       1.0  0.01970  0.46350  0.44820  1.0000 0.0881299548
H   H50       1.0  0.98030  0.96350  0.05180  1.0000 0.0881299548
H   H51       1.0  0.98030  0.53650  0.55180  1.0000 0.0881299548
H   H52       1.0  0.01970  0.03650  0.94820  1.0000 0.0881299548
H   H53       1.0  0.08330  0.50670  0.37170  1.0000 0.1003922439
H   H54       1.0  0.91670  0.00670  0.12830  1.0000 0.1003922439
H   H55       1.0  0.91670  0.49330  0.62830  1.0000 0.1003922439
H   H56       1.0  0.08330  0.99330  0.87170  1.0000 0.1003922439
H   H57       1.0  0.98620  0.33260  0.32540  1.0000 0.1003922439
H   H58       1.0  0.01380  0.83260  0.17460  1.0000 0.1003922439
H   H59       1.0  0.01380  0.66740  0.67460  1.0000 0.1003922439
H   H60       1.0  0.98620  0.16740  0.82540  1.0000 0.1003922439
H   H61       1.0  0.16970  0.64570  0.58760  1.0000 0.0881299548
H   H62       1.0  0.83030  0.14570  0.91240  1.0000 0.0881299548
H   H63       1.0  0.83030  0.35430  0.41240  1.0000 0.0881299548
H   H64       1.0  0.16970  0.85430  0.08760  1.0000 0.0881299548
H   H65       1.0  0.98870  0.86640  0.51670  1.0000 0.108530342
H   H66       1.0  0.01130  0.36640  0.98330  1.0000 0.108530342
H   H67       1.0  0.01130  0.13360  0.48330  1.0000 0.108530342
H   H68       1.0  0.98870  0.63360  0.01670  1.0000 0.108530342
H   H69       1.0  0.00440  0.84240  0.45460  1.0000 0.108530342
H   H70       1.0  0.99560  0.34240  0.04540  1.0000 0.108530342
H   H71       1.0  0.99560  0.15760  0.54540  1.0000 0.108530342
H   H72       1.0  0.00440  0.65760  0.95460  1.0000 0.108530342
H   H73       1.0  0.09700  0.78110  0.37730  1.0000 0.0881299548
H   H74       1.0  0.90300  0.28110  0.12270  1.0000 0.0881299548
H   H75       1.0  0.90300  0.21890  0.62270  1.0000 0.0881299548
H   H76       1.0  0.09700  0.71890  0.87730  1.0000 0.0881299548
H   H77       1.0  0.16450  0.00700  0.49810  1.0000 0.108530342
H   H78       1.0  0.83550  0.50700  0.00190  1.0000 0.108530342
H   H79       1.0  0.83550  0.99300  0.50190  1.0000 0.108530342
H   H80       1.0  0.16450  0.49300  0.99810  1.0000 0.108530342
H   H81       1.0  0.14000  0.16100  0.43070  1.0000 0.1003922439
H   H82       1.0  0.86000  0.66100  0.06930  1.0000 0.108530342
H   H83       1.0  0.86000  0.83900  0.56930  1.0000 0.1003922439
H   H84       1.0  0.14000  0.33900  0.93070  1.0000 0.1003922439
H   H85       1.0  0.30200  0.69790  0.60490  1.0000 0.0881299548
H   H86       1.0  0.69800  0.19790  0.89510  1.0000 0.0881299548
H   H87       1.0  0.69800  0.30210  0.39510  1.0000 0.0881299548
H   H88       1.0  0.30200  0.80210  0.10490  1.0000 0.0881299548
H   H89       1.0  0.23860  0.42490  0.49690  1.0000 0.108530342
H   H90       1.0  0.76140  0.92490  0.00310  1.0000 0.108530342
H   H91       1.0  0.76140  0.57510  0.50310  1.0000 0.108530342
H   H92       1.0  0.23860  0.07510  0.99690  1.0000 0.108530342
H   H93       1.0  0.36950  0.37520  0.57820  1.0000 0.108530342
H   H94       1.0  0.63050  0.87520  0.92180  1.0000 0.108530342
H   H95       1.0  0.63050  0.62480  0.42180  1.0000 0.108530342
H   H96       1.0  0.36950  0.12480  0.07820  1.0000 0.108530342
H   H97       1.0  0.52610  0.85700  0.73810  1.0000 0.0881299548
H   H98       1.0  0.47390  0.35700  0.76190  1.0000 0.0881299548
H   H99       1.0  0.47390  0.14300  0.26190  1.0000 0.0881299548
H   H100      1.0  0.52610  0.64300  0.23810  1.0000 0.0881299548
H   H101      1.0  0.44160  0.79430  0.79940  1.0000 0.1003922439
H   H102      1.0  0.55840  0.29430  0.70060  1.0000 0.1003922439
H   H103      1.0  0.55840  0.20570  0.20060  1.0000 0.1003922439
H   H104      1.0  0.44160  0.70570  0.29940  1.0000 0.1003922439
H   H105      1.0  0.41210  0.59170  0.74390  1.0000 0.0881299548
H   H106      1.0  0.58790  0.09170  0.75610  1.0000 0.0881299548
H   H107      1.0  0.58790  0.40830  0.25610  1.0000 0.0881299548
H   H108      1.0  0.41210  0.90830  0.24390  1.0000 0.0881299548
H   H109      1.0  0.36310  0.38550  0.25810  1.0000 0.0881299548
H   H110      1.0  0.63690  0.88550  0.24190  1.0000 0.0881299548
H   H111      1.0  0.63690  0.61450  0.74190  1.0000 0.0881299548
H   H112      1.0  0.36310  0.11450  0.75810  1.0000 0.0881299548
H   H113      1.0  0.53810  0.33160  0.40580  1.0000 0.108530342
H   H114      1.0  0.46190  0.83160  0.09420  1.0000 0.108530342
H   H115      1.0  0.46190  0.66840  0.59420  1.0000 0.108530342
H   H116      1.0  0.53810  0.16840  0.90580  1.0000 0.108530342
H   H117      1.0  0.43180  0.27020  0.39440  1.0000 0.108530342
H   H118      1.0  0.56820  0.77020  0.10560  1.0000 0.108530342
H   H119      1.0  0.56820  0.72980  0.60560  1.0000 0.108530342
H   H120      1.0  0.43180  0.22980  0.89440  1.0000 0.108530342
C   C1        1.0  0.00000  0.78450  0.24780  1.0000 0.1195431532
C   C2        1.0  0.00000  0.28450  0.25220  1.0000 0.1195431532
C   C3        1.0  0.00000  0.21550  0.75220  1.0000 0.1195431532
C   C4        1.0  0.00000  0.71550  0.74780  1.0000 0.1195431532
C   C5        1.0  0.11350  0.76260  0.28840  1.0000 -0.0695622978
C   C6        1.0  0.88650  0.26260  0.21160  1.0000 -0.0695622978
C   C7        1.0  0.88650  0.23740  0.71160  1.0000 -0.0695622978
C   C8        1.0  0.11350  0.73740  0.78840  1.0000 -0.0695622978
C   C9        1.0  0.07780  0.64790  0.25960  1.0000 -0.0788676766
C   C10       1.0  0.92220  0.14790  0.24040  1.0000 -0.0788676766
C   C11       1.0  0.92220  0.35210  0.74040  1.0000 -0.0788676766
C   C12       1.0  0.07780  0.85210  0.75960  1.0000 -0.0788676766
C   C13       1.0  0.18880  0.13030  0.30750  1.0000 0.1294504267
C   C14       1.0  0.81120  0.63030  0.19250  1.0000 0.1294504267
C   C15       1.0  0.81120  0.86970  0.69250  1.0000 0.1294504267
C   C16       1.0  0.18880  0.36970  0.80750  1.0000 0.1294504267
C   C17       1.0  0.21620  0.22650  0.37090  1.0000 -0.0597431113
C   C18       1.0  0.78380  0.72650  0.12910  1.0000 -0.0597431113
C   C19       1.0  0.78380  0.77350  0.62910  1.0000 -0.0597431113
C   C20       1.0  0.21620  0.27350  0.87090  1.0000 -0.0597431113
C   C21       1.0  0.26000  0.27600  0.36320  1.0000 -0.0597431113
C   C22       1.0  0.74000  0.77600  0.13680  1.0000 -0.0597431113
C   C23       1.0  0.74000  0.72400  0.63680  1.0000 -0.0597431113
C   C24       1.0  0.26000  0.22400  0.86320  1.0000 -0.0597431113
C   C25       1.0  0.18740  0.51950  0.20900  1.0000 0.1294504267
C   C26       1.0  0.81260  0.01950  0.29100  1.0000 0.1294504267
C   C27       1.0  0.81260  0.48050  0.79100  1.0000 0.1294504267
C   C28       1.0  0.18740  0.98050  0.70900  1.0000 0.1294504267
C   C29       1.0  0.10500  0.37040  0.18340  1.0000 -0.1033791776
C   C30       1.0  0.89500  0.87040  0.31660  1.0000 -0.1033791776
C   C31       1.0  0.89500  0.62960  0.81660  1.0000 -0.1033791776
C   C32       1.0  0.10500  0.12960  0.68340  1.0000 -0.1033791776
C   C33       1.0  0.06990  0.48440  0.15300  1.0000 -0.0597431113
C   C34       1.0  0.93010  0.98440  0.34700  1.0000 -0.0597431113
C   C35       1.0  0.93010  0.51560  0.84700  1.0000 -0.0597431113
C   C36       1.0  0.06990  0.01560  0.65300  1.0000 -0.0597431113
C   C37       1.0  0.18420  0.01170  0.20330  1.0000 0.1294504267
C   C38       1.0  0.81580  0.51170  0.29670  1.0000 0.1294504267
C   C39       1.0  0.81580  0.98830  0.79670  1.0000 0.1294504267
C   C40       1.0  0.18420  0.48830  0.70330  1.0000 0.1294504267
C   C41       1.0  0.26580  0.88240  0.21660  1.0000 -0.0695622978
C   C42       1.0  0.73420  0.38240  0.28340  1.0000 -0.0695622978
C   C43       1.0  0.73420  0.11760  0.78340  1.0000 -0.0695622978
C   C44       1.0  0.26580  0.61760  0.71660  1.0000 -0.0695622978
C   C45       1.0  0.30070  0.99560  0.24780  1.0000 -0.0788676766
C   C46       1.0  0.69930  0.49560  0.25220  1.0000 -0.0695622978
C   C47       1.0  0.69930  0.00440  0.75220  1.0000 -0.0788676766
C   C48       1.0  0.30070  0.50440  0.74780  1.0000 -0.0788676766
C   C49       1.0  0.02430  0.45280  0.42360  1.0000 0.1195431532
C   C50       1.0  0.97570  0.95280  0.07640  1.0000 0.1195431532
C   C51       1.0  0.97570  0.54720  0.57640  1.0000 0.1195431532
C   C52       1.0  0.02430  0.04720  0.92360  1.0000 0.1195431532
C   C53       1.0  0.05850  0.47660  0.38200  1.0000 -0.0860592543
C   C54       1.0  0.94150  0.97660  0.11800  1.0000 -0.0860592543
C   C55       1.0  0.94150  0.52340  0.61800  1.0000 -0.0860592543
C   C56       1.0  0.05850  0.02340  0.88200  1.0000 -0.0860592543
C   C57       1.0  0.00520  0.38010  0.35630  1.0000 -0.0788676766
C   C58       1.0  0.99480  0.88010  0.14370  1.0000 -0.0788676766
C   C59       1.0  0.99480  0.61990  0.64370  1.0000 -0.0788676766
C   C60       1.0  0.00520  0.11990  0.85630  1.0000 -0.0788676766
C   C61       1.0  0.12600  0.69790  0.56190  1.0000 0.1195431532
C   C62       1.0  0.87400  0.19790  0.93810  1.0000 0.1195431532
C   C63       1.0  0.87400  0.30210  0.43810  1.0000 0.1195431532
C   C64       1.0  0.12600  0.80210  0.06190  1.0000 0.1195431532
C   C65       1.0  0.02780  0.81820  0.52370  1.0000 -0.0695622978
C   C66       1.0  0.97220  0.31820  0.97630  1.0000 -0.0695622978
C   C67       1.0  0.97220  0.18180  0.47630  1.0000 -0.0695622978
C   C68       1.0  0.02780  0.68180  0.02370  1.0000 -0.0695622978
C   C69       1.0  0.03600  0.80490  0.48920  1.0000 -0.0788676766
C   C70       1.0  0.96400  0.30490  0.01080  1.0000 -0.0788676766
C   C71       1.0  0.96400  0.19510  0.51080  1.0000 -0.0788676766
C   C72       1.0  0.03600  0.69510  0.98920  1.0000 -0.0788676766
C   C73       1.0  0.11210  0.85720  0.39960  1.0000 0.1195431532
C   C74       1.0  0.88790  0.35720  0.10040  1.0000 0.1195431532
C   C75       1.0  0.88790  0.14280  0.60040  1.0000 0.1195431532
C   C76       1.0  0.11210  0.64280  0.89960  1.0000 0.1195431532
C   C77       1.0  0.14860  0.97890  0.46560  1.0000 -0.0695622978
C   C78       1.0  0.85140  0.47890  0.03440  1.0000 -0.0695622978
C   C79       1.0  0.85140  0.02110  0.53440  1.0000 -0.0695622978
C   C80       1.0  0.14860  0.52110  0.96560  1.0000 -0.0695622978
C   C81       1.0  0.13460  0.06470  0.42790  1.0000 -0.0695622978
C   C82       1.0  0.86540  0.56470  0.07210  1.0000 -0.0695622978
C   C83       1.0  0.86540  0.93530  0.57210  1.0000 -0.0695622978
C   C84       1.0  0.13460  0.43530  0.92790  1.0000 -0.0695622978
C   C85       1.0  0.30260  0.62380  0.58770  1.0000 0.1195431532
C   C86       1.0  0.69740  0.12380  0.91230  1.0000 0.1195431532
C   C87       1.0  0.69740  0.37620  0.41230  1.0000 0.1195431532
C   C88       1.0  0.30260  0.87620  0.08770  1.0000 0.1195431532
C   C89       1.0  0.26770  0.47540  0.52890  1.0000 -0.0695622978
C   C90       1.0  0.73230  0.97540  0.97110  1.0000 -0.0695622978
C   C91       1.0  0.73230  0.52460  0.47110  1.0000 -0.0695622978
C   C92       1.0  0.26770  0.02460  0.02890  1.0000 -0.0695622978
C   C93       1.0  0.34040  0.44750  0.57390  1.0000 -0.0695622978
C   C94       1.0  0.65960  0.94750  0.92610  1.0000 -0.0695622978
C   C95       1.0  0.65960  0.55250  0.42610  1.0000 -0.0695622978
C   C96       1.0  0.34040  0.05250  0.07390  1.0000 -0.0695622978
C   C97       1.0  0.50100  0.81580  0.74670  1.0000 0.1294504267
C   C98       1.0  0.49900  0.31580  0.75330  1.0000 0.1294504267
C   C99       1.0  0.49900  0.18420  0.25330  1.0000 0.1294504267
C   C100      1.0  0.50100  0.68420  0.24670  1.0000 0.1294504267
C   C101      1.0  0.45550  0.78330  0.78020  1.0000 -0.0695622978
C   C102      1.0  0.54450  0.28330  0.71980  1.0000 -0.0695622978
C   C103      1.0  0.54450  0.21670  0.21980  1.0000 -0.0597431113
C   C104      1.0  0.45550  0.71670  0.28020  1.0000 -0.0597431113
C   C105      1.0  0.43900  0.67020  0.74940  1.0000 -0.0788676766
C   C106      1.0  0.56100  0.17020  0.75060  1.0000 -0.0788676766
C   C107      1.0  0.56100  0.32980  0.25060  1.0000 -0.0788676766
C   C108      1.0  0.43900  0.82980  0.24940  1.0000 -0.0788676766
C   C109      1.0  0.39440  0.36610  0.29470  1.0000 0.1195431532
C   C110      1.0  0.60560  0.86610  0.20530  1.0000 0.1195431532
C   C111      1.0  0.60560  0.63390  0.70530  1.0000 0.1195431532
C   C112      1.0  0.39440  0.13390  0.79470  1.0000 0.1195431532
C   C113      1.0  0.48780  0.33700  0.37320  1.0000 -0.0478646818
C   C114      1.0  0.51220  0.83700  0.12680  1.0000 -0.0478646818
C   C115      1.0  0.51220  0.66300  0.62680  1.0000 -0.0478646818
C   C116      1.0  0.48780  0.16300  0.87320  1.0000 -0.0478646818
C   C117      1.0  0.42980  0.30220  0.36780  1.0000 -0.0788676766
C   C118      1.0  0.57020  0.80220  0.13220  1.0000 -0.0788676766
C   C119      1.0  0.57020  0.69780  0.63220  1.0000 -0.0788676766
C   C120      1.0  0.42980  0.19780  0.86780  1.0000 -0.0788676766
N   N1        1.0  0.06490  0.85030  0.28170  1.0000 -0.2901017211
N   N2        1.0  0.93510  0.35030  0.21830  1.0000 -0.2901017211
N   N3        1.0  0.93510  0.14970  0.71830  1.0000 -0.2901017211
N   N4        1.0  0.06490  0.64970  0.78170  1.0000 -0.2901017211
N   N5        1.0  0.00320  0.66040  0.23250  1.0000 -0.2993239531
N   N6        1.0  0.99680  0.16040  0.26750  1.0000 -0.2993239531
N   N7        1.0  0.99680  0.33960  0.76750  1.0000 -0.2993239531
N   N8        1.0  0.00320  0.83960  0.73250  1.0000 -0.2993239531
N   N9        1.0  0.17240  0.12870  0.33600  1.0000 -0.2636746659
N   N10       1.0  0.82760  0.62870  0.16400  1.0000 -0.2636746659
N   N11       1.0  0.82760  0.87130  0.66400  1.0000 -0.2636746659
N   N12       1.0  0.17240  0.37130  0.83600  1.0000 -0.2636746659
N   N13       1.0  0.24170  0.21550  0.32150  1.0000 -0.2802528038
N   N14       1.0  0.75830  0.71550  0.17850  1.0000 -0.2802528038
N   N15       1.0  0.75830  0.78450  0.67850  1.0000 -0.2802528038
N   N16       1.0  0.24170  0.28450  0.82150  1.0000 -0.2802528038
N   N17       1.0  0.18260  0.39250  0.22020  1.0000 -0.2901017211
N   N18       1.0  0.81740  0.89250  0.27980  1.0000 -0.2901017211
N   N19       1.0  0.81740  0.60750  0.77980  1.0000 -0.2901017211
N   N20       1.0  0.18260  0.10750  0.72020  1.0000 -0.2901017211
N   N21       1.0  0.12250  0.57910  0.16950  1.0000 -0.2802528038
N   N22       1.0  0.87750  0.07910  0.33050  1.0000 -0.2802528038
N   N23       1.0  0.87750  0.42090  0.83050  1.0000 -0.2802528038
N   N24       1.0  0.12250  0.92090  0.66950  1.0000 -0.2802528038
N   N25       1.0  0.24830  0.08000  0.23950  1.0000 -0.2901017211
N   N26       1.0  0.75170  0.58000  0.26050  1.0000 -0.2901017211
N   N27       1.0  0.75170  0.92000  0.76050  1.0000 -0.2901017211
N   N28       1.0  0.24830  0.42000  0.73950  1.0000 -0.2901017211
N   N29       1.0  0.19150  0.89170  0.18890  1.0000 -0.2802528038
N   N30       1.0  0.80850  0.39170  0.31110  1.0000 -0.2802528038
N   N31       1.0  0.80850  0.10830  0.81110  1.0000 -0.2802528038
N   N32       1.0  0.19150  0.60830  0.68890  1.0000 -0.2802528038
N   N33       1.0  0.98360  0.36340  0.38340  1.0000 -0.2802528038
N   N34       1.0  0.01640  0.86340  0.11660  1.0000 -0.2802528038
N   N35       1.0  0.01640  0.63660  0.61660  1.0000 -0.2802528038
N   N36       1.0  0.98360  0.13660  0.88340  1.0000 -0.2802528038
N   N37       1.0  0.07290  0.52680  0.42580  1.0000 -0.2993239531
N   N38       1.0  0.92710  0.02680  0.07420  1.0000 -0.2993239531
N   N39       1.0  0.92710  0.47320  0.57420  1.0000 -0.2993239531
N   N40       1.0  0.07290  0.97320  0.92580  1.0000 -0.2993239531
N   N41       1.0  0.08480  0.75140  0.57040  1.0000 -0.2901017211
N   N42       1.0  0.91520  0.25140  0.92960  1.0000 -0.2901017211
N   N43       1.0  0.91520  0.24860  0.42960  1.0000 -0.2901017211
N   N44       1.0  0.08480  0.74860  0.07040  1.0000 -0.2901017211
N   N45       1.0  0.09960  0.72540  0.51390  1.0000 -0.2901017211
N   N46       1.0  0.90040  0.22540  0.98610  1.0000 -0.2901017211
N   N47       1.0  0.90040  0.27460  0.48610  1.0000 -0.2901017211
N   N48       1.0  0.09960  0.77460  0.01390  1.0000 -0.2901017211
N   N49       1.0  0.13560  0.84570  0.44790  1.0000 -0.2901017211
N   N50       1.0  0.86440  0.34570  0.05210  1.0000 -0.2901017211
N   N51       1.0  0.86440  0.15430  0.55210  1.0000 -0.2901017211
N   N52       1.0  0.13560  0.65430  0.94790  1.0000 -0.2901017211
N   N53       1.0  0.11170  0.98700  0.38570  1.0000 -0.2901017211
N   N54       1.0  0.88830  0.48700  0.11430  1.0000 -0.2901017211
N   N55       1.0  0.88830  0.01300  0.61430  1.0000 -0.2901017211
N   N56       1.0  0.11170  0.51300  0.88570  1.0000 -0.2901017211
N   N57       1.0  0.24330  0.58750  0.53720  1.0000 -0.2901017211
N   N58       1.0  0.75670  0.08750  0.96280  1.0000 -0.2901017211
N   N59       1.0  0.75670  0.41250  0.46280  1.0000 -0.2901017211
N   N60       1.0  0.24330  0.91250  0.03720  1.0000 -0.2901017211
N   N61       1.0  0.36350  0.54340  0.61160  1.0000 -0.2993239531
N   N62       1.0  0.63650  0.04340  0.88840  1.0000 -0.2993239531
N   N63       1.0  0.63650  0.45660  0.38840  1.0000 -0.2993239531
N   N64       1.0  0.36350  0.95660  0.11160  1.0000 -0.2993239531
N   N65       1.0  0.46880  0.69330  0.72830  1.0000 -0.2802528038
N   N66       1.0  0.53120  0.19330  0.77170  1.0000 -0.2802528038
N   N67       1.0  0.53120  0.30670  0.27170  1.0000 -0.2802528038
N   N68       1.0  0.46880  0.80670  0.22830  1.0000 -0.2802528038
N   N69       1.0  0.49520  0.87640  0.77850  1.0000 -0.2901017211
N   N70       1.0  0.50480  0.37640  0.72150  1.0000 -0.2901017211
N   N71       1.0  0.50480  0.12360  0.22150  1.0000 -0.2901017211
N   N72       1.0  0.49520  0.62360  0.27850  1.0000 -0.2901017211
N   N73       1.0  0.46710  0.37920  0.32850  1.0000 -0.271971938
N   N74       1.0  0.53290  0.87920  0.17150  1.0000 -0.271971938
N   N75       1.0  0.53290  0.62080  0.67150  1.0000 -0.271971938
N   N76       1.0  0.46710  0.12080  0.82850  1.0000 -0.271971938
N   N77       1.0  0.36740  0.32370  0.31510  1.0000 -0.2901017211
N   N78       1.0  0.63260  0.82370  0.18490  1.0000 -0.2901017211
N   N79       1.0  0.63260  0.67630  0.68490  1.0000 -0.2901017211
N   N80       1.0  0.36740  0.17630  0.81510  1.0000 -0.2901017211
