# DDEC6 charges by PACMAN v1.1 (https://github.com/mtap-research/PACMAN-charge/)
data_2007[Co][nan]3[FSR]3
_chemical_formula_sum              "Co4 H56 C60 S4 N12 O20"
_cell_length_a       11.468
_cell_length_b       11.3457
_cell_length_c       20.2067
_cell_angle_alpha    90
_cell_angle_beta     116.709
_cell_angle_gamma    90

_symmetry_space_group_name_H-M    "P 1"
_symmetry_Int_Tables_number       1

loop_
  _symmetry_equiv_pos_as_xyz
  'x, y, z'

loop_
  _atom_site_type_symbol
  _atom_site_label
  _atom_site_symmetry_multiplicity
  _atom_site_fract_x
  _atom_site_fract_y
  _atom_site_fract_z
  _atom_site_occupancy
  _atom_site_charge
Co  Co1       1.0  0.00000  0.50000  0.00000  1.0000 0.9111251372
Co  Co2       1.0  1.00000  0.50000  0.50000  1.0000 0.9111251372
Co  Co3       1.0  0.00000  0.24810  0.25000  1.0000 0.7748462098
Co  Co4       1.0  0.00000  0.75190  0.75000  1.0000 0.7748462098
H   H1        1.0  0.12610  0.55450  0.16520  1.0000 0.0985171715
H   H2        1.0  0.87390  0.55450  0.33480  1.0000 0.0985171715
H   H3        1.0  0.87390  0.44550  0.83480  1.0000 0.0985171715
H   H4        1.0  0.12610  0.44550  0.66520  1.0000 0.0985171715
H   H5        1.0  0.82810  0.65820  0.15830  1.0000 0.1385444763
H   H6        1.0  0.17190  0.65820  0.34170  1.0000 0.1385444763
H   H7        1.0  0.17190  0.34180  0.84170  1.0000 0.1385444763
H   H8        1.0  0.82810  0.34180  0.65830  1.0000 0.1385444763
H   H9        1.0  0.83050  0.45590  0.16310  1.0000 0.1092362297
H   H10       1.0  0.16950  0.45590  0.33690  1.0000 0.1092362297
H   H11       1.0  0.16950  0.54410  0.83690  1.0000 0.1092362297
H   H12       1.0  0.83050  0.54410  0.66310  1.0000 0.1092362297
H   H13       1.0  0.32440  0.56750  0.26820  1.0000 0.130028526
H   H14       1.0  0.67560  0.56750  0.23180  1.0000 0.130028526
H   H15       1.0  0.67560  0.43250  0.73180  1.0000 0.130028526
H   H16       1.0  0.32440  0.43250  0.76820  1.0000 0.130028526
H   H17       1.0  0.70370  0.21510  0.14210  1.0000 0.1225680547
H   H18       1.0  0.29630  0.21510  0.35790  1.0000 0.1225680547
H   H19       1.0  0.29630  0.78490  0.85790  1.0000 0.1225680547
H   H20       1.0  0.70370  0.78490  0.64210  1.0000 0.1225680547
H   H21       1.0  0.49720  0.48800  0.14030  1.0000 0.130028526
H   H22       1.0  0.50280  0.48800  0.35970  1.0000 0.130028526
H   H23       1.0  0.50280  0.51200  0.85970  1.0000 0.130028526
H   H24       1.0  0.49720  0.51200  0.64030  1.0000 0.130028526
H   H25       1.0  0.50360  0.19590  0.14060  1.0000 0.130028526
H   H26       1.0  0.49640  0.19590  0.35940  1.0000 0.130028526
H   H27       1.0  0.49640  0.80410  0.85940  1.0000 0.130028526
H   H28       1.0  0.50360  0.80410  0.64060  1.0000 0.130028526
H   H29       1.0  0.29410  0.47990  0.04030  1.0000 0.1092362297
H   H30       1.0  0.70590  0.47990  0.45970  1.0000 0.1092362297
H   H31       1.0  0.70590  0.52010  0.95970  1.0000 0.1092362297
H   H32       1.0  0.29410  0.52010  0.54030  1.0000 0.1092362297
H   H33       1.0  0.67660  0.23330  0.35980  1.0000 0.1225680547
H   H34       1.0  0.32340  0.23330  0.14020  1.0000 0.1225680547
H   H35       1.0  0.32340  0.76670  0.64020  1.0000 0.1225680547
H   H36       1.0  0.67660  0.76670  0.85980  1.0000 0.1225680547
H   H37       1.0  0.96230  0.83610  0.14350  1.0000 0.1385444763
H   H38       1.0  0.03770  0.83610  0.35650  1.0000 0.1385444763
H   H39       1.0  0.03770  0.16390  0.85650  1.0000 0.1385444763
H   H40       1.0  0.96230  0.16390  0.64350  1.0000 0.1385444763
H   H41       1.0  0.87170  0.25390  0.35590  1.0000 0.1092362297
H   H42       1.0  0.12830  0.25390  0.14410  1.0000 0.1092362297
H   H43       1.0  0.12830  0.74610  0.64410  1.0000 0.1092362297
H   H44       1.0  0.87170  0.74610  0.85590  1.0000 0.1092362297
H   H45       1.0  0.96530  0.03790  0.14650  1.0000 0.130028526
H   H46       1.0  0.03470  0.03790  0.35350  1.0000 0.130028526
H   H47       1.0  0.03470  0.96210  0.85350  1.0000 0.130028526
H   H48       1.0  0.96530  0.96210  0.64650  1.0000 0.130028526
H   H49       1.0  0.99500  0.71400  0.01900  1.0000 0.3000117826
H   H50       1.0  0.00500  0.71400  0.48100  1.0000 0.3000117826
H   H51       1.0  0.00500  0.28600  0.98100  1.0000 0.3000117826
H   H52       1.0  0.99500  0.28600  0.51900  1.0000 0.3000117826
H   H53       1.0  0.89200  0.69500  0.02500  1.0000 0.2593323129
H   H54       1.0  0.10800  0.69500  0.47500  1.0000 0.2593323129
H   H55       1.0  0.10800  0.30500  0.97500  1.0000 0.2593323129
H   H56       1.0  0.89200  0.30500  0.52500  1.0000 0.2593323129
C   C1        1.0  0.00000  0.81250  0.25000  1.0000 0.0985171715
C   C2        1.0  0.00000  0.18750  0.75000  1.0000 0.0985171715
C   C3        1.0  0.20160  0.54060  0.16015  1.0000 0.1092362297
C   C4        1.0  0.79840  0.54060  0.33985  1.0000 0.1092362297
C   C5        1.0  0.79840  0.45940  0.83985  1.0000 0.1092362297
C   C6        1.0  0.20160  0.45940  0.66015  1.0000 0.1092362297
C   C7        1.0  0.89770  0.61911  0.19586  1.0000 -0.1993138147
C   C8        1.0  0.10230  0.61911  0.30414  1.0000 -0.1993138147
C   C9        1.0  0.10230  0.38089  0.80414  1.0000 -0.1993138147
C   C10       1.0  0.89770  0.38089  0.69586  1.0000 -0.1993138147
C   C11       1.0  0.43560  0.52700  0.21704  1.0000 0.1092362297
C   C12       1.0  0.56440  0.52700  0.28296  1.0000 0.1092362297
C   C13       1.0  0.56440  0.47300  0.78296  1.0000 0.1092362297
C   C14       1.0  0.43560  0.47300  0.71704  1.0000 0.1092362297
C   C15       1.0  0.56460  0.21530  0.24996  1.0000 0.0985171715
C   C16       1.0  0.43540  0.21530  0.25004  1.0000 0.0985171715
C   C17       1.0  0.43540  0.78470  0.75004  1.0000 0.0985171715
C   C18       1.0  0.56460  0.78470  0.74996  1.0000 0.0985171715
C   C19       1.0  0.90070  0.49733  0.19860  1.0000 0.0985171715
C   C20       1.0  0.09930  0.49733  0.30140  1.0000 0.0985171715
C   C21       1.0  0.09930  0.50267  0.80140  1.0000 0.0985171715
C   C22       1.0  0.90070  0.50267  0.69860  1.0000 0.0985171715
C   C23       1.0  0.32100  0.54820  0.22262  1.0000 -0.1902068536
C   C24       1.0  0.67900  0.54820  0.27738  1.0000 -0.1902068536
C   C25       1.0  0.67900  0.45180  0.77738  1.0000 -0.1993138147
C   C26       1.0  0.32100  0.45180  0.72262  1.0000 -0.1902068536
C   C27       1.0  0.69860  0.21970  0.18664  1.0000 0.0903243336
C   C28       1.0  0.30140  0.21970  0.31336  1.0000 0.0903243336
C   C29       1.0  0.30140  0.78030  0.81336  1.0000 0.0903243336
C   C30       1.0  0.69860  0.78030  0.68664  1.0000 0.0903243336
C   C31       1.0  0.42320  0.50160  0.14695  1.0000 -0.1902068536
C   C32       1.0  0.57680  0.50160  0.35305  1.0000 -0.1902068536
C   C33       1.0  0.57680  0.49840  0.85305  1.0000 -0.1902068536
C   C34       1.0  0.42320  0.49840  0.64695  1.0000 -0.1902068536
C   C35       1.0  0.57720  0.20840  0.18541  1.0000 -0.1902068536
C   C36       1.0  0.42280  0.20840  0.31459  1.0000 -0.1902068536
C   C37       1.0  0.42280  0.79160  0.81459  1.0000 -0.1902068536
C   C38       1.0  0.57720  0.79160  0.68541  1.0000 -0.1902068536
C   C39       1.0  0.30020  0.49650  0.08679  1.0000 0.0903243336
C   C40       1.0  0.69980  0.49650  0.41321  1.0000 0.0903243336
C   C41       1.0  0.69980  0.50350  0.91321  1.0000 0.0903243336
C   C42       1.0  0.30020  0.50350  0.58679  1.0000 0.0903243336
C   C43       1.0  0.67890  0.23070  0.31441  1.0000 -0.1902068536
C   C44       1.0  0.32110  0.23070  0.18559  1.0000 -0.1902068536
C   C45       1.0  0.32110  0.76930  0.68559  1.0000 -0.1902068536
C   C46       1.0  0.67890  0.76930  0.81441  1.0000 -0.1902068536
C   C47       1.0  0.97800  0.87540  0.18711  1.0000 -0.1902068536
C   C48       1.0  0.02200  0.87540  0.31289  1.0000 -0.1902068536
C   C49       1.0  0.02200  0.12460  0.81289  1.0000 -0.1902068536
C   C50       1.0  0.97800  0.12460  0.68711  1.0000 -0.1902068536
C   C51       1.0  0.79670  0.24210  0.31167  1.0000 0.0985171715
C   C52       1.0  0.20330  0.24210  0.18833  1.0000 0.0985171715
C   C53       1.0  0.20330  0.75790  0.68833  1.0000 0.0985171715
C   C54       1.0  0.79670  0.75790  0.81167  1.0000 0.0985171715
C   C55       1.0  0.97940  0.99690  0.18930  1.0000 0.0985171715
C   C56       1.0  0.02060  0.99690  0.31070  1.0000 0.0985171715
C   C57       1.0  0.02060  0.00310  0.81070  1.0000 0.0985171715
C   C58       1.0  0.97940  0.00310  0.68930  1.0000 0.0985171715
C   C59       1.0  0.00000  0.68230  0.25000  1.0000 0.1092362297
C   C60       1.0  0.00000  0.31770  0.75000  1.0000 0.1092362297
S   S1        1.0  0.86100  0.29810  0.06025  1.0000 1.3968917268
S   S2        1.0  0.13900  0.29810  0.43975  1.0000 1.3968917268
S   S3        1.0  0.13900  0.70190  0.93975  1.0000 1.3968917268
S   S4        1.0  0.86100  0.70190  0.56025  1.0000 1.3968917268
N   N1        1.0  0.80839  0.23697  0.24892  1.0000 -0.2280719739
N   N2        1.0  0.19161  0.23697  0.25108  1.0000 -0.2280719739
N   N3        1.0  0.19161  0.76303  0.75108  1.0000 -0.2280719739
N   N4        1.0  0.80839  0.76303  0.74892  1.0000 -0.2280719739
N   N5        1.0  0.18982  0.51429  0.09285  1.0000 -0.2469982927
N   N6        1.0  0.81018  0.51429  0.40715  1.0000 -0.2469982927
N   N7        1.0  0.81018  0.48571  0.90715  1.0000 -0.2469982927
N   N8        1.0  0.18982  0.48571  0.59285  1.0000 -0.2469982927
N   N9        1.0  0.00000  0.43640  0.25000  1.0000 -0.2370364976
N   N10       1.0  0.00000  0.56360  0.75000  1.0000 -0.2370364976
N   N11       1.0  0.00000  0.05850  0.25000  1.0000 -0.217191906
N   N12       1.0  0.00000  0.94150  0.75000  1.0000 -0.217191906
O   O1        1.0  0.96220  0.66512  0.03539  1.0000 -0.6397694213
O   O2        1.0  0.03780  0.66512  0.46461  1.0000 -0.6397694213
O   O3        1.0  0.03780  0.33488  0.96461  1.0000 -0.6397694213
O   O4        1.0  0.96220  0.33488  0.53539  1.0000 -0.6397694213
O   O5        1.0  0.93291  0.40967  0.06669  1.0000 -0.7073770625
O   O6        1.0  0.06709  0.40967  0.43331  1.0000 -0.7073770625
O   O7        1.0  0.06709  0.59033  0.93331  1.0000 -0.7073770625
O   O8        1.0  0.93291  0.59033  0.56669  1.0000 -0.7073770625
O   O9        1.0  0.90916  0.24555  0.13472  1.0000 -0.6847168071
O   O10       1.0  0.09084  0.24555  0.36528  1.0000 -0.6847168071
O   O11       1.0  0.09084  0.75445  0.86528  1.0000 -0.6847168071
O   O12       1.0  0.90916  0.75445  0.63472  1.0000 -0.6847168071
O   O13       1.0  0.72280  0.32170  0.03209  1.0000 -0.6478620035
O   O14       1.0  0.27720  0.32170  0.46791  1.0000 -0.6478620035
O   O15       1.0  0.27720  0.67830  0.96791  1.0000 -0.6478620035
O   O16       1.0  0.72280  0.67830  0.53209  1.0000 -0.6478620035
O   O17       1.0  0.88900  0.21610  0.01333  1.0000 -0.6303184492
O   O18       1.0  0.11100  0.21610  0.48667  1.0000 -0.6303184492
O   O19       1.0  0.11100  0.78390  0.98667  1.0000 -0.6303184492
O   O20       1.0  0.88900  0.78390  0.51333  1.0000 -0.6303184492
