# DDEC6 charges by PACMAN v1.1 (https://github.com/mtap-research/PACMAN-charge/)
data_2007[Zn][rob]3[FSR]1
_chemical_formula_sum              "Zn4 H52 C80 N4 O20"
_cell_length_a       16.2493
_cell_length_b       16.2493
_cell_length_c       22.99
_cell_angle_alpha    73.1216
_cell_angle_beta     106.878
_cell_angle_gamma    113.705

_symmetry_space_group_name_H-M    "P 1"
_symmetry_Int_Tables_number       1

loop_
  _symmetry_equiv_pos_as_xyz
  'x, y, z'

loop_
  _atom_site_type_symbol
  _atom_site_label
  _atom_site_symmetry_multiplicity
  _atom_site_fract_x
  _atom_site_fract_y
  _atom_site_fract_z
  _atom_site_occupancy
  _atom_site_charge
Zn  Zn1       1.0  0.59657  0.00619  0.51272  1.0000 0.8333289681
Zn  Zn2       1.0  0.00619  0.59657  0.98728  1.0000 0.8333289681
Zn  Zn3       1.0  0.40343  0.99381  0.48728  1.0000 0.8333289681
Zn  Zn4       1.0  0.99381  0.40343  0.01272  1.0000 0.8333289681
H   H1        1.0  0.54080  0.77620  0.43070  1.0000 0.128265812
H   H2        1.0  0.77620  0.54080  0.06930  1.0000 0.128265812
H   H3        1.0  0.45920  0.22380  0.56930  1.0000 0.128265812
H   H4        1.0  0.22380  0.45920  0.93070  1.0000 0.128265812
H   H5        1.0  0.50430  0.66110  0.37920  1.0000 0.1363219677
H   H6        1.0  0.66110  0.50430  0.12080  1.0000 0.1363219677
H   H7        1.0  0.49570  0.33890  0.62080  1.0000 0.1363219677
H   H8        1.0  0.33890  0.49570  0.87920  1.0000 0.1363219677
H   H9        1.0  0.23550  0.62910  0.35140  1.0000 0.128265812
H   H10       1.0  0.62910  0.23550  0.14860  1.0000 0.128265812
H   H11       1.0  0.76450  0.37090  0.64860  1.0000 0.128265812
H   H12       1.0  0.37090  0.76450  0.85140  1.0000 0.128265812
H   H13       1.0  0.27660  0.75240  0.40150  1.0000 0.1216256779
H   H14       1.0  0.75240  0.27660  0.09850  1.0000 0.1216256779
H   H15       1.0  0.72340  0.24760  0.59850  1.0000 0.1216256779
H   H16       1.0  0.24760  0.72340  0.90150  1.0000 0.1216256779
H   H17       1.0  0.25360  0.41400  0.29920  1.0000 0.128265812
H   H18       1.0  0.41400  0.25360  0.20080  1.0000 0.128265812
H   H19       1.0  0.74640  0.58600  0.70080  1.0000 0.128265812
H   H20       1.0  0.58600  0.74640  0.79920  1.0000 0.128265812
H   H21       1.0  0.15850  0.39150  0.20070  1.0000 0.1216256779
H   H22       1.0  0.39150  0.15850  0.29930  1.0000 0.1216256779
H   H23       1.0  0.84150  0.60850  0.79930  1.0000 0.1216256779
H   H24       1.0  0.60850  0.84150  0.70070  1.0000 0.1216256779
H   H25       1.0  0.20030  0.66110  0.15160  1.0000 0.1216256779
H   H26       1.0  0.66110  0.20030  0.34840  1.0000 0.1216256779
H   H27       1.0  0.79970  0.33890  0.84840  1.0000 0.1216256779
H   H28       1.0  0.33890  0.79970  0.65160  1.0000 0.1216256779
H   H29       1.0  0.30120  0.68260  0.24720  1.0000 0.128265812
H   H30       1.0  0.68260  0.30120  0.25280  1.0000 0.128265812
H   H31       1.0  0.69880  0.31740  0.75280  1.0000 0.128265812
H   H32       1.0  0.31740  0.69880  0.74720  1.0000 0.128265812
H   H33       1.0  0.73190  0.91990  0.59200  1.0000 0.1216256779
H   H34       1.0  0.91990  0.73190  0.90800  1.0000 0.1216256779
H   H35       1.0  0.26810  0.08010  0.40800  1.0000 0.1216256779
H   H36       1.0  0.08010  0.26810  0.09200  1.0000 0.1216256779
H   H37       1.0  0.86050  0.89970  0.59230  1.0000 0.1363219677
H   H38       1.0  0.89970  0.86050  0.90770  1.0000 0.1363219677
H   H39       1.0  0.13950  0.10030  0.40770  1.0000 0.1363219677
H   H40       1.0  0.10030  0.13950  0.09230  1.0000 0.1363219677
H   H41       1.0  0.88470  0.09190  0.43870  1.0000 0.128265812
H   H42       1.0  0.09190  0.88470  0.06130  1.0000 0.128265812
H   H43       1.0  0.11530  0.90810  0.56130  1.0000 0.128265812
H   H44       1.0  0.90810  0.11530  0.93870  1.0000 0.128265812
H   H45       1.0  0.75380  0.11160  0.44560  1.0000 0.1216256779
H   H46       1.0  0.11160  0.75380  0.05440  1.0000 0.1216256779
H   H47       1.0  0.24620  0.88840  0.55440  1.0000 0.1216256779
H   H48       1.0  0.88840  0.24620  0.94560  1.0000 0.1216256779
H   H49       1.0  0.01110  0.96330  0.55880  1.0000 0.1216256779
H   H50       1.0  0.96330  0.01110  0.94120  1.0000 0.1216256779
H   H51       1.0  0.98890  0.03670  0.44120  1.0000 0.1216256779
H   H52       1.0  0.03670  0.98890  0.05880  1.0000 0.1216256779
C   C1        1.0  0.44030  0.85710  0.45030  1.0000 0.5804492889
C   C2        1.0  0.85710  0.44030  0.04970  1.0000 0.5804492889
C   C3        1.0  0.55970  0.14290  0.54970  1.0000 0.5804492889
C   C4        1.0  0.14290  0.55970  0.95030  1.0000 0.5804492889
C   C5        1.0  0.41220  0.77740  0.42170  1.0000 -0.0788847703
C   C6        1.0  0.77740  0.41220  0.07830  1.0000 -0.0788847703
C   C7        1.0  0.58780  0.22260  0.57830  1.0000 -0.0788847703
C   C8        1.0  0.22260  0.58780  0.92170  1.0000 -0.0788847703
C   C9        1.0  0.47810  0.74650  0.41400  1.0000 -0.0788847703
C   C10       1.0  0.74650  0.47810  0.08600  1.0000 -0.0788847703
C   C11       1.0  0.52190  0.25350  0.58600  1.0000 -0.0788847703
C   C12       1.0  0.25350  0.52190  0.91400  1.0000 -0.0788847703
C   C13       1.0  0.45730  0.67750  0.38440  1.0000 -0.217171441
C   C14       1.0  0.67750  0.45730  0.11560  1.0000 -0.217171441
C   C15       1.0  0.54270  0.32250  0.61560  1.0000 -0.217171441
C   C16       1.0  0.32250  0.54270  0.88440  1.0000 -0.217171441
C   C17       1.0  0.36680  0.63180  0.36240  1.0000 0.2644895969
C   C18       1.0  0.63180  0.36680  0.13760  1.0000 0.2644895969
C   C19       1.0  0.63320  0.36820  0.63760  1.0000 0.2644895969
C   C20       1.0  0.36820  0.63320  0.86240  1.0000 0.2644895969
C   C21       1.0  0.29810  0.65970  0.36780  1.0000 -0.2358323277
C   C22       1.0  0.65970  0.29810  0.13220  1.0000 -0.232670644
C   C23       1.0  0.70190  0.34030  0.63220  1.0000 -0.232670644
C   C24       1.0  0.34030  0.70190  0.86780  1.0000 -0.232670644
C   C25       1.0  0.32270  0.73350  0.39790  1.0000 -0.0788847703
C   C26       1.0  0.73350  0.32270  0.10210  1.0000 -0.0788847703
C   C27       1.0  0.67730  0.26650  0.60210  1.0000 -0.0788847703
C   C28       1.0  0.26650  0.67730  0.89790  1.0000 -0.0788847703
C   C29       1.0  0.28410  0.54970  0.28160  1.0000 0.2387443578
C   C30       1.0  0.54970  0.28410  0.21840  1.0000 0.2387443578
C   C31       1.0  0.71590  0.45030  0.71840  1.0000 0.2387443578
C   C32       1.0  0.45030  0.71590  0.78160  1.0000 0.2387443578
C   C33       1.0  0.24350  0.46490  0.26890  1.0000 -0.217171441
C   C34       1.0  0.46490  0.24350  0.23110  1.0000 -0.217171441
C   C35       1.0  0.75650  0.53510  0.73110  1.0000 -0.217171441
C   C36       1.0  0.53510  0.75650  0.76890  1.0000 -0.217171441
C   C37       1.0  0.18590  0.45090  0.21040  1.0000 -0.0867964375
C   C38       1.0  0.45090  0.18590  0.28960  1.0000 -0.0867964375
C   C39       1.0  0.81410  0.54910  0.78960  1.0000 -0.0867964375
C   C40       1.0  0.54910  0.81410  0.71040  1.0000 -0.0867964375
C   C41       1.0  0.17060  0.52420  0.16870  1.0000 -0.0389729904
C   C42       1.0  0.52420  0.17060  0.33130  1.0000 -0.0389729904
C   C43       1.0  0.82940  0.47580  0.83130  1.0000 -0.0389729904
C   C44       1.0  0.47580  0.82940  0.66870  1.0000 -0.0389729904
C   C45       1.0  0.21160  0.61020  0.18130  1.0000 -0.0867964375
C   C46       1.0  0.61020  0.21160  0.31870  1.0000 -0.0867964375
C   C47       1.0  0.78840  0.38980  0.81870  1.0000 -0.0867964375
C   C48       1.0  0.38980  0.78840  0.68130  1.0000 -0.0867964375
C   C49       1.0  0.27050  0.62270  0.23850  1.0000 -0.232670644
C   C50       1.0  0.62270  0.27050  0.26150  1.0000 -0.232670644
C   C51       1.0  0.72950  0.37730  0.76150  1.0000 -0.232670644
C   C52       1.0  0.37730  0.72950  0.73850  1.0000 -0.232670644
C   C53       1.0  0.10470  0.51050  0.10690  1.0000 0.5909367858
C   C54       1.0  0.51050  0.10470  0.39310  1.0000 0.5909367858
C   C55       1.0  0.89530  0.48950  0.89310  1.0000 0.5909367858
C   C56       1.0  0.48950  0.89530  0.60690  1.0000 0.5909367858
C   C57       1.0  0.76190  0.95430  0.55810  1.0000 0.0728084317
C   C58       1.0  0.95430  0.76190  0.94190  1.0000 0.0728084317
C   C59       1.0  0.23810  0.04570  0.44190  1.0000 0.0728084317
C   C60       1.0  0.04570  0.23810  0.05810  1.0000 0.0728084317
C   C61       1.0  0.84010  0.94370  0.56040  1.0000 -0.2139147528
C   C62       1.0  0.94370  0.84010  0.93960  1.0000 -0.2139147528
C   C63       1.0  0.15990  0.05630  0.43960  1.0000 -0.2139147528
C   C64       1.0  0.05630  0.15990  0.06040  1.0000 -0.2139147528
C   C65       1.0  0.88990  0.99670  0.51640  1.0000 0.128265812
C   C66       1.0  0.99670  0.88990  0.98360  1.0000 0.128265812
C   C67       1.0  0.11010  0.00330  0.48360  1.0000 0.128265812
C   C68       1.0  0.00330  0.11010  0.01640  1.0000 0.128265812
C   C69       1.0  0.85400  0.05560  0.47190  1.0000 -0.217171441
C   C70       1.0  0.05560  0.85400  0.02810  1.0000 -0.2139147528
C   C71       1.0  0.14600  0.94440  0.52810  1.0000 -0.217171441
C   C72       1.0  0.94440  0.14600  0.97190  1.0000 -0.217171441
C   C73       1.0  0.77300  0.06400  0.47390  1.0000 0.0770066886
C   C74       1.0  0.06400  0.77300  0.02610  1.0000 0.0770066886
C   C75       1.0  0.22700  0.93600  0.52610  1.0000 0.0770066886
C   C76       1.0  0.93600  0.22700  0.97390  1.0000 0.0770066886
C   C77       1.0  0.98210  0.98910  0.51960  1.0000 -0.0867964375
C   C78       1.0  0.98910  0.98210  0.98040  1.0000 -0.0867964375
C   C79       1.0  0.01790  0.01090  0.48040  1.0000 -0.0867964375
C   C80       1.0  0.01090  0.01790  0.01960  1.0000 -0.0867964375
N   N1        1.0  0.72170  0.00590  0.51530  1.0000 -0.189840162
N   N2        1.0  0.00590  0.72170  0.98470  1.0000 -0.189840162
N   N3        1.0  0.27830  0.99410  0.48470  1.0000 -0.189840162
N   N4        1.0  0.99410  0.27830  0.01530  1.0000 -0.189840162
O   O1        1.0  0.52330  0.89490  0.47130  1.0000 -0.5402211528
O   O2        1.0  0.89490  0.52330  0.02870  1.0000 -0.5402211528
O   O3        1.0  0.47670  0.10510  0.52870  1.0000 -0.5402211528
O   O4        1.0  0.10510  0.47670  0.97130  1.0000 -0.5402211528
O   O5        1.0  0.37780  0.88380  0.45110  1.0000 -0.5402211528
O   O6        1.0  0.88380  0.37780  0.04890  1.0000 -0.5402211528
O   O7        1.0  0.62220  0.11620  0.54890  1.0000 -0.5336381139
O   O8        1.0  0.11620  0.62220  0.95110  1.0000 -0.5402211528
O   O9        1.0  0.34530  0.55750  0.33800  1.0000 -0.2139147528
O   O10       1.0  0.55750  0.34530  0.16200  1.0000 -0.2139147528
O   O11       1.0  0.65470  0.44250  0.66200  1.0000 -0.2139147528
O   O12       1.0  0.44250  0.65470  0.83800  1.0000 -0.2139147528
O   O13       1.0  0.07520  0.43180  0.09380  1.0000 -0.5402211528
O   O14       1.0  0.43180  0.07520  0.40620  1.0000 -0.5402211528
O   O15       1.0  0.92480  0.56820  0.90620  1.0000 -0.5402211528
O   O16       1.0  0.56820  0.92480  0.59380  1.0000 -0.5402211528
O   O17       1.0  0.08680  0.57860  0.07240  1.0000 -0.5402211528
O   O18       1.0  0.57860  0.08680  0.42760  1.0000 -0.5402211528
O   O19       1.0  0.91320  0.42140  0.92760  1.0000 -0.5402211528
O   O20       1.0  0.42140  0.91320  0.57240  1.0000 -0.5402211528
