# DDEC6 charges by PACMAN v1.1 (https://github.com/mtap-research/PACMAN-charge/)
data_2007[Fe][dia]3[FSR]1
_chemical_formula_sum              "Fe12 H24 C24 O48"
_cell_length_a       11.3594
_cell_length_b       9.8177
_cell_length_c       18.3724
_cell_angle_alpha    90
_cell_angle_beta     126.931
_cell_angle_gamma    90

_symmetry_space_group_name_H-M    "P 1"
_symmetry_Int_Tables_number       1

loop_
  _symmetry_equiv_pos_as_xyz
  'x, y, z'

loop_
  _atom_site_type_symbol
  _atom_site_label
  _atom_site_symmetry_multiplicity
  _atom_site_fract_x
  _atom_site_fract_y
  _atom_site_fract_z
  _atom_site_occupancy
  _atom_site_charge
Fe  Fe1       1.0  0.62231  0.91505  0.86689  1.0000 0.921474386
Fe  Fe2       1.0  0.37769  0.41505  0.63311  1.0000 0.921474386
Fe  Fe3       1.0  0.37769  0.08495  0.13311  1.0000 0.921474386
Fe  Fe4       1.0  0.62231  0.58495  0.36689  1.0000 0.921474386
Fe  Fe5       1.0  0.57415  0.89773  0.31308  1.0000 0.921474386
Fe  Fe6       1.0  0.42585  0.39773  0.18692  1.0000 0.921474386
Fe  Fe7       1.0  0.42585  0.10227  0.68692  1.0000 0.9137719857
Fe  Fe8       1.0  0.57415  0.60227  0.81308  1.0000 0.9137719857
Fe  Fe9       1.0  0.50000  0.00000  0.00000  1.0000 0.9690787482
Fe  Fe10      1.0  0.50000  0.50000  0.50000  1.0000 0.9690787482
Fe  Fe11      1.0  0.00000  0.00000  0.00000  1.0000 1.0112561571
Fe  Fe12      1.0  0.00000  0.50000  0.50000  1.0000 1.0112561571
H   H1        1.0  0.50300  0.74910  0.63540  1.0000 0.1177461979
H   H2        1.0  0.49700  0.24910  0.86460  1.0000 0.1177461979
H   H3        1.0  0.49700  0.25090  0.36460  1.0000 0.1177461979
H   H4        1.0  0.50300  0.75090  0.13540  1.0000 0.1177461979
H   H5        1.0  0.20870  0.02860  0.73540  1.0000 0.1123008285
H   H6        1.0  0.79130  0.52860  0.76460  1.0000 0.1123008285
H   H7        1.0  0.79130  0.97140  0.26460  1.0000 0.1177461979
H   H8        1.0  0.20870  0.47140  0.23540  1.0000 0.1123008285
H   H9        1.0  0.51860  0.61320  0.96190  1.0000 0.1177461979
H   H10       1.0  0.48140  0.11320  0.53810  1.0000 0.1177461979
H   H11       1.0  0.48140  0.38680  0.03810  1.0000 0.1177461979
H   H12       1.0  0.51860  0.88680  0.46190  1.0000 0.1177461979
H   H13       1.0  0.75130  0.18430  0.76730  1.0000 0.1123008285
H   H14       1.0  0.24870  0.68430  0.73270  1.0000 0.1123008285
H   H15       1.0  0.24870  0.81570  0.23270  1.0000 0.1123008285
H   H16       1.0  0.75130  0.31570  0.26730  1.0000 0.1123008285
H   H17       1.0  0.77170  0.15870  0.07070  1.0000 0.1177461979
H   H18       1.0  0.22830  0.65870  0.42930  1.0000 0.1123008285
H   H19       1.0  0.22830  0.84130  0.92930  1.0000 0.1177461979
H   H20       1.0  0.77170  0.34130  0.57070  1.0000 0.1123008285
H   H21       1.0  0.98560  0.69890  0.99270  1.0000 0.1177461979
H   H22       1.0  0.01440  0.19890  0.50730  1.0000 0.1177461979
H   H23       1.0  0.01440  0.30110  0.00730  1.0000 0.1177461979
H   H24       1.0  0.98560  0.80110  0.49270  1.0000 0.1177461979
C   C1        1.0  0.50510  0.82020  0.67120  1.0000 0.4518594001
C   C2        1.0  0.49490  0.32020  0.82880  1.0000 0.4518594001
C   C3        1.0  0.49490  0.17980  0.32880  1.0000 0.4518594001
C   C4        1.0  0.50510  0.67980  0.17120  1.0000 0.4518594001
C   C5        1.0  0.30480  0.00890  0.78870  1.0000 0.4300017568
C   C6        1.0  0.69520  0.50890  0.71130  1.0000 0.4300017568
C   C7        1.0  0.69520  0.99110  0.21130  1.0000 0.4300017568
C   C8        1.0  0.30480  0.49110  0.28870  1.0000 0.4300017568
C   C9        1.0  0.52690  0.70710  0.95320  1.0000 0.4300017568
C   C10       1.0  0.47310  0.20710  0.54680  1.0000 0.4300017568
C   C11       1.0  0.47310  0.29290  0.04680  1.0000 0.4300017568
C   C12       1.0  0.52690  0.79290  0.45320  1.0000 0.4300017568
C   C13       1.0  0.76740  0.12570  0.81360  1.0000 0.4300017568
C   C14       1.0  0.23260  0.62570  0.68640  1.0000 0.4300017568
C   C15       1.0  0.23260  0.87430  0.18640  1.0000 0.4300017568
C   C16       1.0  0.76740  0.37430  0.31360  1.0000 0.4300017568
C   C17       1.0  0.77490  0.10240  0.02990  1.0000 0.4518594001
C   C18       1.0  0.22510  0.60240  0.47010  1.0000 0.4557189531
C   C19       1.0  0.22510  0.89760  0.97010  1.0000 0.4557189531
C   C20       1.0  0.77490  0.39760  0.52990  1.0000 0.4518594001
C   C21       1.0  0.88320  0.71690  0.95050  1.0000 0.4518594001
C   C22       1.0  0.11680  0.21690  0.54950  1.0000 0.4518594001
C   C23       1.0  0.11680  0.28310  0.04950  1.0000 0.4557189531
C   C24       1.0  0.88320  0.78310  0.45050  1.0000 0.4518594001
O   O1        1.0  0.56530  0.79280  0.75443  1.0000 -0.5399923039
O   O2        1.0  0.43470  0.29280  0.74557  1.0000 -0.5399923039
O   O3        1.0  0.43470  0.20720  0.24557  1.0000 -0.5399923039
O   O4        1.0  0.56530  0.70720  0.25443  1.0000 -0.5399923039
O   O5        1.0  0.44930  0.92970  0.63234  1.0000 -0.4714543236
O   O6        1.0  0.55070  0.42970  0.86766  1.0000 -0.4714543236
O   O7        1.0  0.55070  0.07030  0.36766  1.0000 -0.4714543236
O   O8        1.0  0.44930  0.57030  0.13234  1.0000 -0.4714543236
O   O9        1.0  0.40790  0.99680  0.78000  1.0000 -0.5474117709
O   O10       1.0  0.59210  0.49680  0.72000  1.0000 -0.5474117709
O   O11       1.0  0.59210  0.00320  0.22000  1.0000 -0.5474117709
O   O12       1.0  0.40790  0.50320  0.28000  1.0000 -0.5474117709
O   O13       1.0  0.32060  0.99700  0.86134  1.0000 -0.4875065859
O   O14       1.0  0.67940  0.49700  0.63866  1.0000 -0.4875065859
O   O15       1.0  0.67940  0.00300  0.13866  1.0000 -0.4875065859
O   O16       1.0  0.32060  0.50300  0.36134  1.0000 -0.4875065859
O   O17       1.0  0.54560  0.73700  0.89315  1.0000 -0.5399923039
O   O18       1.0  0.45440  0.23700  0.60685  1.0000 -0.5399923039
O   O19       1.0  0.45440  0.26300  0.10685  1.0000 -0.5399923039
O   O20       1.0  0.54560  0.76300  0.39315  1.0000 -0.5399923039
O   O21       1.0  0.51870  0.78880  0.00093  1.0000 -0.4834047966
O   O22       1.0  0.48130  0.28880  0.49907  1.0000 -0.4834047966
O   O23       1.0  0.48130  0.21120  0.99907  1.0000 -0.4834047966
O   O24       1.0  0.51870  0.71120  0.50093  1.0000 -0.4834047966
O   O25       1.0  0.65390  0.07870  0.80359  1.0000 -0.5399923039
O   O26       1.0  0.34610  0.57870  0.69641  1.0000 -0.5399923039
O   O27       1.0  0.34610  0.92130  0.19641  1.0000 -0.5399923039
O   O28       1.0  0.65390  0.42130  0.30359  1.0000 -0.5399923039
O   O29       1.0  0.89780  0.10150  0.87906  1.0000 -0.4875065859
O   O30       1.0  0.10220  0.60150  0.62094  1.0000 -0.4875065859
O   O31       1.0  0.10220  0.89850  0.12094  1.0000 -0.4875065859
O   O32       1.0  0.89780  0.39850  0.37906  1.0000 -0.4834047966
O   O33       1.0  0.66270  0.02460  0.97634  1.0000 -0.5574095858
O   O34       1.0  0.33730  0.52460  0.52366  1.0000 -0.5574095858
O   O35       1.0  0.33730  0.97540  0.02366  1.0000 -0.5574095858
O   O36       1.0  0.66270  0.47540  0.47634  1.0000 -0.5574095858
O   O37       1.0  0.88510  0.10980  0.03239  1.0000 -0.4834047966
O   O38       1.0  0.11490  0.60980  0.46761  1.0000 -0.4834047966
O   O39       1.0  0.11490  0.89020  0.96761  1.0000 -0.4834047966
O   O40       1.0  0.88510  0.39020  0.53239  1.0000 -0.4834047966
O   O41       1.0  0.84110  0.84220  0.94061  1.0000 -0.5474117709
O   O42       1.0  0.15890  0.34220  0.55939  1.0000 -0.5474117709
O   O43       1.0  0.15890  0.15780  0.05939  1.0000 -0.5474117709
O   O44       1.0  0.84110  0.65780  0.44061  1.0000 -0.5474117709
O   O45       1.0  0.80040  0.61830  0.90922  1.0000 -0.4875065859
O   O46       1.0  0.19960  0.11830  0.59078  1.0000 -0.4875065859
O   O47       1.0  0.19960  0.38170  0.09078  1.0000 -0.4875065859
O   O48       1.0  0.80040  0.88170  0.40922  1.0000 -0.4875065859
