# DDEC6 charges by PACMAN v1.1 (https://github.com/mtap-research/PACMAN-charge/)
data_2007[CuPr][nan]3[FSR]1
_chemical_formula_sum              "Pr4 Cu4 H32 C56 N8 O32"
_cell_length_a       11.5365
_cell_length_b       11.5365
_cell_length_c       17.348
_cell_angle_alpha    75.0501
_cell_angle_beta     104.95
_cell_angle_gamma    132.427

_symmetry_space_group_name_H-M    "P 1"
_symmetry_Int_Tables_number       1

loop_
  _symmetry_equiv_pos_as_xyz
  'x, y, z'

loop_
  _atom_site_type_symbol
  _atom_site_label
  _atom_site_symmetry_multiplicity
  _atom_site_fract_x
  _atom_site_fract_y
  _atom_site_fract_z
  _atom_site_occupancy
  _atom_site_charge
Pr  Pr1       1.0  0.30249  0.32996  0.92686  1.0000 2.0573208014
Pr  Pr2       1.0  0.32996  0.30249  0.57314  1.0000 2.0573208014
Pr  Pr3       1.0  0.69751  0.67004  0.07314  1.0000 2.0573208014
Pr  Pr4       1.0  0.67004  0.69751  0.42686  1.0000 2.0573208014
Cu  Cu1       1.0  0.23491  0.90564  0.13574  1.0000 0.3171350936
Cu  Cu2       1.0  0.90564  0.23491  0.36426  1.0000 0.3171350936
Cu  Cu3       1.0  0.76509  0.09436  0.86426  1.0000 0.3171350936
Cu  Cu4       1.0  0.09436  0.76509  0.63574  1.0000 0.3171350936
H   H1        1.0  0.63500  0.43859  0.77910  1.0000 0.1479308536
H   H2        1.0  0.43859  0.63500  0.72090  1.0000 0.1479308536
H   H3        1.0  0.36500  0.56141  0.22090  1.0000 0.1479308536
H   H4        1.0  0.56141  0.36500  0.27910  1.0000 0.1479308536
H   H5        1.0  0.79460  0.49839  0.69280  1.0000 0.1182648743
H   H6        1.0  0.49839  0.79460  0.80720  1.0000 0.1182648743
H   H7        1.0  0.20540  0.50161  0.30720  1.0000 0.1182648743
H   H8        1.0  0.50161  0.20540  0.19280  1.0000 0.1182648743
H   H9        1.0  0.13880  0.90839  0.76720  1.0000 0.1182648743
H   H10       1.0  0.90839  0.13880  0.73280  1.0000 0.1182648743
H   H11       1.0  0.86120  0.09161  0.23280  1.0000 0.1182648743
H   H12       1.0  0.09161  0.86120  0.26720  1.0000 0.1182648743
H   H13       1.0  0.99180  0.85999  0.85710  1.0000 0.1479308536
H   H14       1.0  0.85999  0.99180  0.64290  1.0000 0.1479308536
H   H15       1.0  0.00820  0.14001  0.14290  1.0000 0.1479308536
H   H16       1.0  0.14001  0.00820  0.35710  1.0000 0.1479308536
H   H17       1.0  0.53630  0.81849  0.05380  1.0000 0.1479308536
H   H18       1.0  0.81849  0.53630  0.44620  1.0000 0.1479308536
H   H19       1.0  0.46370  0.18151  0.94620  1.0000 0.1479308536
H   H20       1.0  0.18151  0.46370  0.55380  1.0000 0.1479308536
H   H21       1.0  0.48160  0.91779  0.12300  1.0000 0.1124112139
H   H22       1.0  0.91779  0.48160  0.37700  1.0000 0.1124112139
H   H23       1.0  0.51840  0.08221  0.87700  1.0000 0.1124112139
H   H24       1.0  0.08221  0.51840  0.62300  1.0000 0.1124112139
H   H25       1.0  0.07180  0.72159  0.99770  1.0000 0.1182648743
H   H26       1.0  0.72159  0.07180  0.50230  1.0000 0.1182648743
H   H27       1.0  0.92820  0.27841  0.00230  1.0000 0.1182648743
H   H28       1.0  0.27841  0.92820  0.49770  1.0000 0.1182648743
H   H29       1.0  0.11330  0.60969  0.92730  1.0000 0.1361724417
H   H30       1.0  0.60969  0.11330  0.57270  1.0000 0.1361724417
H   H31       1.0  0.88670  0.39031  0.07270  1.0000 0.1361724417
H   H32       1.0  0.39031  0.88670  0.42730  1.0000 0.1361724417
C   C1        1.0  0.69275  0.61124  0.88305  1.0000 0.621224759
C   C2        1.0  0.61124  0.69275  0.61695  1.0000 0.621224759
C   C3        1.0  0.30725  0.38876  0.11695  1.0000 0.621224759
C   C4        1.0  0.38876  0.30725  0.38305  1.0000 0.621224759
C   C5        1.0  0.79565  0.64494  0.82715  1.0000 0.0139501094
C   C6        1.0  0.64494  0.79565  0.67285  1.0000 0.0139501094
C   C7        1.0  0.20435  0.35506  0.17285  1.0000 0.0139501094
C   C8        1.0  0.35506  0.20435  0.32715  1.0000 0.0139501094
C   C9        1.0  0.73720  0.53579  0.77750  1.0000 -0.1364929137
C   C10       1.0  0.53579  0.73720  0.72250  1.0000 -0.1364929137
C   C11       1.0  0.26280  0.46421  0.22250  1.0000 -0.1364929137
C   C12       1.0  0.46421  0.26280  0.27750  1.0000 -0.1364929137
C   C13       1.0  0.83370  0.57349  0.72530  1.0000 0.0686116953
C   C14       1.0  0.57349  0.83370  0.77470  1.0000 0.0686116953
C   C15       1.0  0.16630  0.42651  0.27470  1.0000 0.0686116953
C   C16       1.0  0.42651  0.16630  0.22530  1.0000 0.0686116953
C   C17       1.0  0.03540  0.81319  0.76900  1.0000 0.0686116953
C   C18       1.0  0.81319  0.03540  0.73100  1.0000 0.0686116953
C   C19       1.0  0.96460  0.18681  0.23100  1.0000 0.0686116953
C   C20       1.0  0.18681  0.96460  0.26900  1.0000 0.0686116953
C   C21       1.0  0.94790  0.78489  0.82340  1.0000 -0.1603764614
C   C22       1.0  0.78489  0.94790  0.67660  1.0000 -0.1603764614
C   C23       1.0  0.05210  0.21511  0.17660  1.0000 -0.1603764614
C   C24       1.0  0.21511  0.05210  0.32340  1.0000 -0.1603764614
C   C25       1.0  0.34955  0.60684  0.94923  1.0000 0.5761333386
C   C26       1.0  0.60684  0.34955  0.55077  1.0000 0.5761333386
C   C27       1.0  0.65045  0.39316  0.05077  1.0000 0.5761333386
C   C28       1.0  0.39316  0.65045  0.44923  1.0000 0.5761333386
C   C29       1.0  0.32694  0.69505  0.98580  1.0000 0.0321024413
C   C30       1.0  0.69505  0.32694  0.51420  1.0000 0.0321024413
C   C31       1.0  0.67306  0.30495  0.01420  1.0000 0.0321024413
C   C32       1.0  0.30495  0.67306  0.48580  1.0000 0.0321024413
C   C33       1.0  0.43850  0.79289  0.04270  1.0000 -0.1457288359
C   C34       1.0  0.79289  0.43850  0.45730  1.0000 -0.1457288359
C   C35       1.0  0.56150  0.20711  0.95730  1.0000 -0.1457288359
C   C36       1.0  0.20711  0.56150  0.54270  1.0000 -0.1457288359
C   C37       1.0  0.40500  0.85319  0.08370  1.0000 0.0578434373
C   C38       1.0  0.85319  0.40500  0.41630  1.0000 0.0578434373
C   C39       1.0  0.59500  0.14681  0.91630  1.0000 0.0578434373
C   C40       1.0  0.14681  0.59500  0.58370  1.0000 0.0578434373
C   C41       1.0  0.16500  0.73779  0.01080  1.0000 0.0753561537
C   C42       1.0  0.73779  0.16500  0.48920  1.0000 0.0753561537
C   C43       1.0  0.83500  0.26221  0.98920  1.0000 0.0753561537
C   C44       1.0  0.26221  0.83500  0.51080  1.0000 0.0753561537
C   C45       1.0  0.18960  0.67059  0.96780  1.0000 -0.1603764614
C   C46       1.0  0.67059  0.18960  0.53220  1.0000 -0.1603764614
C   C47       1.0  0.81040  0.32941  0.03220  1.0000 -0.1603764614
C   C48       1.0  0.32941  0.81040  0.46780  1.0000 -0.1603764614
C   C49       1.0  0.94782  0.01957  0.97657  1.0000 0.4863310884
C   C50       1.0  0.01957  0.94782  0.52343  1.0000 0.4863310884
C   C51       1.0  0.05218  0.98043  0.02343  1.0000 0.4863310884
C   C52       1.0  0.98043  0.05218  0.47657  1.0000 0.4863310884
C   C53       1.0  0.21825  0.29314  0.73189  1.0000 0.4721130411
C   C54       1.0  0.29314  0.21825  0.76811  1.0000 0.4721130411
C   C55       1.0  0.78175  0.70686  0.26811  1.0000 0.4721130411
C   C56       1.0  0.70686  0.78175  0.23189  1.0000 0.4721130411
N   N1        1.0  0.97913  0.71146  0.71920  1.0000 -0.1795975958
N   N2        1.0  0.71146  0.97913  0.78080  1.0000 -0.1795975958
N   N3        1.0  0.02087  0.28854  0.28080  1.0000 -0.1795975958
N   N4        1.0  0.28854  0.02087  0.21920  1.0000 -0.1795975958
N   N5        1.0  0.26931  0.82388  0.06980  1.0000 -0.1741374006
N   N6        1.0  0.82388  0.26931  0.43020  1.0000 -0.1741374006
N   N7        1.0  0.73069  0.17612  0.93020  1.0000 -0.1741374006
N   N8        1.0  0.17612  0.73069  0.56980  1.0000 -0.1741374006
O   O1        1.0  0.54645  0.50994  0.86493  1.0000 -0.648335727
O   O2        1.0  0.50994  0.54645  0.63507  1.0000 -0.648335727
O   O3        1.0  0.45355  0.49006  0.13507  1.0000 -0.648335727
O   O4        1.0  0.49006  0.45355  0.36493  1.0000 -0.648335727
O   O5        1.0  0.76201  0.68358  0.94361  1.0000 -0.6442779024
O   O6        1.0  0.68358  0.76201  0.55639  1.0000 -0.6442779024
O   O7        1.0  0.23799  0.31642  0.05639  1.0000 -0.6442779024
O   O8        1.0  0.31642  0.23799  0.44361  1.0000 -0.6442779024
O   O9        1.0  0.24124  0.51255  0.90078  1.0000 -0.5883957813
O   O10       1.0  0.51255  0.24124  0.59922  1.0000 -0.5883957813
O   O11       1.0  0.75876  0.48745  0.09922  1.0000 -0.5883957813
O   O12       1.0  0.48745  0.75876  0.40078  1.0000 -0.5883957813
O   O13       1.0  0.47352  0.62447  0.97229  1.0000 -0.702286454
O   O14       1.0  0.62447  0.47352  0.52771  1.0000 -0.702286454
O   O15       1.0  0.52648  0.37553  0.02771  1.0000 -0.702286454
O   O16       1.0  0.37553  0.52648  0.47229  1.0000 -0.702286454
O   O17       1.0  0.00687  0.13612  0.92319  1.0000 -0.5792461355
O   O18       1.0  0.13612  0.00687  0.57681  1.0000 -0.5792461355
O   O19       1.0  0.99313  0.86388  0.07681  1.0000 -0.5792461355
O   O20       1.0  0.86388  0.99313  0.42319  1.0000 -0.5792461355
O   O21       1.0  0.81106  0.93373  0.99561  1.0000 -0.5883957813
O   O22       1.0  0.93373  0.81106  0.50439  1.0000 -0.5883957813
O   O23       1.0  0.18894  0.06627  0.00439  1.0000 -0.5883957813
O   O24       1.0  0.06627  0.18894  0.49561  1.0000 -0.5883957813
O   O25       1.0  0.20210  0.34529  0.78030  1.0000 -0.5978612621
O   O26       1.0  0.34529  0.20210  0.71970  1.0000 -0.5978612621
O   O27       1.0  0.79790  0.65471  0.21970  1.0000 -0.5978612621
O   O28       1.0  0.65471  0.79790  0.28030  1.0000 -0.5978612621
O   O29       1.0  0.17642  0.29357  0.65794  1.0000 -0.5883957813
O   O30       1.0  0.29357  0.17642  0.84206  1.0000 -0.5883957813
O   O31       1.0  0.82358  0.70643  0.34206  1.0000 -0.5883957813
O   O32       1.0  0.70643  0.82358  0.15794  1.0000 -0.5883957813
