# DDEC6 charges by PACMAN v1.1 (https://github.com/mtap-research/PACMAN-charge/)
data_2007[SmCu][nan]3[FSR]1
_chemical_formula_sum              "Sm2 Cu1 H16 C28 N2 O14"
_cell_length_a       18.7975
_cell_length_b       18.7975
_cell_length_c       6.2127
_cell_angle_alpha    82.8817
_cell_angle_beta     97.1183
_cell_angle_gamma    158.513

_symmetry_space_group_name_H-M    "P 1"
_symmetry_Int_Tables_number       1

loop_
  _symmetry_equiv_pos_as_xyz
  'x, y, z'

loop_
  _atom_site_type_symbol
  _atom_site_label
  _atom_site_symmetry_multiplicity
  _atom_site_fract_x
  _atom_site_fract_y
  _atom_site_fract_z
  _atom_site_occupancy
  _atom_site_charge
Sm  Sm1       1.0  0.09071  0.53051  0.47737  1.0000 2.0610092135
Sm  Sm2       1.0  0.53051  0.09071  0.52263  1.0000 2.0610092135
Cu  Cu1       1.0  0.30840  0.30840  0.00000  1.0000 0.1529822351
H   H1        1.0  0.26010  0.52230  0.92960  1.0000 0.1557027327
H   H2        1.0  0.52230  0.26010  0.07040  1.0000 0.1557027327
H   H3        1.0  0.32460  0.47280  0.82100  1.0000 0.1004522643
H   H4        1.0  0.47280  0.32460  0.17900  1.0000 0.1004522643
H   H5        1.0  0.16610  0.22710  0.38090  1.0000 0.0921278449
H   H6        1.0  0.22710  0.16610  0.61910  1.0000 0.0921278449
H   H7        1.0  0.10090  0.27570  0.50560  1.0000 0.1269593092
H   H8        1.0  0.27570  0.10090  0.49440  1.0000 0.1269593092
H   H9        1.0  0.09490  0.81750  0.18960  1.0000 0.1185477974
H   H10       1.0  0.81750  0.09490  0.81040  1.0000 0.1185477974
H   H11       1.0  0.93580  0.76340  0.98300  1.0000 0.1004522643
H   H12       1.0  0.76340  0.93580  0.01700  1.0000 0.1004522643
H   H13       1.0  0.82140  0.64280  0.63940  1.0000 0.1004522643
H   H14       1.0  0.64280  0.82140  0.36060  1.0000 0.1004522643
H   H15       1.0  0.85070  0.56150  0.50830  1.0000 0.1147890763
H   H16       1.0  0.56150  0.85070  0.49170  1.0000 0.1147890763
C   C1        1.0  0.14826  0.45174  0.31660  1.0000 0.5146477075
C   C2        1.0  0.45174  0.14826  0.68340  1.0000 0.5146477075
C   C3        1.0  0.19005  0.41995  0.23350  1.0000 0.0303404398
C   C4        1.0  0.41995  0.19005  0.76650  1.0000 0.0303404398
C   C5        1.0  0.24729  0.46891  0.02670  1.0000 -0.1375625877
C   C6        1.0  0.46891  0.24729  0.97330  1.0000 -0.1375625877
C   C7        1.0  0.28550  0.43850  0.96230  1.0000 0.0472411888
C   C8        1.0  0.43850  0.28550  0.03770  1.0000 0.0472411888
C   C9        1.0  0.19230  0.29390  0.29300  1.0000 0.0303404398
C   C10       1.0  0.29390  0.19230  0.70700  1.0000 0.0303404398
C   C11       1.0  0.15190  0.32170  0.36900  1.0000 -0.1656544058
C   C12       1.0  0.32170  0.15190  0.63100  1.0000 -0.1656544058
C   C13       1.0  0.04540  0.76520  0.05260  1.0000 -0.1181801506
C   C14       1.0  0.76520  0.04540  0.94740  1.0000 -0.1181801506
C   C15       1.0  0.95149  0.73451  0.92880  1.0000 -0.1181801506
C   C16       1.0  0.73451  0.95149  0.07120  1.0000 -0.1181801506
C   C17       1.0  0.88173  0.66067  0.72500  1.0000 -0.1098196654
C   C18       1.0  0.66067  0.88173  0.27500  1.0000 -0.1098196654
C   C19       1.0  0.90004  0.61276  0.64610  1.0000 -0.1181801506
C   C20       1.0  0.61276  0.90004  0.35390  1.0000 -0.1181801506
C   C21       1.0  0.99036  0.63964  0.76850  1.0000 -0.0395392048
C   C22       1.0  0.63964  0.99036  0.23150  1.0000 -0.0395392048
C   C23       1.0  0.06745  0.72015  0.97730  1.0000 -0.0395392048
C   C24       1.0  0.72015  0.06745  0.02270  1.0000 -0.0395392048
C   C25       1.0  0.03417  0.61383  0.66740  1.0000 0.6332706662
C   C26       1.0  0.61383  0.03417  0.33260  1.0000 0.6332706662
C   C27       1.0  0.15986  0.74634  0.12970  1.0000 0.649781272
C   C28       1.0  0.74634  0.15986  0.87030  1.0000 0.649781272
N   N1        1.0  0.26843  0.36157  0.09600  1.0000 -0.1953153162
N   N2        1.0  0.36157  0.26843  0.90400  1.0000 -0.1953153162
O   O1        1.0  0.10133  0.40807  0.51010  1.0000 -0.5931382923
O   O2        1.0  0.40807  0.10133  0.48990  1.0000 -0.5931382923
O   O3        1.0  0.15072  0.51148  0.19030  1.0000 -0.526559904
O   O4        1.0  0.51148  0.15072  0.80970  1.0000 -0.526559904
O   O5        1.0  0.19687  0.74253  0.65160  1.0000 -0.615289077
O   O6        1.0  0.74253  0.19687  0.34840  1.0000 -0.615289077
O   O7        1.0  0.88260  0.44080  0.58990  1.0000 -0.709713891
O   O8        1.0  0.44080  0.88260  0.41010  1.0000 -0.709713891
O   O9        1.0  0.06759  0.60081  0.16220  1.0000 -0.5963750033
O   O10       1.0  0.60081  0.06759  0.83780  1.0000 -0.5963750033
O   O11       1.0  0.31290  0.90510  0.22510  1.0000 -0.6289706973
O   O12       1.0  0.90510  0.31290  0.77490  1.0000 -0.6289706973
O   O13       1.0  0.29480  0.68900  0.79700  1.0000 -0.2405878975
O   O14       1.0  0.68900  0.29480  0.20300  1.0000 -0.2405878975
