# DDEC6 charges by PACMAN v1.1 (https://github.com/mtap-research/PACMAN-charge/)
data_2007[ZnPt][tfi]3[FSR]1
_chemical_formula_sum              "Zn8 H108 Pt4 C92 N20 Cl8 O44"
_cell_length_a       12.766
_cell_length_b       14.903
_cell_length_c       23.34
_cell_angle_alpha    90
_cell_angle_beta     90
_cell_angle_gamma    90

_symmetry_space_group_name_H-M    "P 1"
_symmetry_Int_Tables_number       1

loop_
  _symmetry_equiv_pos_as_xyz
  'x, y, z'

loop_
  _atom_site_type_symbol
  _atom_site_label
  _atom_site_symmetry_multiplicity
  _atom_site_fract_x
  _atom_site_fract_y
  _atom_site_fract_z
  _atom_site_occupancy
  _atom_site_charge
Zn  Zn1       1.0  0.15056  0.51172  0.90137  1.0000 0.9699956488
Zn  Zn2       1.0  0.65056  0.01172  0.59863  1.0000 0.9699956488
Zn  Zn3       1.0  0.34944  0.51172  0.40137  1.0000 0.9699956488
Zn  Zn4       1.0  0.84944  0.01172  0.09863  1.0000 0.9699956488
Zn  Zn5       1.0  0.25254  0.39420  0.01532  1.0000 0.9004617344
Zn  Zn6       1.0  0.75254  0.89420  0.48468  1.0000 0.9004617344
Zn  Zn7       1.0  0.24746  0.39420  0.51532  1.0000 0.9004617344
Zn  Zn8       1.0  0.74746  0.89420  0.98468  1.0000 0.9004617344
H   H1        1.0  0.06790  0.26640  0.83060  1.0000 0.1110586705
H   H2        1.0  0.56790  0.76640  0.66940  1.0000 0.1110586705
H   H3        1.0  0.43210  0.26640  0.33060  1.0000 0.1110586705
H   H4        1.0  0.93210  0.76640  0.16940  1.0000 0.1110586705
H   H5        1.0  0.02160  0.16880  0.98820  1.0000 0.1294990478
H   H6        1.0  0.52160  0.66880  0.51180  1.0000 0.1294990478
H   H7        1.0  0.47840  0.16880  0.48820  1.0000 0.1294990478
H   H8        1.0  0.97840  0.66880  0.01180  1.0000 0.1294990478
H   H9        1.0  0.89860  0.04840  0.84910  1.0000 0.1169102389
H   H10       1.0  0.39860  0.54840  0.65090  1.0000 0.1169102389
H   H11       1.0  0.60140  0.04840  0.34910  1.0000 0.1169102389
H   H12       1.0  0.10140  0.54840  0.15090  1.0000 0.1169102389
H   H13       1.0  0.87700  0.04400  0.64510  1.0000 0.1169102389
H   H14       1.0  0.37700  0.54400  0.85490  1.0000 0.1169102389
H   H15       1.0  0.62300  0.04400  0.14510  1.0000 0.1169102389
H   H16       1.0  0.12300  0.54400  0.35490  1.0000 0.1169102389
H   H17       1.0  0.99720  0.13960  0.49940  1.0000 0.1398176919
H   H18       1.0  0.49720  0.63960  0.00060  1.0000 0.1398176919
H   H19       1.0  0.50280  0.13960  0.99940  1.0000 0.1398176919
H   H20       1.0  0.00280  0.63960  0.50060  1.0000 0.1398176919
H   H21       1.0  0.07830  0.24390  0.65030  1.0000 0.1110586705
H   H22       1.0  0.57830  0.74390  0.84970  1.0000 0.1110586705
H   H23       1.0  0.42170  0.24390  0.15030  1.0000 0.1110586705
H   H24       1.0  0.92170  0.74390  0.34970  1.0000 0.1110586705
H   H25       1.0  0.13240  0.56390  0.77430  1.0000 0.0994606053
H   H26       1.0  0.63240  0.06390  0.72570  1.0000 0.0994606053
H   H27       1.0  0.36760  0.56390  0.27430  1.0000 0.0994606053
H   H28       1.0  0.86760  0.06390  0.22570  1.0000 0.0994606053
H   H29       1.0  0.28830  0.38250  0.75040  1.0000 0.1398176919
H   H30       1.0  0.78830  0.88250  0.74960  1.0000 0.1398176919
H   H31       1.0  0.21170  0.38250  0.25040  1.0000 0.1398176919
H   H32       1.0  0.71170  0.88250  0.24960  1.0000 0.1398176919
H   H33       1.0  0.28220  0.38780  0.68390  1.0000 0.1398176919
H   H34       1.0  0.78220  0.88780  0.81610  1.0000 0.1398176919
H   H35       1.0  0.21780  0.38780  0.18390  1.0000 0.1398176919
H   H36       1.0  0.71780  0.88780  0.31610  1.0000 0.1398176919
H   H37       1.0  0.19410  0.33830  0.71830  1.0000 0.1294990478
H   H38       1.0  0.69410  0.83830  0.78170  1.0000 0.1294990478
H   H39       1.0  0.30590  0.33830  0.21830  1.0000 0.1294990478
H   H40       1.0  0.80590  0.83830  0.28170  1.0000 0.1294990478
H   H41       1.0  0.09770  0.56070  0.67810  1.0000 0.1294990478
H   H42       1.0  0.59770  0.06070  0.82190  1.0000 0.1294990478
H   H43       1.0  0.40230  0.56070  0.17810  1.0000 0.1294990478
H   H44       1.0  0.90230  0.06070  0.32190  1.0000 0.1294990478
H   H45       1.0  0.18150  0.51240  0.64010  1.0000 0.1475945275
H   H46       1.0  0.68150  0.01240  0.85990  1.0000 0.1475945275
H   H47       1.0  0.31850  0.51240  0.14010  1.0000 0.1475945275
H   H48       1.0  0.81850  0.01240  0.35990  1.0000 0.1475945275
H   H49       1.0  0.08020  0.46130  0.65790  1.0000 0.1475945275
H   H50       1.0  0.58020  0.96130  0.84210  1.0000 0.1475945275
H   H51       1.0  0.41980  0.46130  0.15790  1.0000 0.1475945275
H   H52       1.0  0.91980  0.96130  0.34210  1.0000 0.1475945275
H   H53       1.0  0.95730  0.46710  0.82190  1.0000 0.1110586705
H   H54       1.0  0.45730  0.96710  0.67810  1.0000 0.1110586705
H   H55       1.0  0.54270  0.46710  0.32190  1.0000 0.1110586705
H   H56       1.0  0.04270  0.96710  0.17810  1.0000 0.1110586705
H   H57       1.0  0.71480  0.54780  0.78110  1.0000 0.1294990478
H   H58       1.0  0.21480  0.04780  0.71890  1.0000 0.1294990478
H   H59       1.0  0.78520  0.54780  0.28110  1.0000 0.1294990478
H   H60       1.0  0.28520  0.04780  0.21890  1.0000 0.1294990478
H   H61       1.0  0.76760  0.45380  0.79120  1.0000 0.1398176919
H   H62       1.0  0.26760  0.95380  0.70880  1.0000 0.1398176919
H   H63       1.0  0.73240  0.45380  0.29120  1.0000 0.1398176919
H   H64       1.0  0.23240  0.95380  0.20880  1.0000 0.1398176919
H   H65       1.0  0.81210  0.51940  0.74420  1.0000 0.1398176919
H   H66       1.0  0.31210  0.01940  0.75580  1.0000 0.1398176919
H   H67       1.0  0.68790  0.51940  0.24420  1.0000 0.1398176919
H   H68       1.0  0.18790  0.01940  0.25580  1.0000 0.1398176919
H   H69       1.0  0.87530  0.67460  0.85940  1.0000 0.1398176919
H   H70       1.0  0.37530  0.17460  0.64060  1.0000 0.1398176919
H   H71       1.0  0.62470  0.67460  0.35940  1.0000 0.1398176919
H   H72       1.0  0.12470  0.17460  0.14060  1.0000 0.1398176919
H   H73       1.0  0.77160  0.62580  0.87950  1.0000 0.1475945275
H   H74       1.0  0.27160  0.12580  0.62050  1.0000 0.1475945275
H   H75       1.0  0.72840  0.62580  0.37950  1.0000 0.1475945275
H   H76       1.0  0.22840  0.12580  0.12050  1.0000 0.1475945275
H   H77       1.0  0.77760  0.67020  0.81830  1.0000 0.1398176919
H   H78       1.0  0.27760  0.17020  0.68170  1.0000 0.1398176919
H   H79       1.0  0.72240  0.67020  0.31830  1.0000 0.1398176919
H   H80       1.0  0.22240  0.17020  0.18170  1.0000 0.1398176919
H   H81       1.0  0.07760  0.69310  0.92520  1.0000 0.1110586705
H   H82       1.0  0.57760  0.19310  0.57480  1.0000 0.0994606053
H   H83       1.0  0.42240  0.69310  0.42520  1.0000 0.1110586705
H   H84       1.0  0.92240  0.19310  0.07480  1.0000 0.0994606053
H   H85       1.0  0.06090  0.90330  0.86720  1.0000 0.1398176919
H   H86       1.0  0.56090  0.40330  0.63280  1.0000 0.1398176919
H   H87       1.0  0.43910  0.90330  0.36720  1.0000 0.1398176919
H   H88       1.0  0.93910  0.40330  0.13280  1.0000 0.1398176919
H   H89       1.0  0.04810  0.86050  0.92840  1.0000 0.1475945275
H   H90       1.0  0.54810  0.36050  0.57160  1.0000 0.1475945275
H   H91       1.0  0.45190  0.86050  0.42840  1.0000 0.1475945275
H   H92       1.0  0.95190  0.36050  0.07160  1.0000 0.1475945275
H   H93       1.0  0.97550  0.82790  0.87790  1.0000 0.1398176919
H   H94       1.0  0.47550  0.32790  0.62210  1.0000 0.1398176919
H   H95       1.0  0.52450  0.82790  0.37790  1.0000 0.1398176919
H   H96       1.0  0.02450  0.32790  0.12210  1.0000 0.1398176919
H   H97       1.0  0.16430  0.85740  0.80770  1.0000 0.1294990478
H   H98       1.0  0.66430  0.35740  0.69230  1.0000 0.1294990478
H   H99       1.0  0.33570  0.85740  0.30770  1.0000 0.1294990478
H   H100      1.0  0.83570  0.35740  0.19230  1.0000 0.1294990478
H   H101      1.0  0.25960  0.81260  0.83920  1.0000 0.1398176919
H   H102      1.0  0.75960  0.31260  0.66080  1.0000 0.1398176919
H   H103      1.0  0.24040  0.81260  0.33920  1.0000 0.1398176919
H   H104      1.0  0.74040  0.31260  0.16080  1.0000 0.1398176919
H   H105      1.0  0.18850  0.75420  0.79850  1.0000 0.1294990478
H   H106      1.0  0.68850  0.25420  0.70150  1.0000 0.1294990478
H   H107      1.0  0.31150  0.75420  0.29850  1.0000 0.1294990478
H   H108      1.0  0.81150  0.25420  0.20150  1.0000 0.1294990478
Pt  Pt1       1.0  0.97334  0.14927  0.74411  1.0000 0.2024887103
Pt  Pt2       1.0  0.47334  0.64927  0.75589  1.0000 0.2024887103
Pt  Pt3       1.0  0.52666  0.14927  0.24411  1.0000 0.2024887103
Pt  Pt4       1.0  0.02666  0.64927  0.25589  1.0000 0.2024887103
C   C1        1.0  0.03690  0.22400  0.85460  1.0000 0.0317444618
C   C2        1.0  0.53690  0.72400  0.64540  1.0000 0.0317444618
C   C3        1.0  0.46310  0.22400  0.35460  1.0000 0.0317444618
C   C4        1.0  0.96310  0.72400  0.14540  1.0000 0.0317444618
C   C5        1.0  0.05110  0.23220  0.91300  1.0000 -0.0488034728
C   C6        1.0  0.55110  0.73220  0.58700  1.0000 -0.0488034728
C   C7        1.0  0.44890  0.23220  0.41300  1.0000 -0.0488034728
C   C8        1.0  0.94890  0.73220  0.08700  1.0000 -0.0488034728
C   C9        1.0  0.00960  0.16690  0.94900  1.0000 -0.0814626057
C   C10       1.0  0.50960  0.66690  0.55100  1.0000 -0.0814626057
C   C11       1.0  0.49040  0.16690  0.44900  1.0000 -0.0814626057
C   C12       1.0  0.99040  0.66690  0.05100  1.0000 -0.0814626057
C   C13       1.0  0.94990  0.09870  0.92480  1.0000 -0.0488034728
C   C14       1.0  0.44990  0.59870  0.57520  1.0000 -0.0488034728
C   C15       1.0  0.55010  0.09870  0.42480  1.0000 -0.0488034728
C   C16       1.0  0.05010  0.59870  0.07520  1.0000 -0.0488034728
C   C17       1.0  0.93740  0.09430  0.86560  1.0000 0.0317444618
C   C18       1.0  0.43740  0.59430  0.63440  1.0000 0.0317444618
C   C19       1.0  0.56260  0.09430  0.36560  1.0000 0.0317444618
C   C20       1.0  0.06260  0.59430  0.13440  1.0000 0.0317444618
C   C21       1.0  0.10600  0.31480  0.93500  1.0000 0.5954085599
C   C22       1.0  0.60600  0.81480  0.56500  1.0000 0.5954085599
C   C23       1.0  0.39400  0.31480  0.43500  1.0000 0.5954085599
C   C24       1.0  0.89400  0.81480  0.06500  1.0000 0.5954085599
C   C25       1.0  0.89460  0.03200  0.96320  1.0000 0.573684455
C   C26       1.0  0.39460  0.53200  0.53680  1.0000 0.573684455
C   C27       1.0  0.60540  0.03200  0.46320  1.0000 0.573684455
C   C28       1.0  0.10540  0.53200  0.03680  1.0000 0.573684455
C   C29       1.0  0.91950  0.08490  0.62600  1.0000 0.0391161444
C   C30       1.0  0.41950  0.58490  0.87400  1.0000 0.0391161444
C   C31       1.0  0.58050  0.08490  0.12600  1.0000 0.0391161444
C   C32       1.0  0.08050  0.58490  0.37400  1.0000 0.0391161444
C   C33       1.0  0.92570  0.08230  0.56690  1.0000 -0.0488034728
C   C34       1.0  0.42570  0.58230  0.93310  1.0000 -0.0488034728
C   C35       1.0  0.57430  0.08230  0.06690  1.0000 -0.0488034728
C   C36       1.0  0.07430  0.58230  0.43310  1.0000 -0.0488034728
C   C37       1.0  0.99070  0.14140  0.53890  1.0000 -0.0593767454
C   C38       1.0  0.49070  0.64140  0.96110  1.0000 -0.0593767454
C   C39       1.0  0.50930  0.14140  0.03890  1.0000 -0.0593767454
C   C40       1.0  0.00930  0.64140  0.46110  1.0000 -0.0593767454
C   C41       1.0  0.04580  0.20380  0.57110  1.0000 -0.0488034728
C   C42       1.0  0.54580  0.70380  0.92890  1.0000 -0.0488034728
C   C43       1.0  0.45420  0.20380  0.07110  1.0000 -0.0488034728
C   C44       1.0  0.95420  0.70380  0.42890  1.0000 -0.0488034728
C   C45       1.0  0.03870  0.20360  0.62940  1.0000 0.0317444618
C   C46       1.0  0.53870  0.70360  0.87060  1.0000 0.0317444618
C   C47       1.0  0.46130  0.20360  0.12940  1.0000 0.0317444618
C   C48       1.0  0.96130  0.70360  0.37060  1.0000 0.0317444618
C   C49       1.0  0.86610  0.01520  0.53280  1.0000 0.573684455
C   C50       1.0  0.36610  0.51520  0.96720  1.0000 0.573684455
C   C51       1.0  0.63390  0.01520  0.03280  1.0000 0.573684455
C   C52       1.0  0.13390  0.51520  0.46720  1.0000 0.573684455
C   C53       1.0  0.11610  0.27270  0.54200  1.0000 0.5494498025
C   C54       1.0  0.61610  0.77270  0.95800  1.0000 0.5494498025
C   C55       1.0  0.38390  0.27270  0.04200  1.0000 0.5494498025
C   C56       1.0  0.88390  0.77270  0.45800  1.0000 0.5494498025
C   C57       1.0  0.17170  0.51100  0.77330  1.0000 0.2521732907
C   C58       1.0  0.67170  0.01100  0.72670  1.0000 0.2521732907
C   C59       1.0  0.32830  0.51100  0.27330  1.0000 0.2521732907
C   C60       1.0  0.82830  0.01100  0.22670  1.0000 0.2521732907
C   C61       1.0  0.24180  0.38800  0.71840  1.0000 -0.3141328234
C   C62       1.0  0.74180  0.88800  0.78160  1.0000 -0.3141328234
C   C63       1.0  0.25820  0.38800  0.21840  1.0000 -0.3141328234
C   C64       1.0  0.75820  0.88800  0.28160  1.0000 -0.3141328234
C   C65       1.0  0.13160  0.50420  0.67020  1.0000 -0.3307461206
C   C66       1.0  0.63160  0.00420  0.82980  1.0000 -0.3307461206
C   C67       1.0  0.36840  0.50420  0.17020  1.0000 -0.3307461206
C   C68       1.0  0.86840  0.00420  0.32980  1.0000 -0.3307461206
C   C69       1.0  0.94010  0.52160  0.83950  1.0000 0.2521732907
C   C70       1.0  0.44010  0.02160  0.66050  1.0000 0.2521732907
C   C71       1.0  0.55990  0.52160  0.33950  1.0000 0.2521732907
C   C72       1.0  0.05990  0.02160  0.16050  1.0000 0.2521732907
C   C73       1.0  0.78040  0.51580  0.78160  1.0000 -0.3397707034
C   C74       1.0  0.28040  0.01580  0.71840  1.0000 -0.3397707034
C   C75       1.0  0.71960  0.51580  0.28160  1.0000 -0.3397707034
C   C76       1.0  0.21960  0.01580  0.21840  1.0000 -0.3397707034
C   C77       1.0  0.81660  0.63820  0.84730  1.0000 -0.2804973562
C   C78       1.0  0.31660  0.13820  0.65270  1.0000 -0.2804973562
C   C79       1.0  0.68340  0.63820  0.34730  1.0000 -0.2804973562
C   C80       1.0  0.18340  0.13820  0.15270  1.0000 -0.2804973562
C   C81       1.0  0.12960  0.70480  0.89800  1.0000 0.2887362625
C   C82       1.0  0.62960  0.20480  0.60200  1.0000 0.2887362625
C   C83       1.0  0.37040  0.70480  0.39800  1.0000 0.2887362625
C   C84       1.0  0.87040  0.20480  0.10200  1.0000 0.2887362625
C   C85       1.0  0.04460  0.84930  0.88800  1.0000 -0.3307461206
C   C86       1.0  0.54460  0.34930  0.61200  1.0000 -0.3307461206
C   C87       1.0  0.45540  0.84930  0.38800  1.0000 -0.3307461206
C   C88       1.0  0.95540  0.34930  0.11200  1.0000 -0.3307461206
C   C89       1.0  0.18930  0.80310  0.82550  1.0000 -0.3171845664
C   C90       1.0  0.68930  0.30310  0.67450  1.0000 -0.3171845664
C   C91       1.0  0.31070  0.80310  0.32550  1.0000 -0.3171845664
C   C92       1.0  0.81070  0.30310  0.17450  1.0000 -0.3171845664
N   N1        1.0  0.98070  0.15710  0.83128  1.0000 -0.0932786976
N   N2        1.0  0.48070  0.65710  0.66872  1.0000 -0.0932786976
N   N3        1.0  0.51930  0.15710  0.33128  1.0000 -0.0932786976
N   N4        1.0  0.01930  0.65710  0.16872  1.0000 -0.0932786976
N   N5        1.0  0.97570  0.14630  0.65775  1.0000 -0.1039303009
N   N6        1.0  0.47570  0.64630  0.84225  1.0000 -0.1039303009
N   N7        1.0  0.52430  0.14630  0.15775  1.0000 -0.1039303009
N   N8        1.0  0.02430  0.64630  0.34225  1.0000 -0.1039303009
N   N9        1.0  0.18400  0.47140  0.72270  1.0000 0.0235182691
N   N10       1.0  0.68400  0.97140  0.77730  1.0000 0.0235182691
N   N11       1.0  0.31600  0.47140  0.22270  1.0000 0.0235182691
N   N12       1.0  0.81600  0.97140  0.27730  1.0000 0.0235182691
N   N13       1.0  0.85170  0.55720  0.82520  1.0000 0.0317444618
N   N14       1.0  0.35170  0.05720  0.67480  1.0000 0.0317444618
N   N15       1.0  0.64830  0.55720  0.32520  1.0000 0.0317444618
N   N16       1.0  0.14830  0.05720  0.17480  1.0000 0.0317444618
N   N17       1.0  0.12200  0.78150  0.87380  1.0000 0.0317444618
N   N18       1.0  0.62200  0.28150  0.62620  1.0000 0.0317444618
N   N19       1.0  0.37800  0.78150  0.37380  1.0000 0.0317444618
N   N20       1.0  0.87800  0.28150  0.12620  1.0000 0.0317444618
Cl  Cl1       1.0  0.94220  0.30162  0.73887  1.0000 -0.4335771192
Cl  Cl2       1.0  0.44220  0.80162  0.76113  1.0000 -0.4335771192
Cl  Cl3       1.0  0.55780  0.30162  0.23887  1.0000 -0.4335771192
Cl  Cl4       1.0  0.05780  0.80162  0.26113  1.0000 -0.4335771192
Cl  Cl5       1.0  0.00597  0.99773  0.74880  1.0000 -0.4023412455
Cl  Cl6       1.0  0.50597  0.49773  0.75120  1.0000 -0.4023412455
Cl  Cl7       1.0  0.49403  0.99773  0.24880  1.0000 -0.4023412455
Cl  Cl8       1.0  0.99403  0.49773  0.25120  1.0000 -0.4023412455
O   O1        1.0  0.10630  0.38150  0.90207  1.0000 -0.5610508908
O   O2        1.0  0.60630  0.88150  0.59793  1.0000 -0.5610508908
O   O3        1.0  0.39370  0.38150  0.40207  1.0000 -0.5610508908
O   O4        1.0  0.89370  0.88150  0.09793  1.0000 -0.5610508908
O   O5        1.0  0.14910  0.30810  0.98378  1.0000 -0.541190951
O   O6        1.0  0.64910  0.80810  0.51622  1.0000 -0.541190951
O   O7        1.0  0.35090  0.30810  0.48378  1.0000 -0.541190951
O   O8        1.0  0.85090  0.80810  0.01622  1.0000 -0.541190951
O   O9        1.0  0.90720  0.04220  0.01610  1.0000 -0.578726231
O   O10       1.0  0.40720  0.54220  0.48390  1.0000 -0.578726231
O   O11       1.0  0.59280  0.04220  0.51610  1.0000 -0.578726231
O   O12       1.0  0.09280  0.54220  0.98390  1.0000 -0.578726231
O   O13       1.0  0.83910  0.97460  0.93819  1.0000 -0.5303363193
O   O14       1.0  0.33910  0.47460  0.56181  1.0000 -0.5303363193
O   O15       1.0  0.66090  0.97460  0.43819  1.0000 -0.5303363193
O   O16       1.0  0.16090  0.47460  0.06181  1.0000 -0.5303363193
O   O17       1.0  0.79230  0.97010  0.55770  1.0000 -0.578726231
O   O18       1.0  0.29230  0.47010  0.94230  1.0000 -0.578726231
O   O19       1.0  0.70770  0.97010  0.05770  1.0000 -0.578726231
O   O20       1.0  0.20770  0.47010  0.44230  1.0000 -0.578726231
O   O21       1.0  0.88780  0.00240  0.48210  1.0000 -0.4808307875
O   O22       1.0  0.38780  0.50240  0.01790  1.0000 -0.4808307875
O   O23       1.0  0.61220  0.00240  0.98210  1.0000 -0.4808307875
O   O24       1.0  0.11220  0.50240  0.51790  1.0000 -0.4808307875
O   O25       1.0  0.10870  0.28480  0.48960  1.0000 -0.5165668715
O   O26       1.0  0.60870  0.78480  0.01040  1.0000 -0.5165668715
O   O27       1.0  0.39130  0.28480  0.98960  1.0000 -0.5165668715
O   O28       1.0  0.89130  0.78480  0.51040  1.0000 -0.5165668715
O   O29       1.0  0.17710  0.31710  0.57470  1.0000 -0.5505090345
O   O30       1.0  0.67710  0.81710  0.92530  1.0000 -0.5505090345
O   O31       1.0  0.32290  0.31710  0.07470  1.0000 -0.5505090345
O   O32       1.0  0.82290  0.81710  0.42530  1.0000 -0.5505090345
O   O33       1.0  0.20730  0.48360  0.81790  1.0000 -0.4068973948
O   O34       1.0  0.70730  0.98360  0.68210  1.0000 -0.4068973948
O   O35       1.0  0.29270  0.48360  0.31790  1.0000 -0.4068973948
O   O36       1.0  0.79270  0.98360  0.18210  1.0000 -0.4068973948
O   O37       1.0  0.00260  0.55150  0.87290  1.0000 -0.4440669407
O   O38       1.0  0.50260  0.05150  0.62710  1.0000 -0.4440669407
O   O39       1.0  0.49740  0.55150  0.37290  1.0000 -0.4440669407
O   O40       1.0  0.99740  0.05150  0.12710  1.0000 -0.4440669407
O   O41       1.0  0.19450  0.64570  0.89070  1.0000 -0.4457190324
O   O42       1.0  0.69450  0.14570  0.60930  1.0000 -0.4457190324
O   O43       1.0  0.30550  0.64570  0.39070  1.0000 -0.4457190324
O   O44       1.0  0.80550  0.14570  0.10930  1.0000 -0.4457190324
