# DDEC6 charges by PACMAN v1.1 (https://github.com/mtap-research/PACMAN-charge/)
data_2008[Ho][rtl]3[FSR]1
_chemical_formula_sum              "Ho4 H64 C48 N4 O32"
_cell_length_a       9.5736
_cell_length_b       13.8317
_cell_length_c       17.5923
_cell_angle_alpha    90
_cell_angle_beta     119.467
_cell_angle_gamma    90

_symmetry_space_group_name_H-M    "P 1"
_symmetry_Int_Tables_number       1

loop_
  _symmetry_equiv_pos_as_xyz
  'x, y, z'

loop_
  _atom_site_type_symbol
  _atom_site_label
  _atom_site_symmetry_multiplicity
  _atom_site_fract_x
  _atom_site_fract_y
  _atom_site_fract_z
  _atom_site_occupancy
  _atom_site_charge
Ho  Ho1       1.0  0.62831  0.61134  0.08561  1.0000 1.9640337292
Ho  Ho2       1.0  0.37169  0.11134  0.41439  1.0000 1.9640337292
Ho  Ho3       1.0  0.37169  0.38866  0.91439  1.0000 1.9640337292
Ho  Ho4       1.0  0.62831  0.88866  0.58561  1.0000 1.9640337292
H   H1        1.0  0.42350  0.31150  0.18760  1.0000 0.110796107
H   H2        1.0  0.57650  0.81150  0.31240  1.0000 0.110796107
H   H3        1.0  0.57650  0.68850  0.81240  1.0000 0.110796107
H   H4        1.0  0.42350  0.18850  0.68760  1.0000 0.110796107
H   H5        1.0  0.41770  0.39310  0.24790  1.0000 0.110796107
H   H6        1.0  0.58230  0.89310  0.25210  1.0000 0.110796107
H   H7        1.0  0.58230  0.60690  0.75210  1.0000 0.110796107
H   H8        1.0  0.41770  0.10690  0.74790  1.0000 0.110796107
H   H9        1.0  0.22920  0.38890  0.06500  1.0000 0.1185983269
H   H10       1.0  0.77080  0.88890  0.43500  1.0000 0.1185983269
H   H11       1.0  0.77080  0.61110  0.93500  1.0000 0.1185983269
H   H12       1.0  0.22920  0.11110  0.56500  1.0000 0.1185983269
H   H13       1.0  0.22430  0.53720  0.17350  1.0000 0.110796107
H   H14       1.0  0.77570  0.03720  0.32650  1.0000 0.110796107
H   H15       1.0  0.77570  0.46280  0.82650  1.0000 0.110796107
H   H16       1.0  0.22430  0.96280  0.67350  1.0000 0.110796107
H   H17       1.0  0.12320  0.53720  0.07120  1.0000 0.110796107
H   H18       1.0  0.87680  0.03720  0.42880  1.0000 0.110796107
H   H19       1.0  0.87680  0.46280  0.92880  1.0000 0.110796107
H   H20       1.0  0.12320  0.96280  0.57120  1.0000 0.110796107
H   H21       1.0  0.98350  0.40230  0.07440  1.0000 0.110796107
H   H22       1.0  0.01650  0.90230  0.42560  1.0000 0.110796107
H   H23       1.0  0.01650  0.59770  0.92560  1.0000 0.110796107
H   H24       1.0  0.98350  0.09770  0.57440  1.0000 0.110796107
H   H25       1.0  0.15240  0.40910  0.25720  1.0000 0.1021362085
H   H26       1.0  0.84760  0.90910  0.24280  1.0000 0.1021362085
H   H27       1.0  0.84760  0.59090  0.74280  1.0000 0.1021362085
H   H28       1.0  0.15240  0.09090  0.75720  1.0000 0.1021362085
H   H29       1.0  0.01180  0.33710  0.20170  1.0000 0.1185983269
H   H30       1.0  0.98820  0.83710  0.29830  1.0000 0.1185983269
H   H31       1.0  0.98820  0.66290  0.79830  1.0000 0.1185983269
H   H32       1.0  0.01180  0.16290  0.70170  1.0000 0.1185983269
H   H33       1.0  0.16050  0.26470  0.14620  1.0000 0.1021362085
H   H34       1.0  0.83950  0.76470  0.35380  1.0000 0.1021362085
H   H35       1.0  0.83950  0.73530  0.85380  1.0000 0.1021362085
H   H36       1.0  0.16050  0.23530  0.64620  1.0000 0.1021362085
H   H37       1.0  0.48360  0.81760  0.98090  1.0000 0.128856104
H   H38       1.0  0.51640  0.31760  0.51910  1.0000 0.128856104
H   H39       1.0  0.51640  0.18240  0.01910  1.0000 0.128856104
H   H40       1.0  0.48360  0.68240  0.48090  1.0000 0.128856104
H   H41       1.0  0.81840  0.83890  0.96630  1.0000 0.1397470616
H   H42       1.0  0.18160  0.33890  0.53370  1.0000 0.1397470616
H   H43       1.0  0.18160  0.16110  0.03370  1.0000 0.1397470616
H   H44       1.0  0.81840  0.66110  0.46630  1.0000 0.1397470616
H   H45       1.0  0.72570  0.89210  0.87620  1.0000 0.1467803705
H   H46       1.0  0.27430  0.39210  0.62380  1.0000 0.1467803705
H   H47       1.0  0.27430  0.10790  0.12380  1.0000 0.1467803705
H   H48       1.0  0.72570  0.60790  0.37620  1.0000 0.1467803705
H   H49       1.0  0.80630  0.95200  0.96300  1.0000 0.1397470616
H   H50       1.0  0.19370  0.45200  0.53700  1.0000 0.1397470616
H   H51       1.0  0.19370  0.04800  0.03700  1.0000 0.1397470616
H   H52       1.0  0.80630  0.54800  0.46300  1.0000 0.1397470616
H   H53       1.0  0.39940  0.95600  0.90270  1.0000 0.128856104
H   H54       1.0  0.60060  0.45600  0.59730  1.0000 0.128856104
H   H55       1.0  0.60060  0.04400  0.09730  1.0000 0.128856104
H   H56       1.0  0.39940  0.54400  0.40270  1.0000 0.128856104
H   H57       1.0  0.54200  0.02660  0.92380  1.0000 0.128856104
H   H58       1.0  0.45800  0.52660  0.57620  1.0000 0.128856104
H   H59       1.0  0.45800  0.97340  0.07620  1.0000 0.128856104
H   H60       1.0  0.54200  0.47340  0.42380  1.0000 0.128856104
H   H61       1.0  0.46330  0.96750  0.83650  1.0000 0.1467803705
H   H62       1.0  0.53670  0.46750  0.66350  1.0000 0.1467803705
H   H63       1.0  0.53670  0.03250  0.16350  1.0000 0.1467803705
H   H64       1.0  0.46330  0.53250  0.33650  1.0000 0.1467803705
C   C1        1.0  0.35390  0.35770  0.19410  1.0000 -0.1905962911
C   C2        1.0  0.64610  0.85770  0.30590  1.0000 -0.1905962911
C   C3        1.0  0.64610  0.64230  0.80590  1.0000 -0.1905962911
C   C4        1.0  0.35390  0.14230  0.69410  1.0000 -0.1905962911
C   C5        1.0  0.28760  0.42710  0.11850  1.0000 -0.1239924331
C   C6        1.0  0.71240  0.92710  0.38150  1.0000 -0.1239924331
C   C7        1.0  0.71240  0.57290  0.88150  1.0000 -0.1239924331
C   C8        1.0  0.28760  0.07290  0.61850  1.0000 -0.1239924331
C   C9        1.0  0.16880  0.49610  0.12250  1.0000 -0.1825279865
C   C10       1.0  0.83120  0.99610  0.37750  1.0000 -0.1825279865
C   C11       1.0  0.83120  0.50390  0.87750  1.0000 -0.1825279865
C   C12       1.0  0.16880  0.00390  0.62250  1.0000 -0.1825279865
C   C13       1.0  0.03500  0.44250  0.12710  1.0000 -0.1083543731
C   C14       1.0  0.96500  0.94250  0.37290  1.0000 -0.1083543731
C   C15       1.0  0.96500  0.55750  0.87290  1.0000 -0.1083543731
C   C16       1.0  0.03500  0.05750  0.62710  1.0000 -0.1083543731
C   C17       1.0  0.09990  0.37300  0.20290  1.0000 -0.1905962911
C   C18       1.0  0.90010  0.87300  0.29710  1.0000 -0.1905962911
C   C19       1.0  0.90010  0.62700  0.79710  1.0000 -0.1905962911
C   C20       1.0  0.09990  0.12700  0.70290  1.0000 -0.1905962911
C   C21       1.0  0.21850  0.30290  0.19970  1.0000 -0.1083543731
C   C22       1.0  0.78150  0.80290  0.30030  1.0000 -0.1083543731
C   C23       1.0  0.78150  0.69710  0.80030  1.0000 -0.1083543731
C   C24       1.0  0.21850  0.19710  0.69970  1.0000 -0.1083543731
C   C25       1.0  0.41880  0.48160  0.11200  1.0000 0.6082654659
C   C26       1.0  0.58120  0.98160  0.38800  1.0000 0.6082654659
C   C27       1.0  0.58120  0.51840  0.88800  1.0000 0.6082654659
C   C28       1.0  0.41880  0.01840  0.61200  1.0000 0.6082654659
C   C29       1.0  0.90360  0.50860  0.12250  1.0000 0.5595849816
C   C30       1.0  0.09640  0.00860  0.37750  1.0000 0.5595849816
C   C31       1.0  0.09640  0.49140  0.87750  1.0000 0.5595849816
C   C32       1.0  0.90360  0.99140  0.62250  1.0000 0.5595849816
C   C33       1.0  0.27840  0.23470  0.27520  1.0000 0.5595849816
C   C34       1.0  0.72160  0.73470  0.22480  1.0000 0.5595849816
C   C35       1.0  0.72160  0.76530  0.72480  1.0000 0.5595849816
C   C36       1.0  0.27840  0.26530  0.77520  1.0000 0.5595849816
C   C37       1.0  0.57990  0.81580  0.98010  1.0000 0.2991245229
C   C38       1.0  0.42010  0.31580  0.51990  1.0000 0.2991245229
C   C39       1.0  0.42010  0.18420  0.01990  1.0000 0.2991245229
C   C40       1.0  0.57990  0.68420  0.48010  1.0000 0.2991245229
C   C41       1.0  0.75110  0.89310  0.93620  1.0000 -0.298002736
C   C42       1.0  0.24890  0.39310  0.56380  1.0000 -0.298002736
C   C43       1.0  0.24890  0.10690  0.06380  1.0000 -0.298002736
C   C44       1.0  0.75110  0.60690  0.43620  1.0000 -0.298002736
C   C45       1.0  0.49320  0.96620  0.89720  1.0000 -0.3474099945
C   C46       1.0  0.50680  0.46620  0.60280  1.0000 -0.3474099945
C   C47       1.0  0.50680  0.03380  0.10280  1.0000 -0.3474099945
C   C48       1.0  0.49320  0.53380  0.39720  1.0000 -0.3474099945
N   N1        1.0  0.60730  0.88750  0.94070  1.0000 0.023226355
N   N2        1.0  0.39270  0.38750  0.55930  1.0000 0.023226355
N   N3        1.0  0.39270  0.11250  0.05930  1.0000 0.023226355
N   N4        1.0  0.60730  0.61250  0.44070  1.0000 0.023226355
O   O1        1.0  0.44290  0.46280  0.04850  1.0000 -0.6551774081
O   O2        1.0  0.55710  0.96280  0.45150  1.0000 -0.6551774081
O   O3        1.0  0.55710  0.53720  0.95150  1.0000 -0.6551774081
O   O4        1.0  0.44290  0.03720  0.54850  1.0000 -0.6551774081
O   O5        1.0  0.36090  0.66530  0.98940  1.0000 -0.3829624366
O   O6        1.0  0.63910  0.16530  0.51060  1.0000 -0.3829624366
O   O7        1.0  0.63910  0.33470  0.01060  1.0000 -0.3829624366
O   O8        1.0  0.36090  0.83470  0.48940  1.0000 -0.3829624366
O   O9        1.0  0.49940  0.54490  0.16490  1.0000 -0.5598331254
O   O10       1.0  0.50060  0.04490  0.33510  1.0000 -0.5598331254
O   O11       1.0  0.50060  0.45510  0.83510  1.0000 -0.5598331254
O   O12       1.0  0.49940  0.95510  0.66490  1.0000 -0.5598331254
O   O13       1.0  0.79480  0.46980  0.13480  1.0000 -0.5598331254
O   O14       1.0  0.20520  0.96980  0.36520  1.0000 -0.5598331254
O   O15       1.0  0.20520  0.53020  0.86520  1.0000 -0.5598331254
O   O16       1.0  0.79480  0.03020  0.63480  1.0000 -0.5598331254
O   O17       1.0  0.89550  0.59470  0.10110  1.0000 -0.5917161491
O   O18       1.0  0.10450  0.09470  0.39890  1.0000 -0.5917161491
O   O19       1.0  0.10450  0.40530  0.89890  1.0000 -0.5917161491
O   O20       1.0  0.89550  0.90530  0.60110  1.0000 -0.5917161491
O   O21       1.0  0.19130  0.16330  0.26960  1.0000 -0.6120185193
O   O22       1.0  0.80870  0.66330  0.23040  1.0000 -0.6120185193
O   O23       1.0  0.80870  0.83670  0.73040  1.0000 -0.6120185193
O   O24       1.0  0.19130  0.33670  0.76960  1.0000 -0.6120185193
O   O25       1.0  0.40790  0.24890  0.34280  1.0000 -0.5775678988
O   O26       1.0  0.59210  0.74890  0.15720  1.0000 -0.5775678988
O   O27       1.0  0.59210  0.75110  0.65720  1.0000 -0.5775678988
O   O28       1.0  0.40790  0.25110  0.84280  1.0000 -0.5775678988
O   O29       1.0  0.66610  0.74780  0.01550  1.0000 -0.4799496766
O   O30       1.0  0.33390  0.24780  0.48450  1.0000 -0.4799496766
O   O31       1.0  0.33390  0.25220  0.98450  1.0000 -0.4799496766
O   O32       1.0  0.66610  0.75220  0.51550  1.0000 -0.4799496766
