# DDEC6 charges by PACMAN v1.1 (https://github.com/mtap-research/PACMAN-charge/)
data_2008[Cd][dia]3[FSR]2
_chemical_formula_sum              "Cd4 H8 C16 O36"
_cell_length_a       9.6172
_cell_length_b       11.7826
_cell_length_c       14.3177
_cell_angle_alpha    90
_cell_angle_beta     122.225
_cell_angle_gamma    90

_symmetry_space_group_name_H-M    "P 1"
_symmetry_Int_Tables_number       1

loop_
  _symmetry_equiv_pos_as_xyz
  'x, y, z'

loop_
  _atom_site_type_symbol
  _atom_site_label
  _atom_site_symmetry_multiplicity
  _atom_site_fract_x
  _atom_site_fract_y
  _atom_site_fract_z
  _atom_site_occupancy
  _atom_site_charge
Cd  Cd1       1.0  0.61604  0.98248  0.82941  1.0000 1.1097470172
Cd  Cd2       1.0  0.38396  0.48248  0.67059  1.0000 1.1097470172
Cd  Cd3       1.0  0.38396  0.01752  0.17059  1.0000 1.1097470172
Cd  Cd4       1.0  0.61604  0.51752  0.32941  1.0000 1.1097470172
H   H1        1.0  0.54640  0.93200  0.60040  1.0000 0.3754089026
H   H2        1.0  0.45360  0.43200  0.89960  1.0000 0.3754089026
H   H3        1.0  0.45360  0.06800  0.39960  1.0000 0.3714888402
H   H4        1.0  0.54640  0.56800  0.10040  1.0000 0.3754089026
H   H5        1.0  0.61910  0.03500  0.62610  1.0000 0.3714888402
H   H6        1.0  0.38090  0.53500  0.87390  1.0000 0.3714888402
H   H7        1.0  0.38090  0.96500  0.37390  1.0000 0.3714888402
H   H8        1.0  0.61910  0.46500  0.12610  1.0000 0.3714888402
C   C1        1.0  0.58210  0.25150  0.78240  1.0000 0.510510691
C   C2        1.0  0.41790  0.75150  0.71760  1.0000 0.510510691
C   C3        1.0  0.41790  0.74850  0.21760  1.0000 0.510510691
C   C4        1.0  0.58210  0.24850  0.28240  1.0000 0.510510691
C   C5        1.0  0.40510  0.20870  0.70470  1.0000 0.510510691
C   C6        1.0  0.59490  0.70870  0.79530  1.0000 0.510510691
C   C7        1.0  0.59490  0.79130  0.29530  1.0000 0.510510691
C   C8        1.0  0.40510  0.29130  0.20470  1.0000 0.510510691
C   C9        1.0  0.49540  0.93440  0.00120  1.0000 0.510510691
C   C10       1.0  0.50460  0.43440  0.49880  1.0000 0.510510691
C   C11       1.0  0.50460  0.06560  0.99880  1.0000 0.510510691
C   C12       1.0  0.49540  0.56560  0.50120  1.0000 0.510510691
C   C13       1.0  0.01610  0.99930  0.95290  1.0000 0.510510691
C   C14       1.0  0.98390  0.49930  0.54710  1.0000 0.510510691
C   C15       1.0  0.98390  0.00070  0.04710  1.0000 0.510510691
C   C16       1.0  0.01610  0.50070  0.45290  1.0000 0.510510691
O   O1        1.0  0.38350  0.10350  0.69660  1.0000 -0.4290083866
O   O2        1.0  0.61650  0.60350  0.80340  1.0000 -0.4290083866
O   O3        1.0  0.61650  0.89650  0.30340  1.0000 -0.4290083866
O   O4        1.0  0.38350  0.39650  0.19660  1.0000 -0.4290083866
O   O5        1.0  0.29530  0.28280  0.65640  1.0000 -0.4290083866
O   O6        1.0  0.70470  0.78280  0.84360  1.0000 -0.4290083866
O   O7        1.0  0.70470  0.71720  0.34360  1.0000 -0.4290083866
O   O8        1.0  0.29530  0.21720  0.15640  1.0000 -0.4290083866
O   O9        1.0  0.60260  0.35620  0.79690  1.0000 -0.4105441175
O   O10       1.0  0.39740  0.85620  0.70310  1.0000 -0.4105441175
O   O11       1.0  0.39740  0.64380  0.20310  1.0000 -0.4105441175
O   O12       1.0  0.60260  0.14380  0.29690  1.0000 -0.4105441175
O   O13       1.0  0.69430  0.17900  0.82620  1.0000 -0.4290083866
O   O14       1.0  0.30570  0.67900  0.67380  1.0000 -0.4290083866
O   O15       1.0  0.30570  0.82100  0.17380  1.0000 -0.4290083866
O   O16       1.0  0.69430  0.32100  0.32620  1.0000 -0.4290083866
O   O17       1.0  0.89270  0.98410  0.85720  1.0000 -0.4019840485
O   O18       1.0  0.10730  0.48410  0.64280  1.0000 -0.4019840485
O   O19       1.0  0.10730  0.01590  0.14280  1.0000 -0.4019840485
O   O20       1.0  0.89270  0.51590  0.35720  1.0000 -0.4019840485
O   O21       1.0  0.15970  0.01300  0.97690  1.0000 -0.4105441175
O   O22       1.0  0.84030  0.51300  0.52310  1.0000 -0.4105441175
O   O23       1.0  0.84030  0.98700  0.02310  1.0000 -0.4105441175
O   O24       1.0  0.15970  0.48700  0.47690  1.0000 -0.4105441175
O   O25       1.0  0.51400  0.88120  0.93270  1.0000 -0.4290083866
O   O26       1.0  0.48600  0.38120  0.56730  1.0000 -0.4290083866
O   O27       1.0  0.48600  0.11880  0.06730  1.0000 -0.4290083866
O   O28       1.0  0.51400  0.61880  0.43270  1.0000 -0.4290083866
O   O29       1.0  0.46860  0.89230  0.06880  1.0000 -0.4105441175
O   O30       1.0  0.53140  0.39230  0.43120  1.0000 -0.4105441175
O   O31       1.0  0.53140  0.10770  0.93120  1.0000 -0.4105441175
O   O32       1.0  0.46860  0.60770  0.56880  1.0000 -0.4105441175
O   O33       1.0  0.60870  0.97490  0.65200  1.0000 -0.5480575613
O   O34       1.0  0.39130  0.47490  0.84800  1.0000 -0.5480575613
O   O35       1.0  0.39130  0.02510  0.34800  1.0000 -0.5480575613
O   O36       1.0  0.60870  0.52510  0.15200  1.0000 -0.5480575613
