# DDEC6 charges by PACMAN v1.1 (https://github.com/mtap-research/PACMAN-charge/)
data_2008[Al][bpq]3[FSR]1
_chemical_formula_sum              "Al4 H20 C32 O20"
_cell_length_a       6.5844
_cell_length_b       12.262
_cell_length_c       17.019
_cell_angle_alpha    90
_cell_angle_beta     90
_cell_angle_gamma    90

_symmetry_space_group_name_H-M    "P 1"
_symmetry_Int_Tables_number       1

loop_
  _symmetry_equiv_pos_as_xyz
  'x, y, z'

loop_
  _atom_site_type_symbol
  _atom_site_label
  _atom_site_symmetry_multiplicity
  _atom_site_fract_x
  _atom_site_fract_y
  _atom_site_fract_z
  _atom_site_occupancy
  _atom_site_charge
Al  Al1       1.0  0.00000  0.00000  0.00000  1.0000 1.6178138964
Al  Al2       1.0  0.00000  0.50000  0.50000  1.0000 1.6178138964
Al  Al3       1.0  0.50000  0.00000  0.00000  1.0000 1.6178138964
Al  Al4       1.0  0.50000  0.50000  0.50000  1.0000 1.6178138964
H   H1        1.0  0.75000  0.12840  0.01700  1.0000 0.4316645824
H   H2        1.0  0.25000  0.62840  0.48300  1.0000 0.4316645824
H   H3        1.0  0.25000  0.87160  0.98300  1.0000 0.4316645824
H   H4        1.0  0.75000  0.37160  0.51700  1.0000 0.4316645824
H   H5        1.0  0.05400  0.68000  0.29660  1.0000 0.1180649609
H   H6        1.0  0.94600  0.18000  0.20340  1.0000 0.1180649609
H   H7        1.0  0.55400  0.32000  0.70340  1.0000 0.1180649609
H   H8        1.0  0.44600  0.82000  0.79660  1.0000 0.1180649609
H   H9        1.0  0.94600  0.32000  0.70340  1.0000 0.1180649609
H   H10       1.0  0.05400  0.82000  0.79660  1.0000 0.1180649609
H   H11       1.0  0.44600  0.68000  0.29660  1.0000 0.1180649609
H   H12       1.0  0.55400  0.18000  0.20340  1.0000 0.1180649609
H   H13       1.0  0.05410  0.78250  0.18230  1.0000 0.1180649609
H   H14       1.0  0.94590  0.28250  0.31770  1.0000 0.1180649609
H   H15       1.0  0.55410  0.21750  0.81770  1.0000 0.1180649609
H   H16       1.0  0.44590  0.71750  0.68230  1.0000 0.1180649609
H   H17       1.0  0.94590  0.21750  0.81770  1.0000 0.1180649609
H   H18       1.0  0.05410  0.71750  0.68230  1.0000 0.1180649609
H   H19       1.0  0.44590  0.78250  0.18230  1.0000 0.1180649609
H   H20       1.0  0.55410  0.28250  0.31770  1.0000 0.1180649609
C   C1        1.0  0.75000  0.60990  0.38409  1.0000 0.6368350896
C   C2        1.0  0.25000  0.10990  0.11591  1.0000 0.6368350896
C   C3        1.0  0.25000  0.39010  0.61591  1.0000 0.6368350896
C   C4        1.0  0.75000  0.89010  0.88409  1.0000 0.6368350896
C   C5        1.0  0.75000  0.67230  0.30865  1.0000 -0.0372119324
C   C6        1.0  0.25000  0.17230  0.19135  1.0000 -0.0372119324
C   C7        1.0  0.25000  0.32770  0.69135  1.0000 -0.0372119324
C   C8        1.0  0.75000  0.82770  0.80865  1.0000 -0.0372119324
C   C9        1.0  0.93170  0.70130  0.27391  1.0000 -0.098095519
C   C10       1.0  0.06830  0.20130  0.22609  1.0000 -0.098095519
C   C11       1.0  0.43170  0.29870  0.72609  1.0000 -0.098095519
C   C12       1.0  0.56830  0.79870  0.77391  1.0000 -0.098095519
C   C13       1.0  0.06830  0.29870  0.72609  1.0000 -0.098095519
C   C14       1.0  0.93170  0.79870  0.77391  1.0000 -0.098095519
C   C15       1.0  0.56830  0.70130  0.27391  1.0000 -0.098095519
C   C16       1.0  0.43170  0.20130  0.22609  1.0000 -0.098095519
C   C17       1.0  0.75000  0.86290  0.09934  1.0000 0.6368350896
C   C18       1.0  0.25000  0.36290  0.40066  1.0000 0.6345329397
C   C19       1.0  0.25000  0.13710  0.90066  1.0000 0.6368350896
C   C20       1.0  0.75000  0.63710  0.59934  1.0000 0.6345329397
C   C21       1.0  0.75000  0.79230  0.17087  1.0000 -0.0372119324
C   C22       1.0  0.25000  0.29230  0.32913  1.0000 -0.0372119324
C   C23       1.0  0.25000  0.20770  0.82913  1.0000 -0.0372119324
C   C24       1.0  0.75000  0.70770  0.67087  1.0000 -0.0372119324
C   C25       1.0  0.93180  0.76200  0.20527  1.0000 -0.098095519
C   C26       1.0  0.06820  0.26200  0.29473  1.0000 -0.098095519
C   C27       1.0  0.43180  0.23800  0.79473  1.0000 -0.098095519
C   C28       1.0  0.56820  0.73800  0.70527  1.0000 -0.098095519
C   C29       1.0  0.06820  0.23800  0.79473  1.0000 -0.098095519
C   C30       1.0  0.93180  0.73800  0.70527  1.0000 -0.098095519
C   C31       1.0  0.56820  0.76200  0.20527  1.0000 -0.098095519
C   C32       1.0  0.43180  0.26200  0.29473  1.0000 -0.098095519
O   O1        1.0  0.75000  0.06418  0.00511  1.0000 -0.9590072073
O   O2        1.0  0.25000  0.56418  0.49489  1.0000 -0.9590072073
O   O3        1.0  0.25000  0.93582  0.99489  1.0000 -0.9590072073
O   O4        1.0  0.75000  0.43582  0.50511  1.0000 -0.9590072073
O   O5        1.0  0.92010  0.89083  0.07230  1.0000 -0.5921110696
O   O6        1.0  0.07990  0.39083  0.42770  1.0000 -0.5921110696
O   O7        1.0  0.42010  0.10917  0.92770  1.0000 -0.5921110696
O   O8        1.0  0.57990  0.60917  0.57230  1.0000 -0.5921110696
O   O9        1.0  0.07990  0.10917  0.92770  1.0000 -0.5921110696
O   O10       1.0  0.92010  0.60917  0.57230  1.0000 -0.5921110696
O   O11       1.0  0.57990  0.89083  0.07230  1.0000 -0.5921110696
O   O12       1.0  0.42010  0.39083  0.42770  1.0000 -0.5921110696
O   O13       1.0  0.92020  0.58606  0.41325  1.0000 -0.5921110696
O   O14       1.0  0.07980  0.08606  0.08675  1.0000 -0.5921110696
O   O15       1.0  0.42020  0.41394  0.58675  1.0000 -0.5921110696
O   O16       1.0  0.57980  0.91394  0.91325  1.0000 -0.5921110696
O   O17       1.0  0.07980  0.41394  0.58675  1.0000 -0.5921110696
O   O18       1.0  0.92020  0.91394  0.91325  1.0000 -0.5921110696
O   O19       1.0  0.57980  0.58606  0.41325  1.0000 -0.5921110696
O   O20       1.0  0.42020  0.08606  0.08675  1.0000 -0.5921110696
