# DDEC6 charges by PACMAN v1.1 (https://github.com/mtap-research/PACMAN-charge/)
data_2008[Ni][nan]3[FSR]2
_chemical_formula_sum              "Ni4 H32 C36 N12 O16"
_cell_length_a       14.251
_cell_length_b       14.251
_cell_length_c       7.602
_cell_angle_alpha    78.5297
_cell_angle_beta     101.47
_cell_angle_gamma    82.0477

_symmetry_space_group_name_H-M    "P 1"
_symmetry_Int_Tables_number       1

loop_
  _symmetry_equiv_pos_as_xyz
  'x, y, z'

loop_
  _atom_site_type_symbol
  _atom_site_label
  _atom_site_symmetry_multiplicity
  _atom_site_fract_x
  _atom_site_fract_y
  _atom_site_fract_z
  _atom_site_occupancy
  _atom_site_charge
Ni  Ni1       1.0  0.41057  0.41057  0.75000  1.0000 0.8019853245
Ni  Ni2       1.0  0.58943  0.58943  0.25000  1.0000 0.8019853245
Ni  Ni3       1.0  0.00000  0.00000  0.50000  1.0000 0.7486403298
Ni  Ni4       1.0  0.00000  0.00000  0.00000  1.0000 0.7486403298
H   H1        1.0  0.47830  0.40170  0.07960  1.0000 0.3035151076
H   H2        1.0  0.40170  0.47830  0.42040  1.0000 0.3035151076
H   H3        1.0  0.52170  0.59830  0.92040  1.0000 0.3035151076
H   H4        1.0  0.59830  0.52170  0.57960  1.0000 0.3035151076
H   H5        1.0  0.40680  0.46640  0.05140  1.0000 0.3065682661
H   H6        1.0  0.46640  0.40680  0.44860  1.0000 0.3065682661
H   H7        1.0  0.59320  0.53360  0.94860  1.0000 0.3065682661
H   H8        1.0  0.53360  0.59320  0.55140  1.0000 0.3065682661
H   H9        1.0  0.93680  0.21700  0.95720  1.0000 0.1096123542
H   H10       1.0  0.21700  0.93680  0.54280  1.0000 0.1096123542
H   H11       1.0  0.06320  0.78300  0.04280  1.0000 0.1096123542
H   H12       1.0  0.78300  0.06320  0.45720  1.0000 0.1096123542
H   H13       1.0  0.80170  0.33750  0.90420  1.0000 0.1366638236
H   H14       1.0  0.33750  0.80170  0.59580  1.0000 0.1366638236
H   H15       1.0  0.19830  0.66250  0.09580  1.0000 0.1366638236
H   H16       1.0  0.66250  0.19830  0.40420  1.0000 0.1366638236
H   H17       1.0  0.63210  0.13530  0.86330  1.0000 0.1366638236
H   H18       1.0  0.13530  0.63210  0.63670  1.0000 0.1366638236
H   H19       1.0  0.36790  0.86470  0.13670  1.0000 0.1366638236
H   H20       1.0  0.86470  0.36790  0.36330  1.0000 0.1366638236
H   H21       1.0  0.77170  0.02030  0.91260  1.0000 0.1096123542
H   H22       1.0  0.02030  0.77170  0.58740  1.0000 0.1096123542
H   H23       1.0  0.22830  0.97970  0.08740  1.0000 0.1096123542
H   H24       1.0  0.97970  0.22830  0.41260  1.0000 0.1096123542
H   H25       1.0  0.38250  0.22570  0.62880  1.0000 0.1228244092
H   H26       1.0  0.22570  0.38250  0.87120  1.0000 0.1228244092
H   H27       1.0  0.61750  0.77430  0.37120  1.0000 0.1228244092
H   H28       1.0  0.77430  0.61750  0.12880  1.0000 0.1228244092
H   H29       1.0  0.27600  0.11760  0.62050  1.0000 0.1316352051
H   H30       1.0  0.11760  0.27600  0.87950  1.0000 0.1316352051
H   H31       1.0  0.72400  0.88240  0.37950  1.0000 0.1316352051
H   H32       1.0  0.88240  0.72400  0.12050  1.0000 0.1316352051
C   C1        1.0  0.87530  0.20030  0.93810  1.0000 0.0788177691
C   C2        1.0  0.20030  0.87530  0.56190  1.0000 0.0788177691
C   C3        1.0  0.12470  0.79970  0.06190  1.0000 0.0788177691
C   C4        1.0  0.79970  0.12470  0.43810  1.0000 0.0788177691
C   C5        1.0  0.79400  0.27360  0.90660  1.0000 -0.1571537971
C   C6        1.0  0.27360  0.79400  0.59340  1.0000 -0.1571537971
C   C7        1.0  0.20600  0.72640  0.09340  1.0000 -0.1571537971
C   C8        1.0  0.72640  0.20600  0.40660  1.0000 -0.1571537971
C   C9        1.0  0.70050  0.25030  0.87850  1.0000 0.0271380034
C   C10       1.0  0.25030  0.70050  0.62150  1.0000 0.0271380034
C   C11       1.0  0.29950  0.74970  0.12150  1.0000 0.0271380034
C   C12       1.0  0.74970  0.29950  0.37850  1.0000 0.0271380034
C   C13       1.0  0.69280  0.15360  0.88150  1.0000 -0.1571537971
C   C14       1.0  0.15360  0.69280  0.61850  1.0000 -0.1571537971
C   C15       1.0  0.30720  0.84640  0.11850  1.0000 -0.1571537971
C   C16       1.0  0.84640  0.30720  0.38150  1.0000 -0.1571537971
C   C17       1.0  0.77790  0.08450  0.91250  1.0000 0.0788177691
C   C18       1.0  0.08450  0.77790  0.58750  1.0000 0.0788177691
C   C19       1.0  0.22210  0.91550  0.08750  1.0000 0.0788177691
C   C20       1.0  0.91550  0.22210  0.41250  1.0000 0.0788177691
C   C21       1.0  0.61000  0.33000  0.84170  1.0000 0.558128964
C   C22       1.0  0.33000  0.61000  0.65830  1.0000 0.558128964
C   C23       1.0  0.39000  0.67000  0.15830  1.0000 0.558128964
C   C24       1.0  0.67000  0.39000  0.34170  1.0000 0.558128964
C   C25       1.0  0.32830  0.23650  0.67810  1.0000 0.0908002343
C   C26       1.0  0.23650  0.32830  0.82190  1.0000 0.0908002343
C   C27       1.0  0.67170  0.76350  0.32190  1.0000 0.0908002343
C   C28       1.0  0.76350  0.67170  0.17810  1.0000 0.0908002343
C   C29       1.0  0.26460  0.17020  0.67370  1.0000 -0.1513291288
C   C30       1.0  0.17020  0.26460  0.82630  1.0000 -0.1513291288
C   C31       1.0  0.73540  0.82980  0.32630  1.0000 -0.1513291288
C   C32       1.0  0.82980  0.73540  0.17370  1.0000 -0.1513291288
C   C33       1.0  0.18380  0.18380  0.75000  1.0000 0.0139257584
C   C34       1.0  0.81620  0.81620  0.25000  1.0000 0.0139257584
C   C35       1.0  0.11280  0.11280  0.75000  1.0000 0.558128964
C   C36       1.0  0.88720  0.88720  0.25000  1.0000 0.558128964
N   N1        1.0  0.86851  0.10551  0.94210  1.0000 -0.2195913631
N   N2        1.0  0.10551  0.86851  0.55790  1.0000 -0.2195913631
N   N3        1.0  0.13149  0.89449  0.05790  1.0000 -0.2195913631
N   N4        1.0  0.89449  0.13149  0.44210  1.0000 -0.2195913631
N   N5        1.0  0.31550  0.31550  0.75000  1.0000 -0.2260148365
N   N6        1.0  0.68450  0.68450  0.25000  1.0000 -0.2260148365
N   N7        1.0  0.04750  0.04750  0.25000  1.0000 -0.5038217593
N   N8        1.0  0.95250  0.95250  0.75000  1.0000 -0.5038217593
N   N9        1.0  0.10310  0.10310  0.25000  1.0000 0.427309991
N   N10       1.0  0.89690  0.89690  0.75000  1.0000 0.427309991
N   N11       1.0  0.15680  0.15680  0.25000  1.0000 -0.35321696
N   N12       1.0  0.84320  0.84320  0.75000  1.0000 -0.35321696
O   O1        1.0  0.42122  0.41912  0.02220  1.0000 -0.596221118
O   O2        1.0  0.41912  0.42122  0.47780  1.0000 -0.596221118
O   O3        1.0  0.57878  0.58088  0.97780  1.0000 -0.596221118
O   O4        1.0  0.58088  0.57878  0.52220  1.0000 -0.596221118
O   O5        1.0  0.52882  0.30200  0.82490  1.0000 -0.5330647219
O   O6        1.0  0.30200  0.52882  0.67510  1.0000 -0.5330647219
O   O7        1.0  0.47118  0.69800  0.17510  1.0000 -0.5330647219
O   O8        1.0  0.69800  0.47118  0.32490  1.0000 -0.5330647219
O   O9        1.0  0.62220  0.41800  0.82930  1.0000 -0.5587646056
O   O10       1.0  0.41800  0.62220  0.67070  1.0000 -0.5587646056
O   O11       1.0  0.37780  0.58200  0.17070  1.0000 -0.5587646056
O   O12       1.0  0.58200  0.37780  0.32930  1.0000 -0.5587646056
O   O13       1.0  0.10969  0.06341  0.62790  1.0000 -0.5509879578
O   O14       1.0  0.06341  0.10969  0.87210  1.0000 -0.5509879578
O   O15       1.0  0.89031  0.93659  0.37210  1.0000 -0.5509879578
O   O16       1.0  0.93659  0.89031  0.12790  1.0000 -0.5509879578
