# DDEC6 charges by PACMAN v1.1 (https://github.com/mtap-research/PACMAN-charge/)
data_2008[Ni][mot]3[FSR]1
_chemical_formula_sum              "Ni4 H52 C78 N8 O20 F12"
_cell_length_a       8.1984
_cell_length_b       11.307
_cell_length_c       24.094
_cell_angle_alpha    90
_cell_angle_beta     90
_cell_angle_gamma    90

_symmetry_space_group_name_H-M    "P 1"
_symmetry_Int_Tables_number       1

loop_
  _symmetry_equiv_pos_as_xyz
  'x, y, z'

loop_
  _atom_site_type_symbol
  _atom_site_label
  _atom_site_symmetry_multiplicity
  _atom_site_fract_x
  _atom_site_fract_y
  _atom_site_fract_z
  _atom_site_occupancy
  _atom_site_charge
Ni  Ni1       1.0  0.09066  0.47060  0.18500  1.0000 0.7966493799
Ni  Ni2       1.0  0.90934  0.47060  0.81500  1.0000 0.7966493799
Ni  Ni3       1.0  0.59066  0.52940  0.31500  1.0000 0.7966493799
Ni  Ni4       1.0  0.40934  0.52940  0.68500  1.0000 0.7966493799
H   H1        1.0  0.59970  0.74290  0.18120  1.0000 0.1099912609
H   H2        1.0  0.40030  0.74290  0.81880  1.0000 0.1099912609
H   H3        1.0  0.09970  0.25710  0.31880  1.0000 0.1099912609
H   H4        1.0  0.90030  0.25710  0.68120  1.0000 0.1099912609
H   H5        1.0  0.62360  0.86460  0.10510  1.0000 0.1099912609
H   H6        1.0  0.37640  0.86460  0.89490  1.0000 0.1099912609
H   H7        1.0  0.12360  0.13540  0.39490  1.0000 0.1099912609
H   H8        1.0  0.87640  0.13540  0.60510  1.0000 0.1099912609
H   H9        1.0  0.34300  0.64000  0.01790  1.0000 0.1316825682
H   H10       1.0  0.65700  0.64000  0.98210  1.0000 0.1316825682
H   H11       1.0  0.84300  0.36000  0.48210  1.0000 0.1316825682
H   H12       1.0  0.15700  0.36000  0.51790  1.0000 0.1316825682
H   H13       1.0  0.28770  0.26220  0.23000  1.0000 0.1175897403
H   H14       1.0  0.71230  0.26220  0.77000  1.0000 0.1175897403
H   H15       1.0  0.78770  0.73780  0.27000  1.0000 0.1175897403
H   H16       1.0  0.21230  0.73780  0.73000  1.0000 0.1175897403
H   H17       1.0  0.29220  0.06100  0.23160  1.0000 0.1316825682
H   H18       1.0  0.70780  0.06100  0.76840  1.0000 0.1316825682
H   H19       1.0  0.79220  0.93900  0.26840  1.0000 0.1316825682
H   H20       1.0  0.20780  0.93900  0.73160  1.0000 0.1316825682
H   H21       1.0  0.90930  0.06110  0.12860  1.0000 0.1364548525
H   H22       1.0  0.09070  0.06110  0.87140  1.0000 0.1364548525
H   H23       1.0  0.40930  0.93890  0.37140  1.0000 0.1364548525
H   H24       1.0  0.59070  0.93890  0.62860  1.0000 0.1364548525
H   H25       1.0  0.91540  0.26320  0.13020  1.0000 0.1175897403
H   H26       1.0  0.08460  0.26320  0.86980  1.0000 0.1175897403
H   H27       1.0  0.41540  0.73680  0.36980  1.0000 0.1175897403
H   H28       1.0  0.58460  0.73680  0.63020  1.0000 0.1175897403
H   H29       1.0  0.17910  0.88180  0.26100  1.0000 0.1316825682
H   H30       1.0  0.82090  0.88180  0.73900  1.0000 0.1316825682
H   H31       1.0  0.67910  0.11820  0.23900  1.0000 0.1316825682
H   H32       1.0  0.32090  0.11820  0.76100  1.0000 0.1316825682
H   H33       1.0  0.16820  0.67940  0.26210  1.0000 0.1099912609
H   H34       1.0  0.83180  0.67940  0.73790  1.0000 0.1099912609
H   H35       1.0  0.66820  0.32060  0.23790  1.0000 0.1099912609
H   H36       1.0  0.33180  0.32060  0.76210  1.0000 0.1099912609
H   H37       1.0  0.99050  0.67340  0.11210  1.0000 0.1175897403
H   H38       1.0  0.00950  0.67340  0.88790  1.0000 0.1175897403
H   H39       1.0  0.49050  0.32660  0.38790  1.0000 0.1175897403
H   H40       1.0  0.50950  0.32660  0.61210  1.0000 0.1175897403
H   H41       1.0  0.99870  0.87460  0.10690  1.0000 0.1364548525
H   H42       1.0  0.00130  0.87460  0.89310  1.0000 0.1364548525
H   H43       1.0  0.49870  0.12540  0.39310  1.0000 0.1364548525
H   H44       1.0  0.50130  0.12540  0.60690  1.0000 0.1364548525
H   H45       1.0  0.79260  0.45870  0.14220  1.0000 0.3323009445
H   H46       1.0  0.20740  0.45870  0.85780  1.0000 0.3323009445
H   H47       1.0  0.29260  0.54130  0.35780  1.0000 0.3323009445
H   H48       1.0  0.70740  0.54130  0.64220  1.0000 0.3323009445
H   H49       1.0  0.78490  0.49770  0.19510  1.0000 0.3446313276
H   H50       1.0  0.21510  0.49770  0.80490  1.0000 0.3446313276
H   H51       1.0  0.28490  0.50230  0.30490  1.0000 0.3446313276
H   H52       1.0  0.71510  0.50230  0.69510  1.0000 0.3446313276
C   C1        1.0  0.38130  0.58720  0.09700  1.0000 -0.0056263169
C   C2        1.0  0.61870  0.58720  0.90300  1.0000 -0.0056263169
C   C3        1.0  0.88130  0.41280  0.40300  1.0000 -0.0056263169
C   C4        1.0  0.11870  0.41280  0.59700  1.0000 -0.0056263169
C   C5        1.0  0.46000  0.61720  0.14616  1.0000 -0.0734627412
C   C6        1.0  0.54000  0.61720  0.85384  1.0000 -0.0734627412
C   C7        1.0  0.96000  0.38280  0.35384  1.0000 -0.0734627412
C   C8        1.0  0.04000  0.38280  0.64616  1.0000 -0.0734627412
C   C9        1.0  0.54880  0.72170  0.14822  1.0000 -0.1065159307
C   C10       1.0  0.45120  0.72170  0.85178  1.0000 -0.1065159307
C   C11       1.0  0.04880  0.27830  0.35178  1.0000 -0.1065159307
C   C12       1.0  0.95120  0.27830  0.64822  1.0000 -0.1065159307
C   C13       1.0  0.56380  0.79490  0.10271  1.0000 -0.1794926796
C   C14       1.0  0.43620  0.79490  0.89729  1.0000 -0.1794926796
C   C15       1.0  0.06380  0.20510  0.39729  1.0000 -0.1794926796
C   C16       1.0  0.93620  0.20510  0.60271  1.0000 -0.1746057586
C   C17       1.0  0.48780  0.76320  0.05276  1.0000 0.0888458809
C   C18       1.0  0.51220  0.76320  0.94724  1.0000 0.0888458809
C   C19       1.0  0.98780  0.23680  0.44724  1.0000 0.0888458809
C   C20       1.0  0.01220  0.23680  0.55276  1.0000 0.0888458809
C   C21       1.0  0.39580  0.66040  0.05068  1.0000 -0.1610119769
C   C22       1.0  0.60420  0.66040  0.94932  1.0000 -0.1610119769
C   C23       1.0  0.89580  0.33960  0.44932  1.0000 -0.1610119769
C   C24       1.0  0.10420  0.33960  0.55068  1.0000 -0.1610119769
C   C25       1.0  0.28970  0.47120  0.08900  1.0000 0.5623201563
C   C26       1.0  0.71030  0.47120  0.91100  1.0000 0.5623201563
C   C27       1.0  0.78970  0.52880  0.41100  1.0000 0.5623201563
C   C28       1.0  0.21030  0.52880  0.58900  1.0000 0.5623201563
C   C29       1.0  0.45210  0.54060  0.19746  1.0000 0.5740874244
C   C30       1.0  0.54790  0.54060  0.80254  1.0000 0.5740874244
C   C31       1.0  0.95210  0.45940  0.30254  1.0000 0.5740874244
C   C32       1.0  0.04790  0.45940  0.69746  1.0000 0.5740874244
C   C33       1.0  0.50000  0.84140  0.00000  1.0000 -0.2736598866
C   C34       1.0  0.00000  0.15860  0.50000  1.0000 -0.2736598866
C   C35       1.0  0.34420  0.91930  0.99990  1.0000 0.6693166329
C   C36       1.0  0.65580  0.91930  0.00010  1.0000 0.6693166329
C   C37       1.0  0.84420  0.08070  0.50010  1.0000 0.6693166329
C   C38       1.0  0.15580  0.08070  0.49990  1.0000 0.6693166329
C   C39       1.0  0.20970  0.22110  0.20958  1.0000 0.0975113942
C   C40       1.0  0.79030  0.22110  0.79042  1.0000 0.0975113942
C   C41       1.0  0.70970  0.77890  0.29042  1.0000 0.0975113942
C   C42       1.0  0.29030  0.77890  0.70958  1.0000 0.0975113942
C   C43       1.0  0.21300  0.10010  0.21097  1.0000 -0.1986271152
C   C44       1.0  0.78700  0.10010  0.78903  1.0000 -0.1986271152
C   C45       1.0  0.71300  0.89990  0.28903  1.0000 -0.1986271152
C   C46       1.0  0.28700  0.89990  0.71097  1.0000 -0.1986271152
C   C47       1.0  0.09730  0.03560  0.18129  1.0000 0.1099912609
C   C48       1.0  0.90270  0.03560  0.81871  1.0000 0.1099912609
C   C49       1.0  0.59730  0.96440  0.31871  1.0000 0.1099912609
C   C50       1.0  0.40270  0.96440  0.68129  1.0000 0.1099912609
C   C51       1.0  0.98680  0.09990  0.15010  1.0000 -0.1862863319
C   C52       1.0  0.01320  0.09990  0.84990  1.0000 -0.1862863319
C   C53       1.0  0.48680  0.90010  0.34990  1.0000 -0.1862863319
C   C54       1.0  0.51320  0.90010  0.65010  1.0000 -0.1862863319
C   C55       1.0  0.99180  0.22180  0.15110  1.0000 0.0888458809
C   C56       1.0  0.00820  0.22180  0.84890  1.0000 0.0888458809
C   C57       1.0  0.49180  0.77820  0.34890  1.0000 0.0888458809
C   C58       1.0  0.50820  0.77820  0.65110  1.0000 0.0888458809
C   C59       1.0  0.09260  0.90410  0.18309  1.0000 0.1099912609
C   C60       1.0  0.90740  0.90410  0.81691  1.0000 0.1099912609
C   C61       1.0  0.59260  0.09590  0.31691  1.0000 0.1099912609
C   C62       1.0  0.40740  0.09590  0.68309  1.0000 0.1099912609
C   C63       1.0  0.14150  0.84140  0.22989  1.0000 -0.1986271152
C   C64       1.0  0.85850  0.84140  0.77011  1.0000 -0.1986271152
C   C65       1.0  0.64150  0.15860  0.27011  1.0000 -0.1986271152
C   C66       1.0  0.35850  0.15860  0.72989  1.0000 -0.1986271152
C   C67       1.0  0.13460  0.71920  0.23035  1.0000 0.0888458809
C   C68       1.0  0.86540  0.71920  0.76965  1.0000 0.0888458809
C   C69       1.0  0.63460  0.28080  0.26965  1.0000 0.0888458809
C   C70       1.0  0.36540  0.28080  0.73035  1.0000 0.0888458809
C   C71       1.0  0.03040  0.71590  0.14220  1.0000 0.0888458809
C   C72       1.0  0.96960  0.71590  0.85780  1.0000 0.0888458809
C   C73       1.0  0.53040  0.28410  0.35780  1.0000 0.0888458809
C   C74       1.0  0.46960  0.28410  0.64220  1.0000 0.0888458809
C   C75       1.0  0.03480  0.83700  0.13896  1.0000 -0.1794926796
C   C76       1.0  0.96520  0.83700  0.86104  1.0000 -0.1794926796
C   C77       1.0  0.53480  0.16300  0.36104  1.0000 -0.1794926796
C   C78       1.0  0.46520  0.16300  0.63896  1.0000 -0.1794926796
N   N1        1.0  0.10080  0.28360  0.18062  1.0000 -0.1986271152
N   N2        1.0  0.89920  0.28360  0.81938  1.0000 -0.1986271152
N   N3        1.0  0.60080  0.71640  0.31938  1.0000 -0.1986271152
N   N4        1.0  0.39920  0.71640  0.68062  1.0000 -0.1986271152
N   N5        1.0  0.08170  0.65620  0.18729  1.0000 -0.2356731014
N   N6        1.0  0.91830  0.65620  0.81271  1.0000 -0.2356731014
N   N7        1.0  0.58170  0.34380  0.31271  1.0000 -0.2356731014
N   N8        1.0  0.41830  0.34380  0.68729  1.0000 -0.2356731014
O   O1        1.0  0.36690  0.38810  0.06928  1.0000 -0.5020108836
O   O2        1.0  0.63310  0.38810  0.93072  1.0000 -0.5020108836
O   O3        1.0  0.86690  0.61190  0.43072  1.0000 -0.5020108836
O   O4        1.0  0.13310  0.61190  0.56928  1.0000 -0.5020108836
O   O5        1.0  0.13790  0.47090  0.10078  1.0000 -0.5880580561
O   O6        1.0  0.86210  0.47090  0.89922  1.0000 -0.5880580561
O   O7        1.0  0.63790  0.52910  0.39922  1.0000 -0.5880580561
O   O8        1.0  0.36210  0.52910  0.60078  1.0000 -0.5880580561
O   O9        1.0  0.33540  0.47150  0.20516  1.0000 -0.5393876599
O   O10       1.0  0.66460  0.47150  0.79484  1.0000 -0.5393876599
O   O11       1.0  0.83540  0.52850  0.29484  1.0000 -0.5393876599
O   O12       1.0  0.16460  0.52850  0.70516  1.0000 -0.5393876599
O   O13       1.0  0.57030  0.55180  0.23062  1.0000 -0.5558353828
O   O14       1.0  0.42970  0.55180  0.76938  1.0000 -0.5558353828
O   O15       1.0  0.07030  0.44820  0.26938  1.0000 -0.5558353828
O   O16       1.0  0.92970  0.44820  0.73062  1.0000 -0.5558353828
O   O17       1.0  0.84450  0.46680  0.17109  1.0000 -0.6534506844
O   O18       1.0  0.15550  0.46680  0.82891  1.0000 -0.6534506844
O   O19       1.0  0.34450  0.53320  0.32891  1.0000 -0.6534506844
O   O20       1.0  0.65550  0.53320  0.67109  1.0000 -0.6534506844
F   F1        1.0  0.32450  0.97190  0.04964  1.0000 -0.1986271152
F   F2        1.0  0.67550  0.97190  0.95036  1.0000 -0.1986271152
F   F3        1.0  0.82450  0.02810  0.45036  1.0000 -0.1986271152
F   F4        1.0  0.17550  0.02810  0.54964  1.0000 -0.1986271152
F   F5        1.0  0.21150  0.85690  0.98971  1.0000 -0.1986271152
F   F6        1.0  0.78850  0.85690  0.01029  1.0000 -0.1986271152
F   F7        1.0  0.71150  0.14310  0.51029  1.0000 -0.1986271152
F   F8        1.0  0.28850  0.14310  0.48971  1.0000 -0.1986271152
F   F9        1.0  0.35040  0.00700  0.96271  1.0000 -0.2078355046
F   F10       1.0  0.64960  0.00700  0.03729  1.0000 -0.2078355046
F   F11       1.0  0.85040  0.99300  0.53729  1.0000 -0.2078355046
F   F12       1.0  0.14960  0.99300  0.46271  1.0000 -0.2078355046
