# DDEC6 charges by PACMAN v1.1 (https://github.com/mtap-research/PACMAN-charge/)
data_2008[Cu][bpq]3[FSR]1
_chemical_formula_sum              "Cu4 H32 C40 S4 N24 O28"
_cell_length_a       7.1442
_cell_length_b       17.3114
_cell_length_c       19.4387
_cell_angle_alpha    90
_cell_angle_beta     90
_cell_angle_gamma    90

_symmetry_space_group_name_H-M    "P 1"
_symmetry_Int_Tables_number       1

loop_
  _symmetry_equiv_pos_as_xyz
  'x, y, z'

loop_
  _atom_site_type_symbol
  _atom_site_label
  _atom_site_symmetry_multiplicity
  _atom_site_fract_x
  _atom_site_fract_y
  _atom_site_fract_z
  _atom_site_occupancy
  _atom_site_charge
Cu  Cu1       1.0  0.21540  0.25440  0.75000  1.0000 0.6015505274
Cu  Cu2       1.0  0.28460  0.75440  0.25000  1.0000 0.6015505274
Cu  Cu3       1.0  0.78460  0.74560  0.25000  1.0000 0.6015505274
Cu  Cu4       1.0  0.71540  0.24560  0.75000  1.0000 0.6015505274
H   H1        1.0  0.25490  0.14290  0.62000  1.0000 0.1190777947
H   H2        1.0  0.24510  0.64290  0.38000  1.0000 0.1190777947
H   H3        1.0  0.74510  0.85710  0.12000  1.0000 0.1190777947
H   H4        1.0  0.75490  0.35710  0.88000  1.0000 0.1190777947
H   H5        1.0  0.74510  0.85710  0.38000  1.0000 0.1190777947
H   H6        1.0  0.75490  0.35710  0.62000  1.0000 0.1190777947
H   H7        1.0  0.25490  0.14290  0.88000  1.0000 0.1190777947
H   H8        1.0  0.24510  0.64290  0.12000  1.0000 0.1190777947
H   H9        1.0  0.70260  0.13230  0.61890  1.0000 0.1190777947
H   H10       1.0  0.79740  0.63230  0.38110  1.0000 0.1190777947
H   H11       1.0  0.29740  0.86770  0.11890  1.0000 0.1190777947
H   H12       1.0  0.20260  0.36770  0.88110  1.0000 0.1190777947
H   H13       1.0  0.29740  0.86770  0.38110  1.0000 0.1190777947
H   H14       1.0  0.20260  0.36770  0.61890  1.0000 0.1190777947
H   H15       1.0  0.70260  0.13230  0.88110  1.0000 0.1190777947
H   H16       1.0  0.79740  0.63230  0.11890  1.0000 0.1190777947
H   H17       1.0  0.78130  0.09790  0.48810  1.0000 0.1394873042
H   H18       1.0  0.71870  0.59790  0.51190  1.0000 0.1394873042
H   H19       1.0  0.21870  0.90210  0.98810  1.0000 0.1394873042
H   H20       1.0  0.28130  0.40210  0.01190  1.0000 0.1394873042
H   H21       1.0  0.21870  0.90210  0.51190  1.0000 0.1394873042
H   H22       1.0  0.28130  0.40210  0.48810  1.0000 0.1394873042
H   H23       1.0  0.78130  0.09790  0.01190  1.0000 0.1394873042
H   H24       1.0  0.71870  0.59790  0.98810  1.0000 0.1394873042
H   H25       1.0  0.19850  0.99920  0.59380  1.0000 0.1190777947
H   H26       1.0  0.30150  0.49920  0.40620  1.0000 0.1190777947
H   H27       1.0  0.80150  0.00080  0.09380  1.0000 0.1190777947
H   H28       1.0  0.69850  0.50080  0.90620  1.0000 0.1190777947
H   H29       1.0  0.80150  0.00080  0.40620  1.0000 0.1190777947
H   H30       1.0  0.69850  0.50080  0.59380  1.0000 0.1190777947
H   H31       1.0  0.19850  0.99920  0.90620  1.0000 0.1190777947
H   H32       1.0  0.30150  0.49920  0.09380  1.0000 0.1190777947
C   C1        1.0  0.12960  0.15152  0.63046  1.0000 0.0644967262
C   C2        1.0  0.37040  0.65152  0.36954  1.0000 0.0644967262
C   C3        1.0  0.87040  0.84848  0.13046  1.0000 0.0650220145
C   C4        1.0  0.62960  0.34848  0.86954  1.0000 0.0644967262
C   C5        1.0  0.87040  0.84848  0.36954  1.0000 0.0644967262
C   C6        1.0  0.62960  0.34848  0.63046  1.0000 0.0650220145
C   C7        1.0  0.12960  0.15152  0.86954  1.0000 0.0644967262
C   C8        1.0  0.37040  0.65152  0.13046  1.0000 0.0644967262
C   C9        1.0  0.82510  0.14561  0.62997  1.0000 0.0831449176
C   C10       1.0  0.67490  0.64561  0.37003  1.0000 0.0831449176
C   C11       1.0  0.17490  0.85439  0.12997  1.0000 0.0831449176
C   C12       1.0  0.32510  0.35439  0.87003  1.0000 0.0831449176
C   C13       1.0  0.17490  0.85439  0.37003  1.0000 0.0831449176
C   C14       1.0  0.32510  0.35439  0.62997  1.0000 0.0831449176
C   C15       1.0  0.82510  0.14561  0.87003  1.0000 0.0831449176
C   C16       1.0  0.67490  0.64561  0.12997  1.0000 0.0831449176
C   C17       1.0  0.99020  0.05727  0.54760  1.0000 0.1527786818
C   C18       1.0  0.50980  0.55727  0.45240  1.0000 0.1527786818
C   C19       1.0  0.00980  0.94273  0.04760  1.0000 0.1527786818
C   C20       1.0  0.49020  0.44273  0.95240  1.0000 0.1527786818
C   C21       1.0  0.00980  0.94273  0.45240  1.0000 0.1527786818
C   C22       1.0  0.49020  0.44273  0.54760  1.0000 0.1527786818
C   C23       1.0  0.99020  0.05727  0.95240  1.0000 0.1527786818
C   C24       1.0  0.50980  0.55727  0.04760  1.0000 0.1527786818
C   C25       1.0  0.86920  0.05860  0.49260  1.0000 -0.1383249718
C   C26       1.0  0.63080  0.55860  0.50740  1.0000 -0.1383249718
C   C27       1.0  0.13080  0.94140  0.99260  1.0000 -0.1383249718
C   C28       1.0  0.36920  0.44140  0.00740  1.0000 -0.1383249718
C   C29       1.0  0.13080  0.94140  0.50740  1.0000 -0.1383249718
C   C30       1.0  0.36920  0.44140  0.49260  1.0000 -0.1383249718
C   C31       1.0  0.86920  0.05860  0.00740  1.0000 -0.1383249718
C   C32       1.0  0.63080  0.55860  0.99260  1.0000 -0.1383249718
C   C33       1.0  0.11930  0.99930  0.55580  1.0000 -0.1383249718
C   C34       1.0  0.38070  0.49930  0.44420  1.0000 -0.1383249718
C   C35       1.0  0.88070  0.00070  0.05580  1.0000 -0.1383249718
C   C36       1.0  0.61930  0.50070  0.94420  1.0000 -0.1383249718
C   C37       1.0  0.88070  0.00070  0.44420  1.0000 -0.1383249718
C   C38       1.0  0.61930  0.50070  0.55580  1.0000 -0.1383249718
C   C39       1.0  0.11930  0.99930  0.94420  1.0000 -0.1383249718
C   C40       1.0  0.38070  0.49930  0.05580  1.0000 -0.1383249718
S   S1        1.0  0.46508  0.07183  0.75000  1.0000 0.6593171437
S   S2        1.0  0.03492  0.57183  0.25000  1.0000 0.6593171437
S   S3        1.0  0.53492  0.92817  0.25000  1.0000 0.6593171437
S   S4        1.0  0.96508  0.42817  0.75000  1.0000 0.6593171437
N   N1        1.0  0.06660  0.19876  0.67796  1.0000 -0.2078525121
N   N2        1.0  0.43340  0.69876  0.32204  1.0000 -0.2078525121
N   N3        1.0  0.93340  0.80124  0.17796  1.0000 -0.2078525121
N   N4        1.0  0.56660  0.30124  0.82204  1.0000 -0.2078525121
N   N5        1.0  0.93340  0.80124  0.32204  1.0000 -0.2078525121
N   N6        1.0  0.56660  0.30124  0.67796  1.0000 -0.2078525121
N   N7        1.0  0.06660  0.19876  0.82204  1.0000 -0.2078525121
N   N8        1.0  0.43340  0.69876  0.17796  1.0000 -0.2078525121
N   N9        1.0  0.87460  0.19458  0.67760  1.0000 -0.2023340161
N   N10       1.0  0.62540  0.69458  0.32240  1.0000 -0.2023340161
N   N11       1.0  0.12540  0.80542  0.17760  1.0000 -0.2023340161
N   N12       1.0  0.37460  0.30542  0.82240  1.0000 -0.2023340161
N   N13       1.0  0.12540  0.80542  0.32240  1.0000 -0.2023340161
N   N14       1.0  0.37460  0.30542  0.67760  1.0000 -0.2023340161
N   N15       1.0  0.87460  0.19458  0.82240  1.0000 -0.2023340161
N   N16       1.0  0.62540  0.69458  0.17760  1.0000 -0.2023340161
N   N17       1.0  0.98130  0.11729  0.59919  1.0000 -0.0322369649
N   N18       1.0  0.51870  0.61729  0.40081  1.0000 -0.0322369649
N   N19       1.0  0.01870  0.88271  0.09919  1.0000 -0.0322369649
N   N20       1.0  0.48130  0.38271  0.90081  1.0000 -0.0322369649
N   N21       1.0  0.01870  0.88271  0.40081  1.0000 -0.0322369649
N   N22       1.0  0.48130  0.38271  0.59919  1.0000 -0.0322369649
N   N23       1.0  0.98130  0.11729  0.90081  1.0000 -0.0322369649
N   N24       1.0  0.51870  0.61729  0.09919  1.0000 -0.0322369649
O   O1        1.0  0.46740  0.15749  0.75000  1.0000 -0.654107816
O   O2        1.0  0.03260  0.65749  0.25000  1.0000 -0.654107816
O   O3        1.0  0.53260  0.84251  0.25000  1.0000 -0.654107816
O   O4        1.0  0.96740  0.34251  0.75000  1.0000 -0.654107816
O   O5        1.0  0.29410  0.04110  0.77850  1.0000 -0.0513619506
O   O6        1.0  0.20590  0.54110  0.22150  1.0000 -0.0513619506
O   O7        1.0  0.70590  0.95890  0.27850  1.0000 -0.0513619506
O   O8        1.0  0.79410  0.45890  0.72150  1.0000 -0.0513619506
O   O9        1.0  0.70590  0.95890  0.22150  1.0000 -0.0513619506
O   O10       1.0  0.79410  0.45890  0.77850  1.0000 -0.0513619506
O   O11       1.0  0.29410  0.04110  0.72150  1.0000 -0.0513619506
O   O12       1.0  0.20590  0.54110  0.27850  1.0000 -0.0513619506
O   O13       1.0  0.63010  0.03920  0.78100  1.0000 -0.0913029011
O   O14       1.0  0.86990  0.53920  0.21900  1.0000 -0.0913029011
O   O15       1.0  0.36990  0.96080  0.28100  1.0000 -0.0913029011
O   O16       1.0  0.13010  0.46080  0.71900  1.0000 -0.0913029011
O   O17       1.0  0.36990  0.96080  0.21900  1.0000 -0.0913029011
O   O18       1.0  0.13010  0.46080  0.78100  1.0000 -0.0913029011
O   O19       1.0  0.63010  0.03920  0.71900  1.0000 -0.0913029011
O   O20       1.0  0.86990  0.53920  0.28100  1.0000 -0.0913029011
O   O21       1.0  0.46960  0.05400  0.67340  1.0000 -0.2389139752
O   O22       1.0  0.03040  0.55400  0.32660  1.0000 -0.2389139752
O   O23       1.0  0.53040  0.94600  0.17340  1.0000 -0.2389139752
O   O24       1.0  0.96960  0.44600  0.82660  1.0000 -0.2389139752
O   O25       1.0  0.53040  0.94600  0.32660  1.0000 -0.2389139752
O   O26       1.0  0.96960  0.44600  0.67340  1.0000 -0.2389139752
O   O27       1.0  0.46960  0.05400  0.82660  1.0000 -0.2389139752
O   O28       1.0  0.03040  0.55400  0.17340  1.0000 -0.2389139752
