# DDEC6 charges by PACMAN v1.1 (https://github.com/mtap-research/PACMAN-charge/)
data_2008[Cd][pcu]3[FSR]1
_chemical_formula_sum              "Cd2 H24 C24 N6 O10"
_cell_length_a       9.6427
_cell_length_b       9.9392
_cell_length_c       9.9832
_cell_angle_alpha    86.303
_cell_angle_beta     98.882
_cell_angle_gamma    114.738

_symmetry_space_group_name_H-M    "P 1"
_symmetry_Int_Tables_number       1

loop_
  _symmetry_equiv_pos_as_xyz
  'x, y, z'

loop_
  _atom_site_type_symbol
  _atom_site_label
  _atom_site_symmetry_multiplicity
  _atom_site_fract_x
  _atom_site_fract_y
  _atom_site_fract_z
  _atom_site_occupancy
  _atom_site_charge
Cd  Cd1       1.0  0.04961  0.72492  0.54150  1.0000 0.9375257963
Cd  Cd2       1.0  0.95039  0.27508  0.45850  1.0000 0.9375257963
H   H1        1.0  0.82900  0.99430  0.80520  1.0000 0.1044243598
H   H2        1.0  0.17100  0.00570  0.19480  1.0000 0.1044243598
H   H3        1.0  0.17780  0.89760  0.99760  1.0000 0.1191608364
H   H4        1.0  0.82220  0.10240  0.00240  1.0000 0.1191608364
H   H5        1.0  0.50790  0.65670  0.66970  1.0000 0.1191608364
H   H6        1.0  0.49210  0.34330  0.33030  1.0000 0.1191608364
H   H7        1.0  0.29270  0.41930  0.32570  1.0000 0.1191608364
H   H8        1.0  0.70730  0.58070  0.67430  1.0000 0.1191608364
H   H9        1.0  0.55070  0.44900  0.89460  1.0000 0.1091322054
H   H10       1.0  0.44930  0.55100  0.10540  1.0000 0.1091322054
H   H11       1.0  0.58320  0.41360  0.05190  1.0000 0.1091322054
H   H12       1.0  0.41680  0.58640  0.94810  1.0000 0.1091322054
H   H13       1.0  0.80070  0.61130  0.96870  1.0000 0.1191608364
H   H14       1.0  0.19930  0.38870  0.03130  1.0000 0.1191608364
H   H15       1.0  0.70250  0.70890  0.94580  1.0000 0.1191608364
H   H16       1.0  0.29750  0.29110  0.05420  1.0000 0.1191608364
H   H17       1.0  0.76680  0.83240  0.39360  1.0000 0.1091322054
H   H18       1.0  0.23320  0.16760  0.60640  1.0000 0.1091322054
H   H19       1.0  0.92870  0.59840  0.21670  1.0000 0.1390369745
H   H20       1.0  0.07130  0.40160  0.78330  1.0000 0.1390369745
H   H21       1.0  0.28400  0.96500  0.44700  1.0000 0.3360326463
H   H22       1.0  0.71600  0.03500  0.55300  1.0000 0.3347668523
H   H23       1.0  0.15500  0.99500  0.42400  1.0000 0.3456026638
H   H24       1.0  0.84500  0.00500  0.57600  1.0000 0.3456026638
C   C1        1.0  0.00670  0.86290  0.75430  1.0000 0.5383540863
C   C2        1.0  0.99330  0.13710  0.24570  1.0000 0.5383540863
C   C3        1.0  0.00350  0.93500  0.88080  1.0000 -0.0222498927
C   C4        1.0  0.99650  0.06500  0.11920  1.0000 -0.0222498927
C   C5        1.0  0.89870  0.99650  0.88430  1.0000 -0.1378885036
C   C6        1.0  0.10130  0.00350  0.11570  1.0000 -0.1378885036
C   C7        1.0  0.10540  0.93920  0.99840  1.0000 -0.1096571939
C   C8        1.0  0.89460  0.06080  0.00160  1.0000 -0.1096571939
C   C9        1.0  0.24870  0.58740  0.49600  1.0000 0.5586888069
C   C10       1.0  0.75130  0.41260  0.50400  1.0000 0.5586888069
C   C11       1.0  0.38020  0.54430  0.49650  1.0000 -0.0222498927
C   C12       1.0  0.61980  0.45570  0.50350  1.0000 -0.0222498927
C   C13       1.0  0.50450  0.59310  0.60100  1.0000 -0.1164608872
C   C14       1.0  0.49550  0.40690  0.39900  1.0000 -0.1164608872
C   C15       1.0  0.37720  0.45210  0.39680  1.0000 -0.1096571939
C   C16       1.0  0.62280  0.54790  0.60320  1.0000 -0.1096571939
C   C17       1.0  0.56990  0.48860  0.98730  1.0000 -0.1827365657
C   C18       1.0  0.43010  0.51140  0.01270  1.0000 -0.1827365657
C   C19       1.0  0.71880  0.62980  0.00220  1.0000 -0.1279487027
C   C20       1.0  0.28120  0.37020  0.99780  1.0000 -0.1279487027
C   C21       1.0  0.78330  0.77920  0.32650  1.0000 0.1390369745
C   C22       1.0  0.21670  0.22080  0.67350  1.0000 0.1390369745
C   C23       1.0  0.87290  0.65340  0.23380  1.0000 0.0896656165
C   C24       1.0  0.12710  0.34660  0.76620  1.0000 0.0896656165
N   N1        1.0  0.76910  0.67920  0.14300  1.0000 0.1580700601
N   N2        1.0  0.23090  0.32080  0.85700  1.0000 0.1580700601
N   N3        1.0  0.71030  0.76040  0.20340  1.0000 -0.2544489627
N   N4        1.0  0.28970  0.23960  0.79660  1.0000 -0.2544489627
N   N5        1.0  0.88580  0.71580  0.35060  1.0000 -0.3604216104
N   N6        1.0  0.11420  0.28420  0.64940  1.0000 -0.3604216104
O   O1        1.0  0.93300  0.87720  0.64400  1.0000 -0.5667130476
O   O2        1.0  0.06700  0.12280  0.35600  1.0000 -0.5667130476
O   O3        1.0  0.08450  0.78600  0.76290  1.0000 -0.5298717743
O   O4        1.0  0.91550  0.21400  0.23710  1.0000 -0.5298717743
O   O5        1.0  0.26480  0.68520  0.57890  1.0000 -0.5298717743
O   O6        1.0  0.73520  0.31480  0.42110  1.0000 -0.5298717743
O   O7        1.0  0.12690  0.52560  0.41280  1.0000 -0.5994149422
O   O8        1.0  0.87310  0.47440  0.58720  1.0000 -0.5994149422
O   O9        1.0  0.21620  0.95770  0.47320  1.0000 -0.5994149422
O   O10       1.0  0.78380  0.04230  0.52680  1.0000 -0.5994149422
