# DDEC6 charges by PACMAN v1.1 (https://github.com/mtap-research/PACMAN-charge/)
data_2008[Ni][nan]3[FSR]3
_chemical_formula_sum              "Ni6 H52 C60 N24 O28"
_cell_length_a       13.9111
_cell_length_b       13.5328
_cell_length_c       17.7634
_cell_angle_alpha    90
_cell_angle_beta     111.292
_cell_angle_gamma    90

_symmetry_space_group_name_H-M    "P 1"
_symmetry_Int_Tables_number       1

loop_
  _symmetry_equiv_pos_as_xyz
  'x, y, z'

loop_
  _atom_site_type_symbol
  _atom_site_label
  _atom_site_symmetry_multiplicity
  _atom_site_fract_x
  _atom_site_fract_y
  _atom_site_fract_z
  _atom_site_occupancy
  _atom_site_charge
Ni  Ni1       1.0  0.73855  0.01711  0.92276  1.0000 0.7773850158
Ni  Ni2       1.0  0.26145  0.51711  0.57724  1.0000 0.7773850158
Ni  Ni3       1.0  0.26145  0.98289  0.07724  1.0000 0.7773850158
Ni  Ni4       1.0  0.73855  0.48289  0.42276  1.0000 0.7773850158
Ni  Ni5       1.0  0.00000  0.00000  0.00000  1.0000 0.6619252459
Ni  Ni6       1.0  0.00000  0.50000  0.50000  1.0000 0.6619252459
H   H1        1.0  0.86000  0.13900  0.00210  1.0000 0.3694812254
H   H2        1.0  0.14000  0.63900  0.49790  1.0000 0.3694812254
H   H3        1.0  0.14000  0.86100  0.99790  1.0000 0.3694812254
H   H4        1.0  0.86000  0.36100  0.50210  1.0000 0.3694812254
H   H5        1.0  0.86400  0.13500  0.92300  1.0000 0.3694812254
H   H6        1.0  0.13600  0.63500  0.57700  1.0000 0.3694812254
H   H7        1.0  0.13600  0.86500  0.07700  1.0000 0.3694812254
H   H8        1.0  0.86400  0.36500  0.42300  1.0000 0.3694812254
H   H9        1.0  0.70220  0.88550  0.06850  1.0000 0.1473777638
H   H10       1.0  0.29780  0.38550  0.43150  1.0000 0.1473777638
H   H11       1.0  0.29780  0.11450  0.93150  1.0000 0.1473777638
H   H12       1.0  0.70220  0.61450  0.56850  1.0000 0.1473777638
H   H13       1.0  0.00540  0.85850  0.15820  1.0000 0.1415938408
H   H14       1.0  0.99460  0.35850  0.34180  1.0000 0.1415938408
H   H15       1.0  0.99460  0.14150  0.84180  1.0000 0.1415938408
H   H16       1.0  0.00540  0.64150  0.65820  1.0000 0.1415938408
H   H17       1.0  0.89980  0.82240  0.25820  1.0000 0.1300569267
H   H18       1.0  0.10020  0.32240  0.24180  1.0000 0.1300569267
H   H19       1.0  0.10020  0.17760  0.74180  1.0000 0.1300569267
H   H20       1.0  0.89980  0.67760  0.75820  1.0000 0.1300569267
H   H21       1.0  0.77870  0.81070  0.21350  1.0000 0.1415938408
H   H22       1.0  0.22130  0.31070  0.28650  1.0000 0.1415938408
H   H23       1.0  0.22130  0.18930  0.78650  1.0000 0.1415938408
H   H24       1.0  0.77870  0.68930  0.71350  1.0000 0.1415938408
H   H25       1.0  0.80250  0.66420  0.15170  1.0000 0.1300569267
H   H26       1.0  0.19750  0.16420  0.34830  1.0000 0.1300569267
H   H27       1.0  0.19750  0.33580  0.84830  1.0000 0.1300569267
H   H28       1.0  0.80250  0.83580  0.65170  1.0000 0.1300569267
H   H29       1.0  0.92420  0.67750  0.18980  1.0000 0.1300569267
H   H30       1.0  0.07580  0.17750  0.31020  1.0000 0.1300569267
H   H31       1.0  0.07580  0.32250  0.81020  1.0000 0.1300569267
H   H32       1.0  0.92420  0.82250  0.68980  1.0000 0.1300569267
H   H33       1.0  0.01380  0.63180  0.34350  1.0000 0.1415938408
H   H34       1.0  0.98620  0.13180  0.15650  1.0000 0.1415938408
H   H35       1.0  0.98620  0.36820  0.65650  1.0000 0.1415938408
H   H36       1.0  0.01380  0.86820  0.84350  1.0000 0.1415938408
H   H37       1.0  0.71150  0.60570  0.25290  1.0000 0.1473777638
H   H38       1.0  0.28850  0.10570  0.24710  1.0000 0.1473777638
H   H39       1.0  0.28850  0.39430  0.74710  1.0000 0.1473777638
H   H40       1.0  0.71150  0.89430  0.75290  1.0000 0.1473777638
H   H41       1.0  0.53750  0.10950  0.04770  1.0000 0.1300569267
H   H42       1.0  0.46250  0.60950  0.45230  1.0000 0.1300569267
H   H43       1.0  0.46250  0.89050  0.95230  1.0000 0.1300569267
H   H44       1.0  0.53750  0.39050  0.54770  1.0000 0.1300569267
H   H45       1.0  0.52990  0.27180  0.23610  1.0000 0.1300569267
H   H46       1.0  0.47010  0.77180  0.26390  1.0000 0.1300569267
H   H47       1.0  0.47010  0.72820  0.76390  1.0000 0.1300569267
H   H48       1.0  0.52990  0.22820  0.73610  1.0000 0.1300569267
H   H49       1.0  0.78970  0.26050  0.18500  1.0000 0.1121186808
H   H50       1.0  0.21030  0.76050  0.31500  1.0000 0.1121186808
H   H51       1.0  0.21030  0.73950  0.81500  1.0000 0.1121186808
H   H52       1.0  0.78970  0.23950  0.68500  1.0000 0.1121186808
C   C1        1.0  0.77232  0.88990  0.07528  1.0000 0.1030125514
C   C2        1.0  0.22768  0.38990  0.42472  1.0000 0.1030125514
C   C3        1.0  0.22768  0.11010  0.92472  1.0000 0.1030125514
C   C4        1.0  0.77232  0.61010  0.57528  1.0000 0.1030125514
C   C5        1.0  0.93800  0.87510  0.12421  1.0000 0.0808776346
C   C6        1.0  0.06200  0.37510  0.37579  1.0000 0.0808776346
C   C7        1.0  0.06200  0.12490  0.87579  1.0000 0.0808776346
C   C8        1.0  0.93800  0.62490  0.62421  1.0000 0.0808776346
C   C9        1.0  0.84580  0.79860  0.20878  1.0000 -0.1285338133
C   C10       1.0  0.15420  0.29860  0.29122  1.0000 -0.1285338133
C   C11       1.0  0.15420  0.20140  0.79122  1.0000 -0.1285338133
C   C12       1.0  0.84580  0.70140  0.70878  1.0000 -0.1285338133
C   C13       1.0  0.85960  0.68910  0.19878  1.0000 -0.136765103
C   C14       1.0  0.14040  0.18910  0.30122  1.0000 -0.136765103
C   C15       1.0  0.14040  0.31090  0.80122  1.0000 -0.136765103
C   C16       1.0  0.85960  0.81090  0.69878  1.0000 -0.136765103
C   C17       1.0  0.94570  0.61570  0.33733  1.0000 0.0808776346
C   C18       1.0  0.05430  0.11570  0.16267  1.0000 0.0808776346
C   C19       1.0  0.05430  0.38430  0.66267  1.0000 0.0808776346
C   C20       1.0  0.94570  0.88430  0.83733  1.0000 0.0808776346
C   C21       1.0  0.78080  0.60150  0.28787  1.0000 0.1121186808
C   C22       1.0  0.21920  0.10150  0.21213  1.0000 0.1121186808
C   C23       1.0  0.21920  0.39850  0.71213  1.0000 0.1121186808
C   C24       1.0  0.78080  0.89850  0.78787  1.0000 0.1121186808
C   C25       1.0  0.67074  0.18450  0.10578  1.0000 -0.0293611587
C   C26       1.0  0.32926  0.68450  0.39422  1.0000 -0.0293611587
C   C27       1.0  0.32926  0.81550  0.89422  1.0000 -0.0293611587
C   C28       1.0  0.67074  0.31550  0.60578  1.0000 -0.0293611587
C   C29       1.0  0.57016  0.15254  0.09100  1.0000 -0.122630031
C   C30       1.0  0.42984  0.65254  0.40900  1.0000 -0.122630031
C   C31       1.0  0.42984  0.84746  0.90900  1.0000 -0.122630031
C   C32       1.0  0.57016  0.34746  0.59100  1.0000 -0.122630031
C   C33       1.0  0.51838  0.18421  0.14024  1.0000 -0.0104261382
C   C34       1.0  0.48162  0.68421  0.35976  1.0000 -0.0104261382
C   C35       1.0  0.48162  0.81579  0.85976  1.0000 -0.0104261382
C   C36       1.0  0.51838  0.31579  0.64024  1.0000 -0.0104261382
C   C37       1.0  0.56655  0.24738  0.20475  1.0000 -0.1041279241
C   C38       1.0  0.43345  0.74738  0.29525  1.0000 -0.1053198307
C   C39       1.0  0.43345  0.75262  0.79525  1.0000 -0.1041279241
C   C40       1.0  0.56655  0.25262  0.70475  1.0000 -0.1041279241
C   C41       1.0  0.66919  0.27440  0.22287  1.0000 -0.0293611587
C   C42       1.0  0.33081  0.77440  0.27713  1.0000 -0.0293611587
C   C43       1.0  0.33081  0.72560  0.77713  1.0000 -0.0293611587
C   C44       1.0  0.66919  0.22560  0.72287  1.0000 -0.0293611587
C   C45       1.0  0.72047  0.24249  0.17296  1.0000 -0.1285338133
C   C46       1.0  0.27953  0.74249  0.32704  1.0000 -0.1285338133
C   C47       1.0  0.27953  0.75751  0.82704  1.0000 -0.1285338133
C   C48       1.0  0.72047  0.25751  0.67296  1.0000 -0.1285338133
C   C49       1.0  0.72570  0.15330  0.05061  1.0000 0.5622196541
C   C50       1.0  0.27430  0.65330  0.44939  1.0000 0.5622196541
C   C51       1.0  0.27430  0.84670  0.94939  1.0000 0.5622196541
C   C52       1.0  0.72570  0.34670  0.55061  1.0000 0.5622196541
C   C53       1.0  0.40920  0.15000  0.12280  1.0000 0.5447968737
C   C54       1.0  0.59080  0.65000  0.37720  1.0000 0.5447968737
C   C55       1.0  0.59080  0.85000  0.87720  1.0000 0.5447968737
C   C56       1.0  0.40920  0.35000  0.62280  1.0000 0.5447968737
C   C57       1.0  0.72599  0.33333  0.29673  1.0000 0.5622196541
C   C58       1.0  0.27401  0.83333  0.20327  1.0000 0.5622196541
C   C59       1.0  0.27401  0.66667  0.70327  1.0000 0.5622196541
C   C60       1.0  0.72599  0.16667  0.79673  1.0000 0.5622196541
N   N1        1.0  0.80803  0.93311  0.02523  1.0000 -0.1562337383
N   N2        1.0  0.19197  0.43311  0.47477  1.0000 -0.1562337383
N   N3        1.0  0.19197  0.06689  0.97477  1.0000 -0.1562337383
N   N4        1.0  0.80803  0.56689  0.52523  1.0000 -0.1562337383
N   N5        1.0  0.91410  0.92351  0.05636  1.0000 -0.1710453379
N   N6        1.0  0.08590  0.42351  0.44364  1.0000 -0.1710453379
N   N7        1.0  0.08590  0.07649  0.94364  1.0000 -0.1710453379
N   N8        1.0  0.91410  0.57649  0.55636  1.0000 -0.1710453379
N   N9        1.0  0.85162  0.85230  0.13856  1.0000 0.0102833446
N   N10       1.0  0.14838  0.35230  0.36144  1.0000 0.0102833446
N   N11       1.0  0.14838  0.14770  0.86144  1.0000 0.0102833446
N   N12       1.0  0.85162  0.64770  0.63856  1.0000 0.0102833446
N   N13       1.0  0.86191  0.63688  0.27174  1.0000 0.0102833446
N   N14       1.0  0.13809  0.13688  0.22826  1.0000 0.0102833446
N   N15       1.0  0.13809  0.36312  0.72826  1.0000 0.0102833446
N   N16       1.0  0.86191  0.86312  0.77174  1.0000 0.0102833446
N   N17       1.0  0.91876  0.56955  0.39115  1.0000 -0.1710453379
N   N18       1.0  0.08124  0.06955  0.10885  1.0000 -0.1710453379
N   N19       1.0  0.08124  0.43045  0.60885  1.0000 -0.1710453379
N   N20       1.0  0.91876  0.93045  0.89115  1.0000 -0.1710453379
N   N21       1.0  0.81278  0.56040  0.35916  1.0000 -0.1541953787
N   N22       1.0  0.18722  0.06040  0.14084  1.0000 -0.1541953787
N   N23       1.0  0.18722  0.43960  0.64084  1.0000 -0.1541953787
N   N24       1.0  0.81278  0.93960  0.85916  1.0000 -0.1541953787
O   O1        1.0  0.87970  0.09969  0.96622  1.0000 -0.7088009521
O   O2        1.0  0.12030  0.59969  0.53378  1.0000 -0.7088009521
O   O3        1.0  0.12030  0.90031  0.03378  1.0000 -0.7088009521
O   O4        1.0  0.87970  0.40031  0.46622  1.0000 -0.7088009521
O   O5        1.0  0.67667  0.10222  0.99008  1.0000 -0.5186312302
O   O6        1.0  0.32333  0.60222  0.50992  1.0000 -0.5186312302
O   O7        1.0  0.32333  0.89778  0.00992  1.0000 -0.5186312302
O   O8        1.0  0.67667  0.39778  0.49008  1.0000 -0.5186312302
O   O9        1.0  0.81893  0.18025  0.06966  1.0000 -0.5789768203
O   O10       1.0  0.18107  0.68025  0.43034  1.0000 -0.5789768203
O   O11       1.0  0.18107  0.81975  0.93034  1.0000 -0.5789768203
O   O12       1.0  0.81893  0.31975  0.56966  1.0000 -0.5789768203
O   O13       1.0  0.39436  0.05855  0.11238  1.0000 -0.5334215864
O   O14       1.0  0.60564  0.55855  0.38762  1.0000 -0.5334215864
O   O15       1.0  0.60564  0.94145  0.88762  1.0000 -0.5334215864
O   O16       1.0  0.39436  0.44145  0.61238  1.0000 -0.5334215864
O   O17       1.0  0.34275  0.21264  0.11870  1.0000 -0.5974605485
O   O18       1.0  0.65725  0.71264  0.38130  1.0000 -0.5974605485
O   O19       1.0  0.65725  0.78736  0.88130  1.0000 -0.5974605485
O   O20       1.0  0.34275  0.28736  0.61870  1.0000 -0.5974605485
O   O21       1.0  0.67573  0.39064  0.32428  1.0000 -0.5186312302
O   O22       1.0  0.32427  0.89064  0.17572  1.0000 -0.5186312302
O   O23       1.0  0.32427  0.60936  0.67572  1.0000 -0.5186312302
O   O24       1.0  0.67573  0.10936  0.82428  1.0000 -0.5186312302
O   O25       1.0  0.82299  0.31960  0.32810  1.0000 -0.5974605485
O   O26       1.0  0.17701  0.81960  0.17190  1.0000 -0.5974605485
O   O27       1.0  0.17701  0.68040  0.67190  1.0000 -0.5974605485
O   O28       1.0  0.82299  0.18040  0.82810  1.0000 -0.5974605485
