# DDEC6 charges by PACMAN v1.1 (https://github.com/mtap-research/PACMAN-charge/)
data_2008[Cu][nan]3[FSR]3
_chemical_formula_sum              "Cu8 H60 C33 Br8 N6"
_cell_length_a       15.2582
_cell_length_b       15.2582
_cell_length_c       6.6579
_cell_angle_alpha    90
_cell_angle_beta     90
_cell_angle_gamma    120

_symmetry_space_group_name_H-M    "P 1"
_symmetry_Int_Tables_number       1

loop_
  _symmetry_equiv_pos_as_xyz
  'x, y, z'

loop_
  _atom_site_type_symbol
  _atom_site_label
  _atom_site_symmetry_multiplicity
  _atom_site_fract_x
  _atom_site_fract_y
  _atom_site_fract_z
  _atom_site_occupancy
  _atom_site_charge
Cu  Cu1       1.0  0.08418  0.94849  0.48840  1.0000 0.2261867389
Cu  Cu2       1.0  0.05151  0.13569  0.48840  1.0000 0.2261867389
Cu  Cu3       1.0  0.86431  0.91582  0.48840  1.0000 0.2261867389
Cu  Cu4       1.0  0.00000  0.00000  0.14290  1.0000 0.2261867389
Cu  Cu5       1.0  0.24242  0.71179  0.78351  1.0000 0.2414871991
Cu  Cu6       1.0  0.28821  0.53063  0.78351  1.0000 0.2414871991
Cu  Cu7       1.0  0.46937  0.75758  0.78351  1.0000 0.2414871991
Cu  Cu8       1.0  0.33333  0.66667  0.12690  1.0000 0.2206302226
H   H1        1.0  0.11190  0.88660  0.90210  1.0000 0.1191325584
H   H2        1.0  0.11340  0.22530  0.90210  1.0000 0.1191325584
H   H3        1.0  0.77470  0.88810  0.90210  1.0000 0.1191325584
H   H4        1.0  0.20310  0.86620  0.90440  1.0000 0.1013151422
H   H5        1.0  0.13380  0.33690  0.90440  1.0000 0.1081136549
H   H6        1.0  0.66310  0.79690  0.90440  1.0000 0.1081136549
H   H7        1.0  0.02680  0.75660  0.66500  1.0000 0.0787206531
H   H8        1.0  0.24340  0.27020  0.66500  1.0000 0.0787206531
H   H9        1.0  0.72980  0.97320  0.66500  1.0000 0.0787206531
H   H10       1.0  0.12590  0.80040  0.38300  1.0000 0.1081136549
H   H11       1.0  0.19960  0.32550  0.38300  1.0000 0.1081136549
H   H12       1.0  0.67450  0.87410  0.38300  1.0000 0.1081136549
H   H13       1.0  0.21060  0.77090  0.35730  1.0000 0.1191325584
H   H14       1.0  0.22910  0.43970  0.35730  1.0000 0.1191325584
H   H15       1.0  0.56030  0.78940  0.35730  1.0000 0.1191325584
H   H16       1.0  0.29680  0.88220  0.63960  1.0000 0.0888458232
H   H17       1.0  0.11780  0.41460  0.63960  1.0000 0.0888458232
H   H18       1.0  0.58540  0.70320  0.63960  1.0000 0.0888458232
H   H19       1.0  0.29640  0.93980  0.44350  1.0000 0.1191325584
H   H20       1.0  0.06020  0.35660  0.44350  1.0000 0.1191325584
H   H21       1.0  0.64340  0.70360  0.44350  1.0000 0.1191325584
H   H22       1.0  0.97410  0.61930  0.88590  1.0000 0.1324844227
H   H23       1.0  0.38070  0.35480  0.88590  1.0000 0.1324844227
H   H24       1.0  0.64520  0.02590  0.88590  1.0000 0.1324844227
H   H25       1.0  0.00140  0.71290  0.02330  1.0000 0.1425625995
H   H26       1.0  0.28710  0.28850  0.02330  1.0000 0.1425625995
H   H27       1.0  0.71150  0.99860  0.02330  1.0000 0.1425625995
H   H28       1.0  0.07740  0.67250  0.00190  1.0000 0.1324844227
H   H29       1.0  0.32750  0.40490  0.00190  1.0000 0.1324844227
H   H30       1.0  0.59510  0.92260  0.00190  1.0000 0.1324844227
H   H31       1.0  0.21980  0.06700  0.75950  1.0000 0.1191325584
H   H32       1.0  0.93300  0.15280  0.75950  1.0000 0.1191325584
H   H33       1.0  0.84720  0.78020  0.75950  1.0000 0.1191325584
H   H34       1.0  0.27650  0.02390  0.88290  1.0000 0.1191325584
H   H35       1.0  0.97610  0.25260  0.88290  1.0000 0.1191325584
H   H36       1.0  0.74740  0.72350  0.88290  1.0000 0.1191325584
H   H37       1.0  0.38970  0.08910  0.56650  1.0000 0.1081136549
H   H38       1.0  0.91090  0.30060  0.56650  1.0000 0.1081136549
H   H39       1.0  0.69940  0.61030  0.56650  1.0000 0.1081136549
H   H40       1.0  0.34660  0.21400  0.79640  1.0000 0.1425625995
H   H41       1.0  0.78600  0.13260  0.79640  1.0000 0.1425625995
H   H42       1.0  0.86740  0.65340  0.79640  1.0000 0.1425625995
H   H43       1.0  0.44480  0.25210  0.65510  1.0000 0.1477794339
H   H44       1.0  0.74790  0.19270  0.65510  1.0000 0.1477794339
H   H45       1.0  0.80730  0.55520  0.65510  1.0000 0.1477794339
H   H46       1.0  0.10360  0.59050  0.46020  1.0000 0.1191325584
H   H47       1.0  0.40950  0.51310  0.46020  1.0000 0.1191325584
H   H48       1.0  0.48690  0.89640  0.46020  1.0000 0.1191325584
H   H49       1.0  0.04960  0.56320  0.67090  1.0000 0.1081136549
H   H50       1.0  0.43680  0.48640  0.67090  1.0000 0.1081136549
H   H51       1.0  0.51360  0.95040  0.67090  1.0000 0.1081136549
H   H52       1.0  0.96930  0.65340  0.41410  1.0000 0.1013151422
H   H53       1.0  0.34660  0.31590  0.41410  1.0000 0.1013151422
H   H54       1.0  0.68410  0.03070  0.41410  1.0000 0.1013151422
H   H55       1.0  0.88400  0.44570  0.47840  1.0000 0.1608324215
H   H56       1.0  0.55430  0.43830  0.47840  1.0000 0.1608324215
H   H57       1.0  0.56170  0.11600  0.47840  1.0000 0.1608324215
H   H58       1.0  0.82770  0.49970  0.37530  1.0000 0.1608324215
H   H59       1.0  0.50030  0.32800  0.37530  1.0000 0.1608324215
H   H60       1.0  0.67200  0.17230  0.37530  1.0000 0.1608324215
C   C1        1.0  0.15020  0.86460  0.82110  1.0000 -0.1924215068
C   C2        1.0  0.13540  0.28560  0.82110  1.0000 -0.1924215068
C   C3        1.0  0.71440  0.84980  0.82110  1.0000 -0.1924215068
C   C4        1.0  0.08020  0.75650  0.74690  1.0000 0.1081136549
C   C5        1.0  0.24350  0.32370  0.74690  1.0000 0.1081136549
C   C6        1.0  0.67630  0.91980  0.74690  1.0000 0.1081136549
C   C7        1.0  0.17800  0.79360  0.45250  1.0000 -0.1393785983
C   C8        1.0  0.20640  0.38440  0.45250  1.0000 -0.1393785983
C   C9        1.0  0.61560  0.82200  0.45250  1.0000 -0.1393785983
C   C10       1.0  0.25390  0.89230  0.54610  1.0000 -0.1393785983
C   C11       1.0  0.10770  0.36160  0.54610  1.0000 -0.1393785983
C   C12       1.0  0.63840  0.74610  0.54610  1.0000 -0.1393785983
C   C13       1.0  0.02810  0.68300  0.93300  1.0000 -0.4539763093
C   C14       1.0  0.31700  0.34510  0.93300  1.0000 -0.4539763093
C   C15       1.0  0.65490  0.97190  0.93300  1.0000 -0.4539763093
C   C16       1.0  0.26080  0.03510  0.74740  1.0000 -0.1573153496
C   C17       1.0  0.96490  0.22570  0.74740  1.0000 -0.1573153496
C   C18       1.0  0.77430  0.73920  0.74740  1.0000 -0.1573153496
C   C19       1.0  0.35430  0.10710  0.65520  1.0000 -0.0473778748
C   C20       1.0  0.89290  0.24720  0.65520  1.0000 -0.0473778748
C   C21       1.0  0.75280  0.64570  0.65520  1.0000 -0.0473778748
C   C22       1.0  0.38480  0.19980  0.70710  1.0000 -0.3306938171
C   C23       1.0  0.80020  0.18500  0.70710  1.0000 -0.3306938171
C   C24       1.0  0.81500  0.61520  0.70710  1.0000 -0.3306938171
C   C25       1.0  0.06680  0.60790  0.55600  1.0000 -0.1537051409
C   C26       1.0  0.39210  0.45890  0.55600  1.0000 -0.1537051409
C   C27       1.0  0.54110  0.93320  0.55600  1.0000 -0.1537051409
C   C28       1.0  0.96980  0.59580  0.45850  1.0000 -0.0294418935
C   C29       1.0  0.40420  0.37400  0.45850  1.0000 -0.0294418935
C   C30       1.0  0.62600  0.03020  0.45850  1.0000 -0.0294418935
C   C31       1.0  0.88490  0.50410  0.43490  1.0000 -0.3780803144
C   C32       1.0  0.49590  0.38080  0.43490  1.0000 -0.3780803144
C   C33       1.0  0.61920  0.11510  0.43490  1.0000 -0.3780803144
Br  Br1       1.0  0.00000  0.00000  0.77840  1.0000 -0.3713986635
Br  Br2       1.0  0.17179  0.10906  0.28696  1.0000 -0.3852055828
Br  Br3       1.0  0.89094  0.06273  0.28696  1.0000 -0.3852055828
Br  Br4       1.0  0.93727  0.82821  0.28696  1.0000 -0.3852055828
Br  Br5       1.0  0.33333  0.66667  0.51020  1.0000 -0.3528452873
Br  Br6       1.0  0.37473  0.83580  0.01127  1.0000 -0.3957524955
Br  Br7       1.0  0.16420  0.53893  0.01127  1.0000 -0.3957524955
Br  Br8       1.0  0.46107  0.62527  0.01127  1.0000 -0.3957524955
N   N1        1.0  0.19470  0.93180  0.65350  1.0000 -0.0473778748
N   N2        1.0  0.06820  0.26290  0.65350  1.0000 -0.0473778748
N   N3        1.0  0.73710  0.80530  0.65350  1.0000 -0.0473778748
N   N4        1.0  0.13350  0.72030  0.62390  1.0000 -0.0666103124
N   N5        1.0  0.27970  0.41320  0.62390  1.0000 -0.0666103124
N   N6        1.0  0.58680  0.86650  0.62390  1.0000 -0.0666103124
