# DDEC6 charges by PACMAN v1.1 (https://github.com/mtap-research/PACMAN-charge/)
data_2008[Zn][nan]3[FSR]3
_chemical_formula_sum              "Zn10 C8 N36 O8"
_cell_length_a       9.10914
_cell_length_b       9.10914
_cell_length_c       14.2113
_cell_angle_alpha    71.3833
_cell_angle_beta     108.617
_cell_angle_gamma    124.018

_symmetry_space_group_name_H-M    "P 1"
_symmetry_Int_Tables_number       1

loop_
  _symmetry_equiv_pos_as_xyz
  'x, y, z'

loop_
  _atom_site_type_symbol
  _atom_site_label
  _atom_site_symmetry_multiplicity
  _atom_site_fract_x
  _atom_site_fract_y
  _atom_site_fract_z
  _atom_site_occupancy
  _atom_site_charge
Zn  Zn1       1.0  0.87673  0.87673  0.75000  1.0000 0.7584398517
Zn  Zn2       1.0  0.12327  0.12327  0.25000  1.0000 0.7584398517
Zn  Zn3       1.0  0.15294  0.70736  0.86563  1.0000 0.8307392726
Zn  Zn4       1.0  0.70736  0.15294  0.63437  1.0000 0.8307392726
Zn  Zn5       1.0  0.84706  0.29264  0.13437  1.0000 0.8307392726
Zn  Zn6       1.0  0.29264  0.84706  0.36563  1.0000 0.8307392726
Zn  Zn7       1.0  0.78062  0.59034  0.97128  1.0000 0.7821797261
Zn  Zn8       1.0  0.59034  0.78062  0.52872  1.0000 0.7821797261
Zn  Zn9       1.0  0.21938  0.40966  0.02872  1.0000 0.7821797261
Zn  Zn10      1.0  0.40966  0.21938  0.47128  1.0000 0.7821797261
C   C1        1.0  0.97270  0.34250  0.81900  1.0000 0.4301837463
C   C2        1.0  0.34250  0.97270  0.68100  1.0000 0.4246375391
C   C3        1.0  0.02730  0.65750  0.18100  1.0000 0.4301837463
C   C4        1.0  0.65750  0.02730  0.31900  1.0000 0.4301837463
C   C5        1.0  0.81710  0.49450  0.72490  1.0000 0.4350323508
C   C6        1.0  0.49450  0.81710  0.77510  1.0000 0.4301837463
C   C7        1.0  0.18290  0.50550  0.27510  1.0000 0.4301837463
C   C8        1.0  0.50550  0.18290  0.22490  1.0000 0.4301837463
N   N1        1.0  0.90650  0.22070  0.75850  1.0000 -0.3092580607
N   N2        1.0  0.22070  0.90650  0.74150  1.0000 -0.3092580607
N   N3        1.0  0.09350  0.77930  0.24150  1.0000 -0.3092580607
N   N4        1.0  0.77930  0.09350  0.25850  1.0000 -0.3092580607
N   N5        1.0  0.98310  0.11930  0.80510  1.0000 0.0013405734
N   N6        1.0  0.11930  0.98310  0.69490  1.0000 0.0013405734
N   N7        1.0  0.01690  0.88070  0.19490  1.0000 0.0013405734
N   N8        1.0  0.88070  0.01690  0.30510  1.0000 0.0013405734
N   N9        1.0  0.08910  0.17070  0.88850  1.0000 -0.0392249359
N   N10       1.0  0.17070  0.08910  0.61150  1.0000 -0.0392249359
N   N11       1.0  0.91090  0.82930  0.11150  1.0000 -0.0392249359
N   N12       1.0  0.82930  0.91090  0.38850  1.0000 -0.0392249359
N   N13       1.0  0.08600  0.30920  0.89990  1.0000 -0.2847630849
N   N14       1.0  0.30920  0.08600  0.60010  1.0000 -0.2854110172
N   N15       1.0  0.91400  0.69080  0.10010  1.0000 -0.2854110172
N   N16       1.0  0.69080  0.91400  0.39990  1.0000 -0.2847630849
N   N17       1.0  0.71730  0.38330  0.65610  1.0000 -0.3015435507
N   N18       1.0  0.38330  0.71730  0.84390  1.0000 -0.3015435507
N   N19       1.0  0.28270  0.61670  0.34390  1.0000 -0.3015435507
N   N20       1.0  0.61670  0.28270  0.15610  1.0000 -0.3015435507
N   N21       1.0  0.62110  0.45350  0.58770  1.0000 -0.0459872859
N   N22       1.0  0.45350  0.62110  0.91230  1.0000 -0.0459872859
N   N23       1.0  0.37890  0.54650  0.41230  1.0000 -0.0459872859
N   N24       1.0  0.54650  0.37890  0.08770  1.0000 -0.0459872859
N   N25       1.0  0.66100  0.59760  0.61550  1.0000 -0.0392249359
N   N26       1.0  0.59760  0.66100  0.88450  1.0000 -0.0392249359
N   N27       1.0  0.33900  0.40240  0.38450  1.0000 -0.0392249359
N   N28       1.0  0.40240  0.33900  0.11550  1.0000 -0.0392249359
N   N29       1.0  0.78440  0.62840  0.70140  1.0000 -0.2662177553
N   N30       1.0  0.62840  0.78440  0.79860  1.0000 -0.2662177553
N   N31       1.0  0.21560  0.37160  0.29860  1.0000 -0.2662177553
N   N32       1.0  0.37160  0.21560  0.20140  1.0000 -0.2662177553
N   N33       1.0  0.94460  0.47800  0.80590  1.0000 -0.4107295146
N   N34       1.0  0.47800  0.94460  0.69410  1.0000 -0.4107295146
N   N35       1.0  0.05540  0.52200  0.19410  1.0000 -0.4107295146
N   N36       1.0  0.52200  0.05540  0.30590  1.0000 -0.4107295146
O   O1        1.0  0.98090  0.77390  0.88840  1.0000 -0.7005494704
O   O2        1.0  0.77390  0.98090  0.61160  1.0000 -0.7005494704
O   O3        1.0  0.01910  0.22610  0.11160  1.0000 -0.7005494704
O   O4        1.0  0.22610  0.01910  0.38840  1.0000 -0.7005494704
O   O5        1.0  0.23350  0.63390  0.01120  1.0000 -0.4558500296
O   O6        1.0  0.63390  0.23350  0.48880  1.0000 -0.4558500296
O   O7        1.0  0.76650  0.36610  0.98880  1.0000 -0.4558500296
O   O8        1.0  0.36610  0.76650  0.51120  1.0000 -0.4558500296
