# DDEC6 charges by PACMAN v1.1 (https://github.com/mtap-research/PACMAN-charge/)
data_2008[In][nan]3[FSR]1
_chemical_formula_sum              "In6 H24 C48 O30"
_cell_length_a       21.7582
_cell_length_b       21.7582
_cell_length_c       7.233
_cell_angle_alpha    90
_cell_angle_beta     90
_cell_angle_gamma    119.952

_symmetry_space_group_name_H-M    "P 1"
_symmetry_Int_Tables_number       1

loop_
  _symmetry_equiv_pos_as_xyz
  'x, y, z'

loop_
  _atom_site_type_symbol
  _atom_site_label
  _atom_site_symmetry_multiplicity
  _atom_site_fract_x
  _atom_site_fract_y
  _atom_site_fract_z
  _atom_site_occupancy
  _atom_site_charge
In  In1       1.0  0.50000  0.00000  0.00000  1.0000 1.5140073012
In  In2       1.0  0.50000  0.00000  0.50000  1.0000 1.5140073012
In  In3       1.0  0.00000  0.50000  0.50000  1.0000 1.5140073012
In  In4       1.0  0.00000  0.50000  0.00000  1.0000 1.5140073012
In  In5       1.0  0.00000  0.00000  0.00000  1.0000 1.5155372929
In  In6       1.0  0.00000  0.00000  0.50000  1.0000 1.5155372929
H   H1        1.0  0.68400  0.20980  0.52550  1.0000 0.143152591
H   H2        1.0  0.31600  0.79020  0.02550  1.0000 0.143152591
H   H3        1.0  0.79020  0.31600  0.97450  1.0000 0.143152591
H   H4        1.0  0.20980  0.68400  0.47450  1.0000 0.143152591
H   H5        1.0  0.31600  0.79020  0.47450  1.0000 0.143152591
H   H6        1.0  0.68400  0.20980  0.97450  1.0000 0.143152591
H   H7        1.0  0.20980  0.68400  0.02550  1.0000 0.143152591
H   H8        1.0  0.79020  0.31600  0.52550  1.0000 0.143152591
H   H9        1.0  0.31730  0.03110  0.97430  1.0000 0.143152591
H   H10       1.0  0.68270  0.96890  0.47430  1.0000 0.143152591
H   H11       1.0  0.96890  0.68270  0.52570  1.0000 0.143152591
H   H12       1.0  0.03110  0.31730  0.02570  1.0000 0.143152591
H   H13       1.0  0.68270  0.96890  0.02570  1.0000 0.143152591
H   H14       1.0  0.31730  0.03110  0.52570  1.0000 0.143152591
H   H15       1.0  0.03110  0.31730  0.47430  1.0000 0.143152591
H   H16       1.0  0.96890  0.68270  0.97430  1.0000 0.143152591
H   H17       1.0  0.21280  0.03100  0.97430  1.0000 0.1455691319
H   H18       1.0  0.78720  0.96900  0.47430  1.0000 0.1455691319
H   H19       1.0  0.96900  0.78720  0.52570  1.0000 0.1455691319
H   H20       1.0  0.03100  0.21280  0.02570  1.0000 0.1455691319
H   H21       1.0  0.78720  0.96900  0.02570  1.0000 0.1455691319
H   H22       1.0  0.21280  0.03100  0.52570  1.0000 0.1455691319
H   H23       1.0  0.03100  0.21280  0.47430  1.0000 0.1455691319
H   H24       1.0  0.96900  0.78720  0.97430  1.0000 0.1455691319
C   C1        1.0  0.60596  0.12930  0.25000  1.0000 0.6014761519
C   C2        1.0  0.39404  0.87070  0.75000  1.0000 0.6014761519
C   C3        1.0  0.87070  0.39404  0.25000  1.0000 0.6014761519
C   C4        1.0  0.12930  0.60596  0.75000  1.0000 0.6014761519
C   C5        1.0  0.67230  0.20214  0.25000  1.0000 -0.007320958
C   C6        1.0  0.32770  0.79786  0.75000  1.0000 -0.007320958
C   C7        1.0  0.79786  0.32770  0.25000  1.0000 -0.007320958
C   C8        1.0  0.20214  0.67230  0.75000  1.0000 -0.007320958
C   C9        1.0  0.70467  0.23207  0.41440  1.0000 -0.0919209813
C   C10       1.0  0.29533  0.76793  0.91440  1.0000 -0.0919209813
C   C11       1.0  0.76793  0.29533  0.08560  1.0000 -0.0919209813
C   C12       1.0  0.23207  0.70467  0.58560  1.0000 -0.0919209813
C   C13       1.0  0.29533  0.76793  0.58560  1.0000 -0.0919209813
C   C14       1.0  0.70467  0.23207  0.08560  1.0000 -0.0919209813
C   C15       1.0  0.23207  0.70467  0.91440  1.0000 -0.0919209813
C   C16       1.0  0.76793  0.29533  0.41440  1.0000 -0.0919209813
C   C17       1.0  0.39386  0.02252  0.25000  1.0000 0.6014761519
C   C18       1.0  0.60614  0.97748  0.75000  1.0000 0.5947605936
C   C19       1.0  0.97748  0.60614  0.25000  1.0000 0.5947605936
C   C20       1.0  0.02252  0.39386  0.75000  1.0000 0.5947605936
C   C21       1.0  0.32755  0.02881  0.25000  1.0000 -0.007320958
C   C22       1.0  0.67245  0.97119  0.75000  1.0000 -0.007320958
C   C23       1.0  0.97119  0.67245  0.25000  1.0000 -0.007320958
C   C24       1.0  0.02881  0.32755  0.75000  1.0000 -0.007320958
C   C25       1.0  0.29583  0.03041  0.08610  1.0000 -0.0919209813
C   C26       1.0  0.70417  0.96959  0.58610  1.0000 -0.0919209813
C   C27       1.0  0.96959  0.70417  0.41390  1.0000 -0.0919209813
C   C28       1.0  0.03041  0.29583  0.91390  1.0000 -0.0919209813
C   C29       1.0  0.70417  0.96959  0.91390  1.0000 -0.0919209813
C   C30       1.0  0.29583  0.03041  0.41390  1.0000 -0.0919209813
C   C31       1.0  0.03041  0.29583  0.58610  1.0000 -0.0919209813
C   C32       1.0  0.96959  0.70417  0.08610  1.0000 -0.0919209813
C   C33       1.0  0.23408  0.03090  0.08580  1.0000 -0.0919209813
C   C34       1.0  0.76592  0.96910  0.58580  1.0000 -0.0919209813
C   C35       1.0  0.96910  0.76592  0.41420  1.0000 -0.0919209813
C   C36       1.0  0.03090  0.23408  0.91420  1.0000 -0.0919209813
C   C37       1.0  0.76592  0.96910  0.91420  1.0000 -0.0919209813
C   C38       1.0  0.23408  0.03090  0.41420  1.0000 -0.0919209813
C   C39       1.0  0.03090  0.23408  0.58580  1.0000 -0.0919209813
C   C40       1.0  0.96910  0.76592  0.08580  1.0000 -0.0919209813
C   C41       1.0  0.20249  0.03133  0.25000  1.0000 -0.0009017275
C   C42       1.0  0.79751  0.96867  0.75000  1.0000 -0.0009017275
C   C43       1.0  0.96867  0.79751  0.25000  1.0000 -0.0009017275
C   C44       1.0  0.03133  0.20249  0.75000  1.0000 -0.0009017275
C   C45       1.0  0.13125  0.02925  0.25000  1.0000 0.5947605936
C   C46       1.0  0.86875  0.97075  0.75000  1.0000 0.5947605936
C   C47       1.0  0.97075  0.86875  0.25000  1.0000 0.5947605936
C   C48       1.0  0.02925  0.13125  0.75000  1.0000 0.5947605936
O   O1        1.0  0.50117  0.95139  0.25000  1.0000 -0.8665052542
O   O2        1.0  0.49883  0.04861  0.75000  1.0000 -0.8665052542
O   O3        1.0  0.04861  0.49883  0.25000  1.0000 -0.8665052542
O   O4        1.0  0.95139  0.50117  0.75000  1.0000 -0.8755868364
O   O5        1.0  0.58072  0.10286  0.09565  1.0000 -0.5123087753
O   O6        1.0  0.41928  0.89714  0.59565  1.0000 -0.5123087753
O   O7        1.0  0.89714  0.41928  0.40435  1.0000 -0.5123087753
O   O8        1.0  0.10286  0.58072  0.90435  1.0000 -0.5123087753
O   O9        1.0  0.41928  0.89714  0.90435  1.0000 -0.5123087753
O   O10       1.0  0.58072  0.10286  0.40435  1.0000 -0.5123087753
O   O11       1.0  0.10286  0.58072  0.59565  1.0000 -0.5123087753
O   O12       1.0  0.89714  0.41928  0.09565  1.0000 -0.5123087753
O   O13       1.0  0.42005  0.02267  0.09806  1.0000 -0.5030992691
O   O14       1.0  0.57995  0.97733  0.59806  1.0000 -0.5030992691
O   O15       1.0  0.97733  0.57995  0.40194  1.0000 -0.5030992691
O   O16       1.0  0.02267  0.42005  0.90194  1.0000 -0.5030992691
O   O17       1.0  0.57995  0.97733  0.90194  1.0000 -0.5030992691
O   O18       1.0  0.42005  0.02267  0.40194  1.0000 -0.5030992691
O   O19       1.0  0.02267  0.42005  0.59806  1.0000 -0.5030992691
O   O20       1.0  0.97733  0.57995  0.09806  1.0000 -0.5030992691
O   O21       1.0  0.10416  0.02818  0.09647  1.0000 -0.5172843624
O   O22       1.0  0.89584  0.97182  0.59647  1.0000 -0.5172843624
O   O23       1.0  0.97182  0.89584  0.40353  1.0000 -0.5172843624
O   O24       1.0  0.02818  0.10416  0.90353  1.0000 -0.5172843624
O   O25       1.0  0.89584  0.97182  0.90353  1.0000 -0.5172843624
O   O26       1.0  0.10416  0.02818  0.40353  1.0000 -0.5172843624
O   O27       1.0  0.02818  0.10416  0.59647  1.0000 -0.5172843624
O   O28       1.0  0.97182  0.89584  0.09647  1.0000 -0.5172843624
O   O29       1.0  0.97584  0.02416  0.25000  1.0000 -0.8539416183
O   O30       1.0  0.02416  0.97584  0.75000  1.0000 -0.8539416183
