# DDEC6 charges by PACMAN v1.1 (https://github.com/mtap-research/PACMAN-charge/)
data_2008[LaCu][stp]3[FSR]5
_chemical_formula_sum              "La4 Cu6 H60 C48 N12 O48"
_cell_length_a       13.3819
_cell_length_b       13.3819
_cell_length_c       14.933
_cell_angle_alpha    90
_cell_angle_beta     90
_cell_angle_gamma    120

_symmetry_space_group_name_H-M    "P 1"
_symmetry_Int_Tables_number       1

loop_
  _symmetry_equiv_pos_as_xyz
  'x, y, z'

loop_
  _atom_site_type_symbol
  _atom_site_label
  _atom_site_symmetry_multiplicity
  _atom_site_fract_x
  _atom_site_fract_y
  _atom_site_fract_z
  _atom_site_occupancy
  _atom_site_charge
La  La1       1.0  0.66667  0.33333  0.32982  1.0000 1.8368286089
La  La2       1.0  0.33333  0.66667  0.17018  1.0000 1.8368286089
La  La3       1.0  0.33333  0.66667  0.67018  1.0000 1.8368286089
La  La4       1.0  0.66667  0.33333  0.82982  1.0000 1.8368286089
Cu  Cu1       1.0  0.50000  0.00000  0.50000  1.0000 0.7340260342
Cu  Cu2       1.0  0.00000  0.50000  0.50000  1.0000 0.7340260342
Cu  Cu3       1.0  0.50000  0.50000  0.50000  1.0000 0.7340260342
Cu  Cu4       1.0  0.00000  0.50000  0.00000  1.0000 0.7356870369
Cu  Cu5       1.0  0.50000  0.00000  0.00000  1.0000 0.7356870369
Cu  Cu6       1.0  0.50000  0.50000  0.00000  1.0000 0.7356870369
H   H1        1.0  0.80040  0.14640  0.53620  1.0000 0.1390236941
H   H2        1.0  0.85360  0.65400  0.53620  1.0000 0.1390236941
H   H3        1.0  0.34600  0.19960  0.53620  1.0000 0.1390236941
H   H4        1.0  0.14640  0.80040  0.96380  1.0000 0.1390236941
H   H5        1.0  0.65400  0.85360  0.96380  1.0000 0.1390236941
H   H6        1.0  0.19960  0.34600  0.96380  1.0000 0.1390236941
H   H7        1.0  0.19960  0.85360  0.46380  1.0000 0.1390236941
H   H8        1.0  0.14640  0.34600  0.46380  1.0000 0.1390236941
H   H9        1.0  0.65400  0.80040  0.46380  1.0000 0.1390236941
H   H10       1.0  0.85360  0.19960  0.03620  1.0000 0.1390236941
H   H11       1.0  0.34600  0.14640  0.03620  1.0000 0.1390236941
H   H12       1.0  0.80040  0.65400  0.03620  1.0000 0.1390236941
H   H13       1.0  0.75830  0.04190  0.45740  1.0000 0.1390236941
H   H14       1.0  0.95810  0.71640  0.45740  1.0000 0.1390236941
H   H15       1.0  0.28360  0.24170  0.45740  1.0000 0.1390236941
H   H16       1.0  0.04190  0.75830  0.04260  1.0000 0.1390236941
H   H17       1.0  0.71640  0.95810  0.04260  1.0000 0.1390236941
H   H18       1.0  0.24170  0.28360  0.04260  1.0000 0.1390236941
H   H19       1.0  0.24170  0.95810  0.54260  1.0000 0.1390236941
H   H20       1.0  0.04190  0.28360  0.54260  1.0000 0.1390236941
H   H21       1.0  0.71640  0.75830  0.54260  1.0000 0.1390236941
H   H22       1.0  0.95810  0.24170  0.95740  1.0000 0.1390236941
H   H23       1.0  0.28360  0.04190  0.95740  1.0000 0.1390236941
H   H24       1.0  0.75830  0.71640  0.95740  1.0000 0.1390236941
H   H25       1.0  0.72780  0.18710  0.62020  1.0000 0.1512608499
H   H26       1.0  0.81290  0.54070  0.62020  1.0000 0.1512608499
H   H27       1.0  0.45930  0.27220  0.62020  1.0000 0.1512608499
H   H28       1.0  0.18710  0.72780  0.87980  1.0000 0.1512608499
H   H29       1.0  0.54070  0.81290  0.87980  1.0000 0.1512608499
H   H30       1.0  0.27220  0.45930  0.87980  1.0000 0.1512608499
H   H31       1.0  0.27220  0.81290  0.37980  1.0000 0.1512608499
H   H32       1.0  0.18710  0.45930  0.37980  1.0000 0.1512608499
H   H33       1.0  0.54070  0.72780  0.37980  1.0000 0.1512608499
H   H34       1.0  0.81290  0.27220  0.12020  1.0000 0.1512608499
H   H35       1.0  0.45930  0.18710  0.12020  1.0000 0.1512608499
H   H36       1.0  0.72780  0.54070  0.12020  1.0000 0.1512608499
H   H37       1.0  0.67050  0.06530  0.68420  1.0000 0.1512608499
H   H38       1.0  0.93470  0.60520  0.68420  1.0000 0.1512608499
H   H39       1.0  0.39480  0.32950  0.68420  1.0000 0.1512608499
H   H40       1.0  0.06530  0.67050  0.81580  1.0000 0.1512608499
H   H41       1.0  0.60520  0.93470  0.81580  1.0000 0.1512608499
H   H42       1.0  0.32950  0.39480  0.81580  1.0000 0.1512608499
H   H43       1.0  0.32950  0.93470  0.31580  1.0000 0.1512608499
H   H44       1.0  0.06530  0.39480  0.31580  1.0000 0.1512608499
H   H45       1.0  0.60520  0.67050  0.31580  1.0000 0.1512608499
H   H46       1.0  0.93470  0.32950  0.18420  1.0000 0.1512608499
H   H47       1.0  0.39480  0.06530  0.18420  1.0000 0.1512608499
H   H48       1.0  0.67050  0.60520  0.18420  1.0000 0.1512608499
H   H49       1.0  0.64690  0.97390  0.57540  1.0000 0.2530632635
H   H50       1.0  0.02610  0.67300  0.57540  1.0000 0.2530632635
H   H51       1.0  0.32700  0.35310  0.57540  1.0000 0.2530632635
H   H52       1.0  0.97390  0.64690  0.92460  1.0000 0.2530632635
H   H53       1.0  0.67300  0.02610  0.92460  1.0000 0.2530632635
H   H54       1.0  0.35310  0.32700  0.92460  1.0000 0.2530632635
H   H55       1.0  0.35310  0.02610  0.42460  1.0000 0.2530632635
H   H56       1.0  0.97390  0.32700  0.42460  1.0000 0.2530632635
H   H57       1.0  0.67300  0.64690  0.42460  1.0000 0.2530632635
H   H58       1.0  0.02610  0.35310  0.07540  1.0000 0.2530632635
H   H59       1.0  0.32700  0.97390  0.07540  1.0000 0.2530632635
H   H60       1.0  0.64690  0.67300  0.07540  1.0000 0.2530632635
C   C1        1.0  0.72990  0.17990  0.43290  1.0000 0.6057824687
C   C2        1.0  0.82010  0.55000  0.43290  1.0000 0.6057824687
C   C3        1.0  0.45000  0.27010  0.43290  1.0000 0.6057824687
C   C4        1.0  0.17990  0.72990  0.06710  1.0000 0.6057824687
C   C5        1.0  0.55000  0.82010  0.06710  1.0000 0.6057824687
C   C6        1.0  0.27010  0.45000  0.06710  1.0000 0.6057824687
C   C7        1.0  0.27010  0.82010  0.56710  1.0000 0.6057824687
C   C8        1.0  0.17990  0.45000  0.56710  1.0000 0.6057824687
C   C9        1.0  0.55000  0.72990  0.56710  1.0000 0.6057824687
C   C10       1.0  0.82010  0.27010  0.93290  1.0000 0.6057824687
C   C11       1.0  0.45000  0.17990  0.93290  1.0000 0.6057824687
C   C12       1.0  0.72990  0.55000  0.93290  1.0000 0.6057824687
C   C13       1.0  0.74650  0.09580  0.49180  1.0000 -0.2499148
C   C14       1.0  0.90420  0.65070  0.49180  1.0000 -0.2499148
C   C15       1.0  0.34930  0.25350  0.49180  1.0000 -0.2499148
C   C16       1.0  0.09580  0.74650  0.00820  1.0000 -0.2499148
C   C17       1.0  0.65070  0.90420  0.00820  1.0000 -0.2499148
C   C18       1.0  0.25350  0.34930  0.00820  1.0000 -0.2499148
C   C19       1.0  0.25350  0.90420  0.50820  1.0000 -0.2499148
C   C20       1.0  0.09580  0.34930  0.50820  1.0000 -0.2499148
C   C21       1.0  0.65070  0.74650  0.50820  1.0000 -0.2499148
C   C22       1.0  0.90420  0.25350  0.99180  1.0000 -0.2499148
C   C23       1.0  0.34930  0.09580  0.99180  1.0000 -0.2499148
C   C24       1.0  0.74650  0.65070  0.99180  1.0000 -0.2499148
C   C25       1.0  0.66720  0.11160  0.63670  1.0000 -0.268918773
C   C26       1.0  0.88840  0.55560  0.63670  1.0000 -0.268918773
C   C27       1.0  0.44440  0.33280  0.63670  1.0000 -0.268918773
C   C28       1.0  0.11160  0.66720  0.86330  1.0000 -0.268918773
C   C29       1.0  0.55560  0.88840  0.86330  1.0000 -0.268918773
C   C30       1.0  0.33280  0.44440  0.86330  1.0000 -0.268918773
C   C31       1.0  0.33280  0.88840  0.36330  1.0000 -0.268918773
C   C32       1.0  0.11160  0.44440  0.36330  1.0000 -0.268918773
C   C33       1.0  0.55560  0.66720  0.36330  1.0000 -0.268918773
C   C34       1.0  0.88840  0.33280  0.13670  1.0000 -0.268918773
C   C35       1.0  0.44440  0.11160  0.13670  1.0000 -0.268918773
C   C36       1.0  0.66720  0.55560  0.13670  1.0000 -0.268918773
C   C37       1.0  0.56140  0.12140  0.65630  1.0000 0.6376801327
C   C38       1.0  0.87860  0.44000  0.65630  1.0000 0.6376801327
C   C39       1.0  0.56000  0.43860  0.65630  1.0000 0.6376801327
C   C40       1.0  0.12140  0.56140  0.84370  1.0000 0.6376801327
C   C41       1.0  0.44000  0.87860  0.84370  1.0000 0.6376801327
C   C42       1.0  0.43860  0.56000  0.84370  1.0000 0.6376801327
C   C43       1.0  0.43860  0.87860  0.34370  1.0000 0.6376801327
C   C44       1.0  0.12140  0.56000  0.34370  1.0000 0.6376801327
C   C45       1.0  0.44000  0.56140  0.34370  1.0000 0.6376801327
C   C46       1.0  0.87860  0.43860  0.15630  1.0000 0.6376801327
C   C47       1.0  0.56000  0.12140  0.15630  1.0000 0.6376801327
C   C48       1.0  0.56140  0.44000  0.15630  1.0000 0.6376801327
N   N1        1.0  0.65110  0.03870  0.55700  1.0000 -0.2499148
N   N2        1.0  0.96130  0.61240  0.55700  1.0000 -0.2499148
N   N3        1.0  0.38760  0.34890  0.55700  1.0000 -0.2499148
N   N4        1.0  0.03870  0.65110  0.94300  1.0000 -0.2499148
N   N5        1.0  0.61240  0.96130  0.94300  1.0000 -0.2499148
N   N6        1.0  0.34890  0.38760  0.94300  1.0000 -0.2499148
N   N7        1.0  0.34890  0.96130  0.44300  1.0000 -0.2499148
N   N8        1.0  0.03870  0.38760  0.44300  1.0000 -0.2499148
N   N9        1.0  0.61240  0.65110  0.44300  1.0000 -0.2499148
N   N10       1.0  0.96130  0.34890  0.05700  1.0000 -0.2499148
N   N11       1.0  0.38760  0.03870  0.05700  1.0000 -0.2499148
N   N12       1.0  0.65110  0.61240  0.05700  1.0000 -0.2499148
O   O1        1.0  0.63770  0.18220  0.44220  1.0000 -0.6124913051
O   O2        1.0  0.81780  0.45550  0.44220  1.0000 -0.6124913051
O   O3        1.0  0.54450  0.36230  0.44220  1.0000 -0.6124913051
O   O4        1.0  0.18220  0.63770  0.05780  1.0000 -0.6124913051
O   O5        1.0  0.45550  0.81780  0.05780  1.0000 -0.6124913051
O   O6        1.0  0.36230  0.54450  0.05780  1.0000 -0.6124913051
O   O7        1.0  0.36230  0.81780  0.55780  1.0000 -0.6124913051
O   O8        1.0  0.18220  0.54450  0.55780  1.0000 -0.6124913051
O   O9        1.0  0.45550  0.63770  0.55780  1.0000 -0.6124913051
O   O10       1.0  0.81780  0.36230  0.94220  1.0000 -0.6124913051
O   O11       1.0  0.54450  0.18220  0.94220  1.0000 -0.6124913051
O   O12       1.0  0.63770  0.45550  0.94220  1.0000 -0.6124913051
O   O13       1.0  0.80550  0.23990  0.37700  1.0000 -0.5757057026
O   O14       1.0  0.76010  0.56560  0.37700  1.0000 -0.5757057026
O   O15       1.0  0.43440  0.19450  0.37700  1.0000 -0.5757057026
O   O16       1.0  0.23990  0.80550  0.12300  1.0000 -0.5757057026
O   O17       1.0  0.56560  0.76010  0.12300  1.0000 -0.5757057026
O   O18       1.0  0.19450  0.43440  0.12300  1.0000 -0.5757057026
O   O19       1.0  0.19450  0.76010  0.62300  1.0000 -0.5757057026
O   O20       1.0  0.23990  0.43440  0.62300  1.0000 -0.5757057026
O   O21       1.0  0.56560  0.80550  0.62300  1.0000 -0.5757057026
O   O22       1.0  0.76010  0.19450  0.87700  1.0000 -0.5757057026
O   O23       1.0  0.43440  0.23990  0.87700  1.0000 -0.5757057026
O   O24       1.0  0.80550  0.56560  0.87700  1.0000 -0.5757057026
O   O25       1.0  0.47750  0.07580  0.60360  1.0000 -0.5063180729
O   O26       1.0  0.92420  0.40170  0.60360  1.0000 -0.5063180729
O   O27       1.0  0.59830  0.52250  0.60360  1.0000 -0.5063180729
O   O28       1.0  0.07580  0.47750  0.89640  1.0000 -0.5063180729
O   O29       1.0  0.40170  0.92420  0.89640  1.0000 -0.5063180729
O   O30       1.0  0.52250  0.59830  0.89640  1.0000 -0.5063180729
O   O31       1.0  0.52250  0.92420  0.39640  1.0000 -0.5063180729
O   O32       1.0  0.07580  0.59830  0.39640  1.0000 -0.5063180729
O   O33       1.0  0.40170  0.47750  0.39640  1.0000 -0.5063180729
O   O34       1.0  0.92420  0.52250  0.10360  1.0000 -0.5063180729
O   O35       1.0  0.59830  0.07580  0.10360  1.0000 -0.5063180729
O   O36       1.0  0.47750  0.40170  0.10360  1.0000 -0.5063180729
O   O37       1.0  0.56280  0.17570  0.72410  1.0000 -0.5935359701
O   O38       1.0  0.82430  0.38710  0.72410  1.0000 -0.5935359701
O   O39       1.0  0.61290  0.43720  0.72410  1.0000 -0.5935359701
O   O40       1.0  0.17570  0.56280  0.77590  1.0000 -0.5935359701
O   O41       1.0  0.38710  0.82430  0.77590  1.0000 -0.5935359701
O   O42       1.0  0.43720  0.61290  0.77590  1.0000 -0.5935359701
O   O43       1.0  0.43720  0.82430  0.27590  1.0000 -0.5935359701
O   O44       1.0  0.17570  0.61290  0.27590  1.0000 -0.5935359701
O   O45       1.0  0.38710  0.56280  0.27590  1.0000 -0.5935359701
O   O46       1.0  0.82430  0.43720  0.22410  1.0000 -0.5935359701
O   O47       1.0  0.61290  0.17570  0.22410  1.0000 -0.5935359701
O   O48       1.0  0.56280  0.38710  0.22410  1.0000 -0.5935359701
