# DDEC6 charges by PACMAN v1.1 (https://github.com/mtap-research/PACMAN-charge/)
data_2008[Ga][bpq]3[FSR]2
_chemical_formula_sum              "Ga2 H8 C16 O10"
_cell_length_a       11.1733
_cell_length_b       11.1733
_cell_length_c       11.1733
_cell_angle_alpha    144.961
_cell_angle_beta     112.217
_cell_angle_gamma    78.646

_symmetry_space_group_name_H-M    "P 1"
_symmetry_Int_Tables_number       1

loop_
  _symmetry_equiv_pos_as_xyz
  'x, y, z'

loop_
  _atom_site_type_symbol
  _atom_site_label
  _atom_site_symmetry_multiplicity
  _atom_site_fract_x
  _atom_site_fract_y
  _atom_site_fract_z
  _atom_site_occupancy
  _atom_site_charge
Ga  Ga1       1.0  0.50000  0.00000  0.00000  1.0000 1.3273339888
Ga  Ga2       1.0  0.50000  0.50000  0.50000  1.0000 1.3273339888
H   H1        1.0  0.89300  0.14720  0.15200  1.0000 0.1300099811
H   H2        1.0  0.50480  0.35280  0.74580  1.0000 0.1300099811
H   H3        1.0  0.10700  0.25900  0.25420  1.0000 0.1300099811
H   H4        1.0  0.49520  0.24100  0.84800  1.0000 0.1300099811
H   H5        1.0  0.10700  0.85280  0.84800  1.0000 0.1300099811
H   H6        1.0  0.49520  0.64720  0.25420  1.0000 0.1300099811
H   H7        1.0  0.89300  0.74100  0.74580  1.0000 0.1300099811
H   H8        1.0  0.50480  0.75900  0.15200  1.0000 0.1300099811
C   C1        1.0  0.93590  0.28940  0.29250  1.0000 -0.0914616956
C   C2        1.0  0.50310  0.21060  0.64650  1.0000 -0.0914616956
C   C3        1.0  0.06410  0.35660  0.35350  1.0000 -0.0914616956
C   C4        1.0  0.49690  0.14340  0.70750  1.0000 -0.0914616956
C   C5        1.0  0.06410  0.71060  0.70750  1.0000 -0.0914616956
C   C6        1.0  0.49690  0.78940  0.35350  1.0000 -0.0914616956
C   C7        1.0  0.93590  0.64340  0.64650  1.0000 -0.0914616956
C   C8        1.0  0.50310  0.85660  0.29250  1.0000 -0.0914616956
C   C9        1.0  0.87180  0.43250  0.43930  1.0000 -0.0217989364
C   C10       1.0  0.50680  0.06750  0.43930  1.0000 -0.0217989364
C   C11       1.0  0.12820  0.56750  0.56070  1.0000 -0.0217989364
C   C12       1.0  0.49320  0.93250  0.56070  1.0000 -0.0217989364
C   C13       1.0  0.73320  0.35930  0.37390  1.0000 0.5846908113
C   C14       1.0  0.51460  0.14070  0.37390  1.0000 0.5846908113
C   C15       1.0  0.26680  0.64070  0.62610  1.0000 0.5846908113
C   C16       1.0  0.48540  0.85930  0.62610  1.0000 0.5846908113
O   O1        1.0  0.43030  0.25000  0.18030  1.0000 -0.6864310482
O   O2        1.0  0.56970  0.75000  0.81970  1.0000 -0.6864310482
O   O3        1.0  0.68170  0.16570  0.18320  1.0000 -0.4802199581
O   O4        1.0  0.51750  0.33430  0.51600  1.0000 -0.4802199581
O   O5        1.0  0.31830  0.50150  0.48400  1.0000 -0.4802199581
O   O6        1.0  0.48250  0.99850  0.81680  1.0000 -0.4802199581
O   O7        1.0  0.31830  0.83430  0.81680  1.0000 -0.4802199581
O   O8        1.0  0.48250  0.66570  0.48400  1.0000 -0.4802199581
O   O9        1.0  0.68170  0.49850  0.51600  1.0000 -0.4802199581
O   O10       1.0  0.51750  0.00150  0.18320  1.0000 -0.4802199581
