# DDEC6 charges by PACMAN v1.1 (https://github.com/mtap-research/PACMAN-charge/)
data_2008[Zn][pcu]3[FSR]3
_chemical_formula_sum              "Zn10 H40 C60 N60 O40"
_cell_length_a       17.6323
_cell_length_b       17.6323
_cell_length_c       17.6323
_cell_angle_alpha    143.222
_cell_angle_beta     101.354
_cell_angle_gamma    90.1245

_symmetry_space_group_name_H-M    "P 1"
_symmetry_Int_Tables_number       1

loop_
  _symmetry_equiv_pos_as_xyz
  'x, y, z'

loop_
  _atom_site_type_symbol
  _atom_site_label
  _atom_site_symmetry_multiplicity
  _atom_site_fract_x
  _atom_site_fract_y
  _atom_site_fract_z
  _atom_site_occupancy
  _atom_site_charge
Zn  Zn1       1.0  0.67713  0.09379  0.02198  1.0000 0.6774293809
Zn  Zn2       1.0  0.07181  0.65515  0.97802  1.0000 0.6774293809
Zn  Zn3       1.0  0.42819  0.40621  0.58334  1.0000 0.6774293809
Zn  Zn4       1.0  0.82287  0.84485  0.41666  1.0000 0.6774293809
Zn  Zn5       1.0  0.32287  0.90621  0.97802  1.0000 0.6774293809
Zn  Zn6       1.0  0.92819  0.34485  0.02198  1.0000 0.6774293809
Zn  Zn7       1.0  0.57181  0.59379  0.41666  1.0000 0.6774293809
Zn  Zn8       1.0  0.17713  0.15515  0.58334  1.0000 0.6774293809
Zn  Zn9       1.0  0.75000  0.75000  0.00000  1.0000 0.6730155973
Zn  Zn10      1.0  0.25000  0.25000  0.00000  1.0000 0.6730155973
H   H1        1.0  0.88840  0.99120  0.14620  1.0000 0.1206605801
H   H2        1.0  0.84500  0.74220  0.85380  1.0000 0.1206605801
H   H3        1.0  0.65500  0.50880  0.89720  1.0000 0.1206605801
H   H4        1.0  0.61160  0.75780  0.10280  1.0000 0.1206605801
H   H5        1.0  0.11160  0.00880  0.85380  1.0000 0.1206605801
H   H6        1.0  0.15500  0.25780  0.14620  1.0000 0.1206605801
H   H7        1.0  0.34500  0.49120  0.10280  1.0000 0.1206605801
H   H8        1.0  0.38840  0.24220  0.89720  1.0000 0.1206605801
H   H9        1.0  0.85920  0.14570  0.17050  1.0000 0.1206605801
H   H10       1.0  0.97520  0.68870  0.82950  1.0000 0.1206605801
H   H11       1.0  0.52480  0.35430  0.71350  1.0000 0.1206605801
H   H12       1.0  0.64080  0.81130  0.28650  1.0000 0.1206605801
H   H13       1.0  0.14080  0.85430  0.82950  1.0000 0.1206605801
H   H14       1.0  0.02480  0.31130  0.17050  1.0000 0.1206605801
H   H15       1.0  0.47520  0.64570  0.28650  1.0000 0.1206605801
H   H16       1.0  0.35920  0.18870  0.71350  1.0000 0.1206605801
H   H17       1.0  0.66667  0.01660  0.78280  1.0000 0.1206605801
H   H18       1.0  0.23380  0.88380  0.21720  1.0000 0.1206605801
H   H19       1.0  0.26620  0.48340  0.65000  1.0000 0.1206605801
H   H20       1.0  0.83340  0.61620  0.35000  1.0000 0.1206605801
H   H21       1.0  0.33340  0.98340  0.21720  1.0000 0.1206605801
H   H22       1.0  0.76620  0.11620  0.78280  1.0000 0.1206605801
H   H23       1.0  0.73380  0.51660  0.35000  1.0000 0.1206605801
H   H24       1.0  0.16660  0.38380  0.65000  1.0000 0.1206605801
H   H25       1.0  0.45230  0.74350  0.58200  1.0000 0.1206605801
H   H26       1.0  0.16150  0.87030  0.41800  1.0000 0.1206605801
H   H27       1.0  0.33850  0.75650  0.70880  1.0000 0.1206605801
H   H28       1.0  0.04770  0.62970  0.29120  1.0000 0.1206605801
H   H29       1.0  0.54770  0.25650  0.41800  1.0000 0.1206605801
H   H30       1.0  0.83850  0.12970  0.58200  1.0000 0.1206605801
H   H31       1.0  0.66150  0.24350  0.29120  1.0000 0.1206605801
H   H32       1.0  0.95230  0.37030  0.70880  1.0000 0.1206605801
H   H33       1.0  0.49460  0.94810  0.82830  1.0000 0.1206605801
H   H34       1.0  0.11980  0.66630  0.17170  1.0000 0.1206605801
H   H35       1.0  0.38020  0.55190  0.54650  1.0000 0.1206605801
H   H36       1.0  0.00540  0.83370  0.45350  1.0000 0.1206605801
H   H37       1.0  0.50540  0.05190  0.17170  1.0000 0.1206605801
H   H38       1.0  0.88020  0.33370  0.82830  1.0000 0.1206605801
H   H39       1.0  0.61980  0.44810  0.45350  1.0000 0.1206605801
H   H40       1.0  0.99460  0.16630  0.54650  1.0000 0.1206605801
C   C1        1.0  0.83630  0.99550  0.12500  1.0000 0.0102555845
C   C2        1.0  0.87050  0.71130  0.87500  1.0000 0.0102555845
C   C3        1.0  0.62950  0.50450  0.84080  1.0000 0.0102555845
C   C4        1.0  0.66370  0.78870  0.15920  1.0000 0.0102555845
C   C5        1.0  0.16370  0.00450  0.87500  1.0000 0.0102555845
C   C6        1.0  0.12950  0.28870  0.12500  1.0000 0.0102555845
C   C7        1.0  0.37050  0.49550  0.15920  1.0000 0.0102555845
C   C8        1.0  0.33630  0.21130  0.84080  1.0000 0.0102555845
C   C9        1.0  0.82020  0.08090  0.13810  1.0000 -0.0047810457
C   C10       1.0  0.94280  0.68210  0.86190  1.0000 -0.0047810457
C   C11       1.0  0.55720  0.41910  0.73930  1.0000 -0.0047810457
C   C12       1.0  0.67980  0.81790  0.26070  1.0000 -0.0047810457
C   C13       1.0  0.17980  0.91910  0.86190  1.0000 -0.0047810457
C   C14       1.0  0.05720  0.31790  0.13810  1.0000 -0.0047810457
C   C15       1.0  0.44280  0.58090  0.26070  1.0000 -0.0047810457
C   C16       1.0  0.32020  0.18210  0.73930  1.0000 -0.0047810457
C   C17       1.0  0.71091  0.96101  0.06370  1.0000 0.2640202371
C   C18       1.0  0.89731  0.64721  0.93630  1.0000 0.2640202371
C   C19       1.0  0.60269  0.53899  0.74990  1.0000 0.2640202371
C   C20       1.0  0.78909  0.85279  0.25010  1.0000 0.2640202371
C   C21       1.0  0.28909  0.03899  0.93630  1.0000 0.2640202371
C   C22       1.0  0.10269  0.35279  0.06370  1.0000 0.2640202371
C   C23       1.0  0.39731  0.46101  0.25010  1.0000 0.2640202371
C   C24       1.0  0.21091  0.14721  0.74990  1.0000 0.2640202371
C   C25       1.0  0.80480  0.24130  0.04610  1.0000 0.3211591197
C   C26       1.0  0.19520  0.75870  0.95390  1.0000 0.3211591197
C   C27       1.0  0.30480  0.25870  0.56350  1.0000 0.3211591197
C   C28       1.0  0.69520  0.74130  0.43650  1.0000 0.3211591197
C   C29       1.0  0.71340  0.08770  0.85590  1.0000 -0.0229034461
C   C30       1.0  0.23180  0.85750  0.14410  1.0000 -0.0229034461
C   C31       1.0  0.26820  0.41230  0.62570  1.0000 -0.0229034461
C   C32       1.0  0.78660  0.64250  0.37430  1.0000 -0.0229034461
C   C33       1.0  0.28660  0.91230  0.14410  1.0000 -0.0229034461
C   C34       1.0  0.76820  0.14250  0.85590  1.0000 -0.0229034461
C   C35       1.0  0.73180  0.58770  0.37430  1.0000 -0.0229034461
C   C36       1.0  0.21340  0.35750  0.62570  1.0000 -0.0229034461
C   C37       1.0  0.62783  0.81773  0.72010  1.0000 0.2540161042
C   C38       1.0  0.09763  0.90773  0.27990  1.0000 0.2540161042
C   C39       1.0  0.40237  0.68227  0.81010  1.0000 0.2540161042
C   C40       1.0  0.87217  0.59227  0.18990  1.0000 0.2540161042
C   C41       1.0  0.37217  0.18227  0.27990  1.0000 0.2540161042
C   C42       1.0  0.90237  0.09227  0.72010  1.0000 0.2540161042
C   C43       1.0  0.59763  0.31773  0.18990  1.0000 0.2540161042
C   C44       1.0  0.12783  0.40773  0.81010  1.0000 0.2540161042
C   C45       1.0  0.50510  0.78180  0.64170  1.0000 -0.008535692
C   C46       1.0  0.14010  0.86340  0.35830  1.0000 -0.008535692
C   C47       1.0  0.35990  0.71820  0.72330  1.0000 -0.008535692
C   C48       1.0  0.99490  0.63660  0.27670  1.0000 -0.008535692
C   C49       1.0  0.49490  0.21820  0.35830  1.0000 -0.008535692
C   C50       1.0  0.85990  0.13660  0.64170  1.0000 -0.008535692
C   C51       1.0  0.64010  0.28180  0.27670  1.0000 -0.008535692
C   C52       1.0  0.00510  0.36340  0.72330  1.0000 -0.008535692
C   C53       1.0  0.52850  0.89500  0.77790  1.0000 -0.008535692
C   C54       1.0  0.11710  0.75060  0.22210  1.0000 -0.008535692
C   C55       1.0  0.38290  0.60500  0.63350  1.0000 -0.008535692
C   C56       1.0  0.97150  0.74940  0.36650  1.0000 -0.008535692
C   C57       1.0  0.47150  0.10500  0.22210  1.0000 -0.008535692
C   C58       1.0  0.88290  0.24940  0.77790  1.0000 -0.008535692
C   C59       1.0  0.61710  0.39500  0.36650  1.0000 -0.008535692
C   C60       1.0  0.02850  0.25060  0.63350  1.0000 -0.008535692
N   N1        1.0  0.76608  0.91781  0.07667  1.0000 -0.3208323062
N   N2        1.0  0.84114  0.68941  0.92333  1.0000 -0.3208323062
N   N3        1.0  0.65886  0.58219  0.84827  1.0000 -0.3208323062
N   N4        1.0  0.73392  0.81059  0.15173  1.0000 -0.3208323062
N   N5        1.0  0.23392  0.08219  0.92333  1.0000 -0.3208323062
N   N6        1.0  0.15886  0.31059  0.07667  1.0000 -0.3208323062
N   N7        1.0  0.34114  0.41781  0.15173  1.0000 -0.3208323062
N   N8        1.0  0.26608  0.18941  0.84827  1.0000 -0.3208323062
N   N9        1.0  0.73922  0.05787  0.09735  1.0000 -0.3208323062
N   N10       1.0  0.96052  0.64187  0.90265  1.0000 -0.3208323062
N   N11       1.0  0.53948  0.44213  0.68135  1.0000 -0.3208323062
N   N12       1.0  0.76078  0.85813  0.31865  1.0000 -0.3208323062
N   N13       1.0  0.26078  0.94213  0.90265  1.0000 -0.3208323062
N   N14       1.0  0.03948  0.35813  0.09735  1.0000 -0.3208323062
N   N15       1.0  0.46052  0.55787  0.31865  1.0000 -0.3208323062
N   N16       1.0  0.23922  0.14187  0.68135  1.0000 -0.3208323062
N   N17       1.0  0.62722  0.91038  0.02284  1.0000 0.4501475223
N   N18       1.0  0.88754  0.60438  0.97716  1.0000 0.4501475223
N   N19       1.0  0.61246  0.58962  0.71684  1.0000 0.4501475223
N   N20       1.0  0.87278  0.89562  0.28316  1.0000 0.4501475223
N   N21       1.0  0.37278  0.08962  0.97716  1.0000 0.4501475223
N   N22       1.0  0.11246  0.39562  0.02284  1.0000 0.4501475223
N   N23       1.0  0.38754  0.41038  0.28316  1.0000 0.4501475223
N   N24       1.0  0.12722  0.10438  0.71684  1.0000 0.4501475223
N   N25       1.0  0.73915  0.15685  0.98670  1.0000 -0.3500654968
N   N26       1.0  0.17015  0.75245  0.01330  1.0000 -0.3500654968
N   N27       1.0  0.32985  0.34315  0.58230  1.0000 -0.3500654968
N   N28       1.0  0.76085  0.74755  0.41770  1.0000 -0.3500654968
N   N29       1.0  0.26085  0.84315  0.01330  1.0000 -0.3500654968
N   N30       1.0  0.82985  0.24755  0.98670  1.0000 -0.3500654968
N   N31       1.0  0.67015  0.65685  0.41770  1.0000 -0.3500654968
N   N32       1.0  0.23915  0.25245  0.58230  1.0000 -0.3500654968
N   N33       1.0  0.84810  0.33930  0.18740  1.0000 0.4501475223
N   N34       1.0  0.15190  0.66070  0.81260  1.0000 0.4501475223
N   N35       1.0  0.34810  0.16070  0.50880  1.0000 0.4501475223
N   N36       1.0  0.65190  0.83930  0.49120  1.0000 0.4501475223
N   N37       1.0  0.60758  0.91972  0.83006  1.0000 -0.3208323062
N   N38       1.0  0.08966  0.77752  0.16994  1.0000 -0.3208323062
N   N39       1.0  0.41034  0.58028  0.68786  1.0000 -0.3208323062
N   N40       1.0  0.89242  0.72248  0.31214  1.0000 -0.3208323062
N   N41       1.0  0.39242  0.08028  0.16994  1.0000 -0.3208323062
N   N42       1.0  0.91034  0.22248  0.83006  1.0000 -0.3208323062
N   N43       1.0  0.58966  0.41972  0.31214  1.0000 -0.3208323062
N   N44       1.0  0.10758  0.27752  0.68786  1.0000 -0.3208323062
N   N45       1.0  0.56896  0.73244  0.60432  1.0000 -0.3107889863
N   N46       1.0  0.12812  0.96464  0.39568  1.0000 -0.3107889863
N   N47       1.0  0.37188  0.76756  0.83652  1.0000 -0.3107889863
N   N48       1.0  0.93104  0.53536  0.16348  1.0000 -0.3107889863
N   N49       1.0  0.43104  0.26756  0.39568  1.0000 -0.3107889863
N   N50       1.0  0.87188  0.03536  0.60432  1.0000 -0.3107889863
N   N51       1.0  0.62812  0.23244  0.16348  1.0000 -0.3107889863
N   N52       1.0  0.06896  0.46464  0.83652  1.0000 -0.3107889863
N   N53       1.0  0.70639  0.79989  0.72790  1.0000 0.462887588
N   N54       1.0  0.07199  0.97849  0.27210  1.0000 0.462887588
N   N55       1.0  0.42801  0.70011  0.90650  1.0000 0.462887588
N   N56       1.0  0.79361  0.52151  0.09350  1.0000 0.462887588
N   N57       1.0  0.29361  0.20011  0.27210  1.0000 0.462887588
N   N58       1.0  0.92801  0.02151  0.72790  1.0000 0.462887588
N   N59       1.0  0.57199  0.29989  0.09350  1.0000 0.462887588
N   N60       1.0  0.20639  0.47849  0.90650  1.0000 0.462887588
O   O1        1.0  0.60682  0.82457  0.99905  1.0000 -0.3345733555
O   O2        1.0  0.82552  0.60777  0.00095  1.0000 -0.3345733555
O   O3        1.0  0.67448  0.67543  0.78225  1.0000 -0.3345733555
O   O4        1.0  0.89318  0.89223  0.21775  1.0000 -0.3345733555
O   O5        1.0  0.39318  0.17543  0.00095  1.0000 -0.3345733555
O   O6        1.0  0.17448  0.39223  0.99905  1.0000 -0.3345733555
O   O7        1.0  0.32552  0.32457  0.21775  1.0000 -0.3345733555
O   O8        1.0  0.10682  0.10777  0.78225  1.0000 -0.3345733555
O   O9        1.0  0.57968  0.95730  0.01618  1.0000 -0.3208323062
O   O10       1.0  0.94112  0.56350  0.98382  1.0000 -0.3208323062
O   O11       1.0  0.55888  0.54270  0.62238  1.0000 -0.3208323062
O   O12       1.0  0.92032  0.93650  0.37762  1.0000 -0.3208323062
O   O13       1.0  0.42032  0.04270  0.98382  1.0000 -0.3208323062
O   O14       1.0  0.05888  0.43650  0.01618  1.0000 -0.3208323062
O   O15       1.0  0.44112  0.45730  0.37762  1.0000 -0.3208323062
O   O16       1.0  0.07968  0.06350  0.62238  1.0000 -0.3208323062
O   O17       1.0  0.75913  0.88557  0.83856  1.0000 -0.3208323062
O   O18       1.0  0.04701  0.92057  0.16144  1.0000 -0.3208323062
O   O19       1.0  0.45299  0.61443  0.87356  1.0000 -0.3208323062
O   O20       1.0  0.74087  0.57943  0.12644  1.0000 -0.3208323062
O   O21       1.0  0.24087  0.11443  0.16144  1.0000 -0.3208323062
O   O22       1.0  0.95299  0.07943  0.83856  1.0000 -0.3208323062
O   O23       1.0  0.54701  0.38557  0.12644  1.0000 -0.3208323062
O   O24       1.0  0.25913  0.42057  0.87356  1.0000 -0.3208323062
O   O25       1.0  0.82069  0.33533  0.24296  1.0000 -0.3107889863
O   O26       1.0  0.09237  0.57773  0.75704  1.0000 -0.3107889863
O   O27       1.0  0.40763  0.16467  0.48536  1.0000 -0.3107889863
O   O28       1.0  0.67931  0.92227  0.51464  1.0000 -0.3107889863
O   O29       1.0  0.17931  0.66467  0.75704  1.0000 -0.3107889863
O   O30       1.0  0.90763  0.42227  0.24296  1.0000 -0.3107889863
O   O31       1.0  0.59237  0.83533  0.51464  1.0000 -0.3107889863
O   O32       1.0  0.32069  0.07773  0.48536  1.0000 -0.3107889863
O   O33       1.0  0.71691  0.69704  0.62147  1.0000 -0.3208323062
O   O34       1.0  0.07557  0.09544  0.37853  1.0000 -0.3208323062
O   O35       1.0  0.42443  0.80296  0.01987  1.0000 -0.3208323062
O   O36       1.0  0.78309  0.40456  0.98013  1.0000 -0.3208323062
O   O37       1.0  0.28309  0.30296  0.37853  1.0000 -0.3208323062
O   O38       1.0  0.92443  0.90456  0.62147  1.0000 -0.3208323062
O   O39       1.0  0.57557  0.19704  0.98013  1.0000 -0.3208323062
O   O40       1.0  0.21691  0.59544  0.01987  1.0000 -0.3208323062
