# DDEC6 charges by PACMAN v1.1 (https://github.com/mtap-research/PACMAN-charge/)
data_2008[Nd][nan]3[FSR]2
_chemical_formula_sum              "Nd4 H8 C20 O32"
_cell_length_a       15.8846
_cell_length_b       14.7099
_cell_length_c       9.13042
_cell_angle_alpha    79.8311
_cell_angle_beta     65.7133
_cell_angle_gamma    34.4556

_symmetry_space_group_name_H-M    "P 1"
_symmetry_Int_Tables_number       1

loop_
  _symmetry_equiv_pos_as_xyz
  'x, y, z'

loop_
  _atom_site_type_symbol
  _atom_site_label
  _atom_site_symmetry_multiplicity
  _atom_site_fract_x
  _atom_site_fract_y
  _atom_site_fract_z
  _atom_site_occupancy
  _atom_site_charge
Nd  Nd1       1.0  0.63440  0.63440  0.86560  1.0000 2.0357269
Nd  Nd2       1.0  0.86560  0.86560  0.63440  1.0000 2.0357269
Nd  Nd3       1.0  0.61560  0.61560  0.38440  1.0000 2.0329179715
Nd  Nd4       1.0  0.38440  0.38440  0.61560  1.0000 2.0329179715
H   H1        1.0  0.06300  0.26100  0.24900  1.0000 0.1552161674
H   H2        1.0  0.42700  0.24900  0.26100  1.0000 0.1552161674
H   H3        1.0  0.24900  0.42700  0.06300  1.0000 0.1552161674
H   H4        1.0  0.26100  0.06300  0.42700  1.0000 0.1552161674
H   H5        1.0  0.18700  0.98900  0.00100  1.0000 0.1552161674
H   H6        1.0  0.82300  0.00100  0.98900  1.0000 0.1552161674
H   H7        1.0  0.00100  0.82300  0.18700  1.0000 0.1552161674
H   H8        1.0  0.98900  0.18700  0.82300  1.0000 0.1552161674
C   C1        1.0  0.69970  0.80030  0.69970  1.0000 0.5018066119
C   C2        1.0  0.80030  0.69970  0.80030  1.0000 0.5018066119
C   C3        1.0  0.55030  0.44970  0.55030  1.0000 0.5018066119
C   C4        1.0  0.44970  0.55030  0.44970  1.0000 0.5018066119
C   C5        1.0  0.93128  0.37708  0.50572  1.0000 0.657603855
C   C6        1.0  0.18592  0.50572  0.37708  1.0000 0.657603855
C   C7        1.0  0.50572  0.18592  0.93128  1.0000 0.657603855
C   C8        1.0  0.37708  0.93128  0.18592  1.0000 0.657603855
C   C9        1.0  0.31872  0.87292  0.74428  1.0000 0.657603855
C   C10       1.0  0.06408  0.74428  0.87292  1.0000 0.657603855
C   C11       1.0  0.74428  0.06408  0.31872  1.0000 0.657603855
C   C12       1.0  0.87292  0.31872  0.06408  1.0000 0.657603855
C   C13       1.0  0.08409  0.23089  0.34631  1.0000 -0.1684248403
C   C14       1.0  0.33871  0.34631  0.23089  1.0000 -0.1684248403
C   C15       1.0  0.34631  0.33871  0.08409  1.0000 -0.1684248403
C   C16       1.0  0.23089  0.08409  0.33871  1.0000 -0.1684248403
C   C17       1.0  0.16591  0.01911  0.90369  1.0000 -0.1684248403
C   C18       1.0  0.91129  0.90369  0.01911  1.0000 -0.1684248403
C   C19       1.0  0.90369  0.91129  0.16591  1.0000 -0.1684248403
C   C20       1.0  0.01911  0.16591  0.91129  1.0000 -0.1684248403
O   O1        1.0  0.63411  0.78593  0.69267  1.0000 -0.525235777
O   O2        1.0  0.88729  0.69267  0.78593  1.0000 -0.525235777
O   O3        1.0  0.69267  0.88729  0.63411  1.0000 -0.525235777
O   O4        1.0  0.78593  0.63411  0.88729  1.0000 -0.525235777
O   O5        1.0  0.61589  0.46407  0.55733  1.0000 -0.525235777
O   O6        1.0  0.36271  0.55733  0.46407  1.0000 -0.525235777
O   O7        1.0  0.55733  0.36271  0.61589  1.0000 -0.525235777
O   O8        1.0  0.46407  0.61589  0.36271  1.0000 -0.525235777
O   O9        1.0  0.94044  0.38558  0.63162  1.0000 -0.6033898641
O   O10       1.0  0.04236  0.63162  0.38558  1.0000 -0.6033898641
O   O11       1.0  0.63162  0.04236  0.94044  1.0000 -0.6033898641
O   O12       1.0  0.38558  0.94044  0.04236  1.0000 -0.6033898641
O   O13       1.0  0.30956  0.86442  0.61838  1.0000 -0.6033898641
O   O14       1.0  0.20764  0.61838  0.86442  1.0000 -0.6033898641
O   O15       1.0  0.61838  0.20764  0.30956  1.0000 -0.6033898641
O   O16       1.0  0.86442  0.30956  0.20764  1.0000 -0.6033898641
O   O17       1.0  0.40620  0.71440  0.08840  1.0000 -0.1425764333
O   O18       1.0  0.79100  0.08840  0.71440  1.0000 -0.1425764333
O   O19       1.0  0.08840  0.79100  0.40620  1.0000 -0.1425764333
O   O20       1.0  0.71440  0.40620  0.79100  1.0000 -0.1425764333
O   O21       1.0  0.84380  0.53560  0.16160  1.0000 -0.1425764333
O   O22       1.0  0.45900  0.16160  0.53560  1.0000 -0.1462017496
O   O23       1.0  0.16160  0.45900  0.84380  1.0000 -0.1425764333
O   O24       1.0  0.53560  0.84380  0.45900  1.0000 -0.1425764333
O   O25       1.0  0.79189  0.49073  0.50807  1.0000 -0.640804467
O   O26       1.0  0.20931  0.50807  0.49073  1.0000 -0.640804467
O   O27       1.0  0.50807  0.20931  0.79189  1.0000 -0.640804467
O   O28       1.0  0.49073  0.79189  0.20931  1.0000 -0.640804467
O   O29       1.0  0.45811  0.75927  0.74193  1.0000 -0.640804467
O   O30       1.0  0.04069  0.74193  0.75927  1.0000 -0.640804467
O   O31       1.0  0.74193  0.04069  0.45811  1.0000 -0.640804467
O   O32       1.0  0.75927  0.45811  0.04069  1.0000 -0.640804467
