# DDEC6 charges by PACMAN v1.1 (https://github.com/mtap-research/PACMAN-charge/)
data_2008[Zn][cdq]3[FSR]1
_chemical_formula_sum              "Zn8 H128 C172 N8 O48"
_cell_length_a       13.9966
_cell_length_b       13.9966
_cell_length_c       30.521
_cell_angle_alpha    85.0828
_cell_angle_beta     94.9172
_cell_angle_gamma    91.4792

_symmetry_space_group_name_H-M    "P 1"
_symmetry_Int_Tables_number       1

loop_
  _symmetry_equiv_pos_as_xyz
  'x, y, z'

loop_
  _atom_site_type_symbol
  _atom_site_label
  _atom_site_symmetry_multiplicity
  _atom_site_fract_x
  _atom_site_fract_y
  _atom_site_fract_z
  _atom_site_occupancy
  _atom_site_charge
Zn  Zn1       1.0  0.39813  0.19503  0.03120  1.0000 0.8294703926
Zn  Zn2       1.0  0.80497  0.60187  0.53120  1.0000 0.8294703926
Zn  Zn3       1.0  0.18847  0.19571  0.01458  1.0000 0.8294703926
Zn  Zn4       1.0  0.80429  0.81153  0.51458  1.0000 0.8294703926
Zn  Zn5       1.0  0.19503  0.39813  0.46880  1.0000 0.8294703926
Zn  Zn6       1.0  0.60187  0.80497  0.96880  1.0000 0.8294703926
Zn  Zn7       1.0  0.19571  0.18847  0.48542  1.0000 0.8294703926
Zn  Zn8       1.0  0.81153  0.80429  0.98542  1.0000 0.8294703926
H   H1        1.0  0.16810  0.68910  0.21740  1.0000 0.1012304183
H   H2        1.0  0.31090  0.83190  0.71740  1.0000 0.1012304183
H   H3        1.0  0.19560  0.77380  0.24710  1.0000 0.1012304183
H   H4        1.0  0.22620  0.80440  0.74710  1.0000 0.1012304183
H   H5        1.0  0.43130  0.82290  0.17070  1.0000 0.1381452962
H   H6        1.0  0.17710  0.56870  0.67070  1.0000 0.1381452962
H   H7        1.0  0.42330  0.94050  0.11510  1.0000 0.1101060712
H   H8        1.0  0.05950  0.57670  0.61510  1.0000 0.1101060712
H   H9        1.0  0.13840  0.94720  0.11600  1.0000 0.1199717025
H   H10       1.0  0.05280  0.86160  0.61600  1.0000 0.1199717025
H   H11       1.0  0.14460  0.82720  0.17240  1.0000 0.1199717025
H   H12       1.0  0.17280  0.85540  0.67240  1.0000 0.1199717025
H   H13       1.0  0.18410  0.57190  0.32500  1.0000 0.1101060712
H   H14       1.0  0.42810  0.81590  0.82500  1.0000 0.1101060712
H   H15       1.0  0.11780  0.58320  0.28050  1.0000 0.1101060712
H   H16       1.0  0.41680  0.88220  0.78050  1.0000 0.1101060712
H   H17       1.0  0.04870  0.55450  0.35750  1.0000 0.1320164684
H   H18       1.0  0.44550  0.95130  0.85750  1.0000 0.1320164684
H   H19       1.0  0.96310  0.56330  0.41770  1.0000 0.1199717025
H   H20       1.0  0.43670  0.03690  0.91770  1.0000 0.1101060712
H   H21       1.0  0.98760  0.84960  0.40610  1.0000 0.1101060712
H   H22       1.0  0.15040  0.01240  0.90610  1.0000 0.1101060712
H   H23       1.0  0.07460  0.84240  0.34570  1.0000 0.1381452962
H   H24       1.0  0.15760  0.92540  0.84570  1.0000 0.1381452962
H   H25       1.0  0.30440  0.75040  0.31400  1.0000 0.1012304183
H   H26       1.0  0.24960  0.69560  0.81400  1.0000 0.1012304183
H   H27       1.0  0.38500  0.71040  0.28790  1.0000 0.1012304183
H   H28       1.0  0.28960  0.61500  0.78790  1.0000 0.1012304183
H   H29       1.0  0.45550  0.78270  0.34890  1.0000 0.1199717025
H   H30       1.0  0.21730  0.54450  0.84890  1.0000 0.1199717025
H   H31       1.0  0.57460  0.81280  0.40290  1.0000 0.1199717025
H   H32       1.0  0.18720  0.42540  0.90290  1.0000 0.1199717025
H   H33       1.0  0.54120  0.54360  0.45860  1.0000 0.1199717025
H   H34       1.0  0.45640  0.45880  0.95860  1.0000 0.1199717025
H   H35       1.0  0.41610  0.51770  0.40590  1.0000 0.1320164684
H   H36       1.0  0.48230  0.58390  0.90590  1.0000 0.1320164684
H   H37       1.0  0.34940  0.57800  0.23980  1.0000 0.1012304183
H   H38       1.0  0.42200  0.65060  0.73980  1.0000 0.1012304183
H   H39       1.0  0.31610  0.51170  0.28020  1.0000 0.1012304183
H   H40       1.0  0.48830  0.68390  0.78020  1.0000 0.1012304183
H   H41       1.0  0.10790  0.44510  0.17310  1.0000 0.1320164684
H   H42       1.0  0.55490  0.89210  0.67310  1.0000 0.1320164684
H   H43       1.0  0.13660  0.35240  0.11690  1.0000 0.1101060712
H   H44       1.0  0.64760  0.86340  0.61690  1.0000 0.1101060712
H   H45       1.0  0.41820  0.36160  0.15310  1.0000 0.1101060712
H   H46       1.0  0.63840  0.58180  0.65310  1.0000 0.1101060712
H   H47       1.0  0.39180  0.45480  0.21000  1.0000 0.1199717025
H   H48       1.0  0.54520  0.60820  0.71000  1.0000 0.1199717025
H   H49       1.0  0.53960  0.12300  0.97510  1.0000 0.1199717025
H   H50       1.0  0.87700  0.46040  0.47510  1.0000 0.1199717025
H   H51       1.0  0.70170  0.12710  0.96790  1.0000 0.1320164684
H   H52       1.0  0.87290  0.29830  0.46790  1.0000 0.1320164684
H   H53       1.0  0.74050  0.26250  0.07910  1.0000 0.1320164684
H   H54       1.0  0.73750  0.25950  0.57910  1.0000 0.1320164684
H   H55       1.0  0.57880  0.25460  0.08310  1.0000 0.1101060712
H   H56       1.0  0.74540  0.42120  0.58310  1.0000 0.1101060712
H   H57       1.0  0.03830  0.32170  0.04100  1.0000 0.1199717025
H   H58       1.0  0.67830  0.96170  0.54100  1.0000 0.1199717025
H   H59       1.0  0.87630  0.32110  0.04640  1.0000 0.1381452962
H   H60       1.0  0.67890  0.12370  0.54640  1.0000 0.1381452962
H   H61       1.0  0.85320  0.07760  0.98700  1.0000 0.1381452962
H   H62       1.0  0.92240  0.14680  0.48700  1.0000 0.1381452962
H   H63       1.0  0.01720  0.08680  0.98130  1.0000 0.1101060712
H   H64       1.0  0.91320  0.98280  0.48130  1.0000 0.1101060712
H   H65       1.0  0.68910  0.16810  0.28260  1.0000 0.1012304183
H   H66       1.0  0.83190  0.31090  0.78260  1.0000 0.1012304183
H   H67       1.0  0.77380  0.19560  0.25290  1.0000 0.1012304183
H   H68       1.0  0.80440  0.22620  0.75290  1.0000 0.1012304183
H   H69       1.0  0.82290  0.43130  0.32930  1.0000 0.1381452962
H   H70       1.0  0.56870  0.17710  0.82930  1.0000 0.1381452962
H   H71       1.0  0.94050  0.42330  0.38490  1.0000 0.1101060712
H   H72       1.0  0.57670  0.05950  0.88490  1.0000 0.1101060712
H   H73       1.0  0.94720  0.13840  0.38400  1.0000 0.1199717025
H   H74       1.0  0.86160  0.05280  0.88400  1.0000 0.1199717025
H   H75       1.0  0.82720  0.14460  0.32760  1.0000 0.1199717025
H   H76       1.0  0.85540  0.17280  0.82760  1.0000 0.1199717025
H   H77       1.0  0.57190  0.18410  0.17500  1.0000 0.1101060712
H   H78       1.0  0.81590  0.42810  0.67500  1.0000 0.1101060712
H   H79       1.0  0.58320  0.11780  0.21950  1.0000 0.1101060712
H   H80       1.0  0.88220  0.41680  0.71950  1.0000 0.1101060712
H   H81       1.0  0.55450  0.04870  0.14250  1.0000 0.1320164684
H   H82       1.0  0.95130  0.44550  0.64250  1.0000 0.1320164684
H   H83       1.0  0.56330  0.96310  0.08230  1.0000 0.1199717025
H   H84       1.0  0.03690  0.43670  0.58230  1.0000 0.1101060712
H   H85       1.0  0.84960  0.98760  0.09390  1.0000 0.1101060712
H   H86       1.0  0.01240  0.15040  0.59390  1.0000 0.1101060712
H   H87       1.0  0.84240  0.07460  0.15430  1.0000 0.1381452962
H   H88       1.0  0.92540  0.15760  0.65430  1.0000 0.1381452962
H   H89       1.0  0.75040  0.30440  0.18600  1.0000 0.1012304183
H   H90       1.0  0.69560  0.24960  0.68600  1.0000 0.1012304183
H   H91       1.0  0.71040  0.38500  0.21210  1.0000 0.1012304183
H   H92       1.0  0.61500  0.28960  0.71210  1.0000 0.1012304183
H   H93       1.0  0.78270  0.45550  0.15110  1.0000 0.1199717025
H   H94       1.0  0.54450  0.21730  0.65110  1.0000 0.1199717025
H   H95       1.0  0.81280  0.57460  0.09710  1.0000 0.1199717025
H   H96       1.0  0.42540  0.18720  0.59710  1.0000 0.1199717025
H   H97       1.0  0.54360  0.54120  0.04140  1.0000 0.1199717025
H   H98       1.0  0.45880  0.45640  0.54140  1.0000 0.1199717025
H   H99       1.0  0.51770  0.41610  0.09410  1.0000 0.1320164684
H   H100      1.0  0.58390  0.48230  0.59410  1.0000 0.1320164684
H   H101      1.0  0.57800  0.34940  0.26020  1.0000 0.1012304183
H   H102      1.0  0.65060  0.42200  0.76020  1.0000 0.1012304183
H   H103      1.0  0.51170  0.31610  0.21980  1.0000 0.1012304183
H   H104      1.0  0.68390  0.48830  0.71980  1.0000 0.1012304183
H   H105      1.0  0.44510  0.10790  0.32690  1.0000 0.1320164684
H   H106      1.0  0.89210  0.55490  0.82690  1.0000 0.1320164684
H   H107      1.0  0.35240  0.13660  0.38310  1.0000 0.1101060712
H   H108      1.0  0.86340  0.64760  0.88310  1.0000 0.1101060712
H   H109      1.0  0.36160  0.41820  0.34690  1.0000 0.1101060712
H   H110      1.0  0.58180  0.63840  0.84690  1.0000 0.1101060712
H   H111      1.0  0.45480  0.39180  0.29000  1.0000 0.1199717025
H   H112      1.0  0.60820  0.54520  0.79000  1.0000 0.1199717025
H   H113      1.0  0.12300  0.53960  0.52490  1.0000 0.1199717025
H   H114      1.0  0.46040  0.87700  0.02490  1.0000 0.1199717025
H   H115      1.0  0.12710  0.70170  0.53210  1.0000 0.1320164684
H   H116      1.0  0.29830  0.87290  0.03210  1.0000 0.1320164684
H   H117      1.0  0.26250  0.74050  0.42090  1.0000 0.1320164684
H   H118      1.0  0.25950  0.73750  0.92090  1.0000 0.1320164684
H   H119      1.0  0.25460  0.57880  0.41690  1.0000 0.1101060712
H   H120      1.0  0.42120  0.74540  0.91690  1.0000 0.1101060712
H   H121      1.0  0.32170  0.03830  0.45900  1.0000 0.1199717025
H   H122      1.0  0.96170  0.67830  0.95900  1.0000 0.1199717025
H   H123      1.0  0.32110  0.87630  0.45360  1.0000 0.1381452962
H   H124      1.0  0.12370  0.67890  0.95360  1.0000 0.1381452962
H   H125      1.0  0.07760  0.85320  0.51300  1.0000 0.1381452962
H   H126      1.0  0.14680  0.92240  0.01300  1.0000 0.1381452962
H   H127      1.0  0.08680  0.01720  0.51870  1.0000 0.1101060712
H   H128      1.0  0.98280  0.91320  0.01870  1.0000 0.1101060712
C   C1        1.0  0.25290  0.64470  0.27423  1.0000 0.0799735024
C   C2        1.0  0.35530  0.74710  0.77423  1.0000 0.0799735024
C   C3        1.0  0.21940  0.71700  0.23592  1.0000 -0.0906451081
C   C4        1.0  0.28300  0.78060  0.73592  1.0000 -0.0906451081
C   C5        1.0  0.28820  0.81300  0.17761  1.0000 0.253044356
C   C6        1.0  0.18700  0.71180  0.67761  1.0000 0.253044356
C   C7        1.0  0.37230  0.84810  0.15990  1.0000 -0.1991706897
C   C8        1.0  0.15190  0.62770  0.65990  1.0000 -0.1991706897
C   C9        1.0  0.36700  0.91880  0.12710  1.0000 -0.1054322288
C   C10       1.0  0.08120  0.63300  0.62710  1.0000 -0.1054322288
C   C11       1.0  0.28120  0.96080  0.11037  1.0000 -0.0610164657
C   C12       1.0  0.03920  0.71880  0.61037  1.0000 -0.0610164657
C   C13       1.0  0.19750  0.92290  0.12750  1.0000 -0.0906451081
C   C14       1.0  0.07710  0.80250  0.62750  1.0000 -0.0906451081
C   C15       1.0  0.20090  0.85070  0.16100  1.0000 -0.2276088593
C   C16       1.0  0.14930  0.79910  0.66100  1.0000 -0.2276088593
C   C17       1.0  0.28060  0.04440  0.07694  1.0000 0.5689033459
C   C18       1.0  0.95560  0.71940  0.57694  1.0000 0.5689033459
C   C19       1.0  0.16580  0.61500  0.29930  1.0000 -0.0906451081
C   C20       1.0  0.38500  0.83420  0.79930  1.0000 -0.0906451081
C   C21       1.0  0.07380  0.69840  0.34605  1.0000 0.2604737322
C   C22       1.0  0.30160  0.92620  0.84605  1.0000 0.2604737322
C   C23       1.0  0.03730  0.61390  0.36750  1.0000 -0.2472875028
C   C24       1.0  0.38610  0.96270  0.86750  1.0000 -0.2472875028
C   C25       1.0  0.98510  0.61950  0.40310  1.0000 -0.0819863885
C   C26       1.0  0.38050  0.01490  0.90310  1.0000 -0.0819863885
C   C27       1.0  0.96400  0.70660  0.41775  1.0000 -0.0610164657
C   C28       1.0  0.29340  0.03600  0.91775  1.0000 -0.0610164657
C   C29       1.0  0.99960  0.79040  0.39620  1.0000 -0.0906451081
C   C30       1.0  0.20960  0.00040  0.89620  1.0000 -0.0906451081
C   C31       1.0  0.05270  0.78610  0.36030  1.0000 -0.2370223176
C   C32       1.0  0.21390  0.94730  0.86030  1.0000 -0.2370223176
C   C33       1.0  0.90690  0.71110  0.45655  1.0000 0.5767148923
C   C34       1.0  0.28890  0.09310  0.95655  1.0000 0.5767148923
C   C35       1.0  0.32920  0.69300  0.30380  1.0000 -0.1005788703
C   C36       1.0  0.30700  0.67080  0.80380  1.0000 -0.1005788703
C   C37       1.0  0.42490  0.64710  0.37134  1.0000 0.253044356
C   C38       1.0  0.35290  0.57510  0.87134  1.0000 0.253044356
C   C39       1.0  0.47240  0.73500  0.37110  1.0000 -0.2472875028
C   C40       1.0  0.26500  0.52760  0.87110  1.0000 -0.2472875028
C   C41       1.0  0.54420  0.75300  0.40320  1.0000 -0.0819863885
C   C42       1.0  0.24700  0.45580  0.90320  1.0000 -0.0819863885
C   C43       1.0  0.57130  0.68030  0.43667  1.0000 -0.0483645049
C   C44       1.0  0.31970  0.42870  0.93667  1.0000 -0.0483645049
C   C45       1.0  0.52350  0.59210  0.43690  1.0000 -0.0819863885
C   C46       1.0  0.40790  0.47650  0.93690  1.0000 -0.0819863885
C   C47       1.0  0.44940  0.57600  0.40490  1.0000 -0.2276088593
C   C48       1.0  0.42400  0.55060  0.90490  1.0000 -0.2276088593
C   C49       1.0  0.65470  0.69470  0.46948  1.0000 0.5895890783
C   C50       1.0  0.30530  0.34530  0.96948  1.0000 0.5895890783
C   C51       1.0  0.29490  0.55830  0.25618  1.0000 -0.0906451081
C   C52       1.0  0.44170  0.70510  0.75618  1.0000 -0.0906451081
C   C53       1.0  0.24650  0.46150  0.19648  1.0000 0.2678526829
C   C54       1.0  0.53850  0.75350  0.69648  1.0000 0.2678526829
C   C55       1.0  0.17040  0.42940  0.16890  1.0000 -0.2235493675
C   C56       1.0  0.57060  0.82960  0.66890  1.0000 -0.2235493675
C   C57       1.0  0.18770  0.37430  0.13510  1.0000 -0.0906451081
C   C58       1.0  0.62570  0.81230  0.63510  1.0000 -0.0906451081
C   C59       1.0  0.28040  0.35140  0.12815  1.0000 -0.0420139578
C   C60       1.0  0.64860  0.71960  0.62815  1.0000 -0.0420139578
C   C61       1.0  0.35630  0.37990  0.15688  1.0000 -0.0906451081
C   C62       1.0  0.62010  0.64370  0.65688  1.0000 -0.0906451081
C   C63       1.0  0.34070  0.43530  0.19104  1.0000 -0.2472875028
C   C64       1.0  0.56470  0.65930  0.69104  1.0000 -0.2472875028
C   C65       1.0  0.29740  0.29320  0.09041  1.0000 0.5895890783
C   C66       1.0  0.70680  0.70260  0.59041  1.0000 0.5895890783
C   C67       1.0  0.58070  0.15130  0.99610  1.0000 0.0929423239
C   C68       1.0  0.84870  0.41930  0.49610  1.0000 0.0929423239
C   C69       1.0  0.67820  0.15340  0.99170  1.0000 -0.1819391073
C   C70       1.0  0.84660  0.32180  0.49170  1.0000 -0.1819391073
C   C71       1.0  0.74100  0.19420  0.02249  1.0000 0.1101060712
C   C72       1.0  0.80580  0.25900  0.52249  1.0000 0.1101060712
C   C73       1.0  0.70130  0.23370  0.05765  1.0000 -0.1910076672
C   C74       1.0  0.76630  0.29870  0.55765  1.0000 -0.1910076672
C   C75       1.0  0.60420  0.22880  0.05963  1.0000 0.0929423239
C   C76       1.0  0.77120  0.39580  0.55963  1.0000 0.0929423239
C   C77       1.0  0.00060  0.27160  0.03030  1.0000 0.0710272233
C   C78       1.0  0.72840  0.99940  0.53030  1.0000 0.0710272233
C   C79       1.0  0.90340  0.27100  0.03380  1.0000 -0.1910076672
C   C80       1.0  0.72900  0.09660  0.53380  1.0000 -0.1910076672
C   C81       1.0  0.84520  0.19720  0.01880  1.0000 0.1101060712
C   C82       1.0  0.80280  0.15480  0.51880  1.0000 0.1101060712
C   C83       1.0  0.88930  0.12770  0.99860  1.0000 -0.1991706897
C   C84       1.0  0.87230  0.11070  0.49860  1.0000 -0.1991706897
C   C85       1.0  0.98870  0.13350  0.99550  1.0000 0.1101060712
C   C86       1.0  0.86650  0.01130  0.49550  1.0000 0.1101060712
C   C87       1.0  0.64470  0.25290  0.22577  1.0000 0.0799735024
C   C88       1.0  0.74710  0.35530  0.72577  1.0000 0.0799735024
C   C89       1.0  0.71700  0.21940  0.26408  1.0000 -0.0906451081
C   C90       1.0  0.78060  0.28300  0.76408  1.0000 -0.0906451081
C   C91       1.0  0.81300  0.28820  0.32239  1.0000 0.253044356
C   C92       1.0  0.71180  0.18700  0.82239  1.0000 0.253044356
C   C93       1.0  0.84810  0.37230  0.34010  1.0000 -0.1991706897
C   C94       1.0  0.62770  0.15190  0.84010  1.0000 -0.1991706897
C   C95       1.0  0.91880  0.36700  0.37290  1.0000 -0.1054322288
C   C96       1.0  0.63300  0.08120  0.87290  1.0000 -0.1054322288
C   C97       1.0  0.96080  0.28120  0.38963  1.0000 -0.0610164657
C   C98       1.0  0.71880  0.03920  0.88963  1.0000 -0.0610164657
C   C99       1.0  0.92290  0.19750  0.37250  1.0000 -0.0906451081
C   C100      1.0  0.80250  0.07710  0.87250  1.0000 -0.0906451081
C   C101      1.0  0.85070  0.20090  0.33900  1.0000 -0.2276088593
C   C102      1.0  0.79910  0.14930  0.83900  1.0000 -0.2276088593
C   C103      1.0  0.04440  0.28060  0.42306  1.0000 0.5689033459
C   C104      1.0  0.71940  0.95560  0.92306  1.0000 0.5689033459
C   C105      1.0  0.61500  0.16580  0.20070  1.0000 -0.0906451081
C   C106      1.0  0.83420  0.38500  0.70070  1.0000 -0.0906451081
C   C107      1.0  0.69840  0.07380  0.15395  1.0000 0.2604737322
C   C108      1.0  0.92620  0.30160  0.65395  1.0000 0.2604737322
C   C109      1.0  0.61390  0.03730  0.13250  1.0000 -0.2472875028
C   C110      1.0  0.96270  0.38610  0.63250  1.0000 -0.2472875028
C   C111      1.0  0.61950  0.98510  0.09690  1.0000 -0.0819863885
C   C112      1.0  0.01490  0.38050  0.59690  1.0000 -0.0819863885
C   C113      1.0  0.70660  0.96400  0.08225  1.0000 -0.0610164657
C   C114      1.0  0.03600  0.29340  0.58225  1.0000 -0.0610164657
C   C115      1.0  0.79040  0.99960  0.10380  1.0000 -0.0906451081
C   C116      1.0  0.00040  0.20960  0.60380  1.0000 -0.0906451081
C   C117      1.0  0.78610  0.05270  0.13970  1.0000 -0.2370223176
C   C118      1.0  0.94730  0.21390  0.63970  1.0000 -0.2370223176
C   C119      1.0  0.71110  0.90690  0.04345  1.0000 0.5767148923
C   C120      1.0  0.09310  0.28890  0.54345  1.0000 0.5767148923
C   C121      1.0  0.69300  0.32920  0.19620  1.0000 -0.1005788703
C   C122      1.0  0.67080  0.30700  0.69620  1.0000 -0.1005788703
C   C123      1.0  0.64710  0.42490  0.12866  1.0000 0.253044356
C   C124      1.0  0.57510  0.35290  0.62866  1.0000 0.253044356
C   C125      1.0  0.73500  0.47240  0.12890  1.0000 -0.2472875028
C   C126      1.0  0.52760  0.26500  0.62890  1.0000 -0.2472875028
C   C127      1.0  0.75300  0.54420  0.09680  1.0000 -0.0819863885
C   C128      1.0  0.45580  0.24700  0.59680  1.0000 -0.0819863885
C   C129      1.0  0.68030  0.57130  0.06333  1.0000 -0.0483645049
C   C130      1.0  0.42870  0.31970  0.56333  1.0000 -0.0483645049
C   C131      1.0  0.59210  0.52350  0.06310  1.0000 -0.0819863885
C   C132      1.0  0.47650  0.40790  0.56310  1.0000 -0.0819863885
C   C133      1.0  0.57600  0.44940  0.09510  1.0000 -0.2276088593
C   C134      1.0  0.55060  0.42400  0.59510  1.0000 -0.2276088593
C   C135      1.0  0.69470  0.65470  0.03052  1.0000 0.5895890783
C   C136      1.0  0.34530  0.30530  0.53052  1.0000 0.5895890783
C   C137      1.0  0.55830  0.29490  0.24382  1.0000 -0.0906451081
C   C138      1.0  0.70510  0.44170  0.74382  1.0000 -0.0906451081
C   C139      1.0  0.46150  0.24650  0.30352  1.0000 0.2678526829
C   C140      1.0  0.75350  0.53850  0.80352  1.0000 0.2678526829
C   C141      1.0  0.42940  0.17040  0.33110  1.0000 -0.2235493675
C   C142      1.0  0.82960  0.57060  0.83110  1.0000 -0.2235493675
C   C143      1.0  0.37430  0.18770  0.36490  1.0000 -0.0906451081
C   C144      1.0  0.81230  0.62570  0.86490  1.0000 -0.0906451081
C   C145      1.0  0.35140  0.28040  0.37185  1.0000 -0.0420139578
C   C146      1.0  0.71960  0.64860  0.87185  1.0000 -0.0420139578
C   C147      1.0  0.37990  0.35630  0.34312  1.0000 -0.0906451081
C   C148      1.0  0.64370  0.62010  0.84312  1.0000 -0.0906451081
C   C149      1.0  0.43530  0.34070  0.30896  1.0000 -0.2472875028
C   C150      1.0  0.65930  0.56470  0.80896  1.0000 -0.2472875028
C   C151      1.0  0.29320  0.29740  0.40959  1.0000 0.5895890783
C   C152      1.0  0.70260  0.70680  0.90959  1.0000 0.5895890783
C   C153      1.0  0.15130  0.58070  0.50390  1.0000 0.0929423239
C   C154      1.0  0.41930  0.84870  0.00390  1.0000 0.0929423239
C   C155      1.0  0.15340  0.67820  0.50830  1.0000 -0.1819391073
C   C156      1.0  0.32180  0.84660  0.00830  1.0000 -0.1819391073
C   C157      1.0  0.19420  0.74100  0.47751  1.0000 0.1101060712
C   C158      1.0  0.25900  0.80580  0.97751  1.0000 0.1101060712
C   C159      1.0  0.23370  0.70130  0.44235  1.0000 -0.1910076672
C   C160      1.0  0.29870  0.76630  0.94235  1.0000 -0.1910076672
C   C161      1.0  0.22880  0.60420  0.44037  1.0000 0.0929423239
C   C162      1.0  0.39580  0.77120  0.94037  1.0000 0.0929423239
C   C163      1.0  0.27160  0.00060  0.46970  1.0000 0.0710272233
C   C164      1.0  0.99940  0.72840  0.96970  1.0000 0.0710272233
C   C165      1.0  0.27100  0.90340  0.46620  1.0000 -0.1910076672
C   C166      1.0  0.09660  0.72900  0.96620  1.0000 -0.1910076672
C   C167      1.0  0.19720  0.84520  0.48120  1.0000 0.1101060712
C   C168      1.0  0.15480  0.80280  0.98120  1.0000 0.1101060712
C   C169      1.0  0.12770  0.88930  0.50140  1.0000 -0.1991706897
C   C170      1.0  0.11070  0.87230  0.00140  1.0000 -0.1991706897
C   C171      1.0  0.13350  0.98870  0.50450  1.0000 0.1101060712
C   C172      1.0  0.01130  0.86650  0.00450  1.0000 0.1101060712
N   N1        1.0  0.54340  0.18900  0.02984  1.0000 -0.2235493675
N   N2        1.0  0.81100  0.45660  0.52984  1.0000 -0.2235493675
N   N3        1.0  0.04290  0.20130  0.01179  1.0000 -0.1991706897
N   N4        1.0  0.79870  0.95710  0.51179  1.0000 -0.1991706897
N   N5        1.0  0.18900  0.54340  0.47016  1.0000 -0.2235493675
N   N6        1.0  0.45660  0.81100  0.97016  1.0000 -0.2235493675
N   N7        1.0  0.20130  0.04290  0.48821  1.0000 -0.1991706897
N   N8        1.0  0.95710  0.79870  0.98821  1.0000 -0.1991706897
O   O1        1.0  0.29980  0.74160  0.21106  1.0000 -0.1910076672
O   O2        1.0  0.25840  0.70020  0.71106  1.0000 -0.1910076672
O   O3        1.0  0.35900  0.07320  0.06455  1.0000 -0.5312390138
O   O4        1.0  0.92680  0.64100  0.56455  1.0000 -0.5312390138
O   O5        1.0  0.20110  0.08050  0.06273  1.0000 -0.5490438525
O   O6        1.0  0.91950  0.79890  0.56273  1.0000 -0.5490438525
O   O7        1.0  0.12920  0.70200  0.31216  1.0000 -0.1819391073
O   O8        1.0  0.29800  0.87080  0.81216  1.0000 -0.1819391073
O   O9        1.0  0.87130  0.63490  0.47312  1.0000 -0.5490438525
O   O10       1.0  0.36510  0.12870  0.97312  1.0000 -0.5490438525
O   O11       1.0  0.89680  0.79340  0.46989  1.0000 -0.5490438525
O   O12       1.0  0.20660  0.10320  0.96989  1.0000 -0.5490438525
O   O13       1.0  0.35430  0.62290  0.34100  1.0000 -0.1991706897
O   O14       1.0  0.37710  0.64570  0.84100  1.0000 -0.1991706897
O   O15       1.0  0.69270  0.77710  0.47008  1.0000 -0.539845552
O   O16       1.0  0.22290  0.30730  0.97008  1.0000 -0.539845552
O   O17       1.0  0.67970  0.62350  0.49505  1.0000 -0.539845552
O   O18       1.0  0.37650  0.32030  0.99505  1.0000 -0.539845552
O   O19       1.0  0.22130  0.51730  0.22786  1.0000 -0.1819391073
O   O20       1.0  0.48270  0.77870  0.72786  1.0000 -0.1819391073
O   O21       1.0  0.22470  0.27930  0.06392  1.0000 -0.5583357025
O   O22       1.0  0.72070  0.77530  0.56392  1.0000 -0.5583357025
O   O23       1.0  0.38060  0.26380  0.08685  1.0000 -0.5490438525
O   O24       1.0  0.73620  0.61940  0.58685  1.0000 -0.5490438525
O   O25       1.0  0.74160  0.29980  0.28894  1.0000 -0.1910076672
O   O26       1.0  0.70020  0.25840  0.78894  1.0000 -0.1910076672
O   O27       1.0  0.07320  0.35900  0.43545  1.0000 -0.5312390138
O   O28       1.0  0.64100  0.92680  0.93545  1.0000 -0.5312390138
O   O29       1.0  0.08050  0.20110  0.43727  1.0000 -0.5490438525
O   O30       1.0  0.79890  0.91950  0.93727  1.0000 -0.5490438525
O   O31       1.0  0.70200  0.12920  0.18784  1.0000 -0.1819391073
O   O32       1.0  0.87080  0.29800  0.68784  1.0000 -0.1819391073
O   O33       1.0  0.63490  0.87130  0.02688  1.0000 -0.5490438525
O   O34       1.0  0.12870  0.36510  0.52688  1.0000 -0.5490438525
O   O35       1.0  0.79340  0.89680  0.03011  1.0000 -0.5490438525
O   O36       1.0  0.10320  0.20660  0.53011  1.0000 -0.5490438525
O   O37       1.0  0.62290  0.35430  0.15900  1.0000 -0.1991706897
O   O38       1.0  0.64570  0.37710  0.65900  1.0000 -0.1991706897
O   O39       1.0  0.77710  0.69270  0.02992  1.0000 -0.539845552
O   O40       1.0  0.30730  0.22290  0.52992  1.0000 -0.539845552
O   O41       1.0  0.62350  0.67970  0.00495  1.0000 -0.539845552
O   O42       1.0  0.32030  0.37650  0.50495  1.0000 -0.539845552
O   O43       1.0  0.51730  0.22130  0.27214  1.0000 -0.1819391073
O   O44       1.0  0.77870  0.48270  0.77214  1.0000 -0.1819391073
O   O45       1.0  0.27930  0.22470  0.43608  1.0000 -0.5583357025
O   O46       1.0  0.77530  0.72070  0.93608  1.0000 -0.5583357025
O   O47       1.0  0.26380  0.38060  0.41315  1.0000 -0.5490438525
O   O48       1.0  0.61940  0.73620  0.91315  1.0000 -0.5490438525
