# DDEC6 charges by PACMAN v1.1 (https://github.com/mtap-research/PACMAN-charge/)
data_2008[Cd][nbo]3[FSR]2
_chemical_formula_sum              "Cd3 H54 C78 S6 N12"
_cell_length_a       16.216
_cell_length_b       16.216
_cell_length_c       16.216
_cell_angle_alpha    112.792
_cell_angle_beta     112.792
_cell_angle_gamma    112.792

_symmetry_space_group_name_H-M    "P 1"
_symmetry_Int_Tables_number       1

loop_
  _symmetry_equiv_pos_as_xyz
  'x, y, z'

loop_
  _atom_site_type_symbol
  _atom_site_label
  _atom_site_symmetry_multiplicity
  _atom_site_fract_x
  _atom_site_fract_y
  _atom_site_fract_z
  _atom_site_occupancy
  _atom_site_charge
Cd  Cd1       1.0  0.50000  0.00000  0.50000  1.0000 0.596014139
Cd  Cd2       1.0  0.00000  0.50000  0.50000  1.0000 0.594994244
Cd  Cd3       1.0  0.50000  0.50000  0.00000  1.0000 0.594994244
H   H1        1.0  0.50230  0.12891  0.12891  1.0000 0.1191767962
H   H2        1.0  0.12891  0.12891  0.50230  1.0000 0.1191767962
H   H3        1.0  0.12891  0.50230  0.12891  1.0000 0.1191767962
H   H4        1.0  0.49770  0.87109  0.87109  1.0000 0.1191767962
H   H5        1.0  0.87109  0.49770  0.87109  1.0000 0.1191767962
H   H6        1.0  0.87109  0.87109  0.49770  1.0000 0.1191767962
H   H7        1.0  0.36610  0.82072  0.07500  1.0000 0.129326795
H   H8        1.0  0.82072  0.07500  0.36610  1.0000 0.129326795
H   H9        1.0  0.07500  0.36610  0.82072  1.0000 0.129326795
H   H10       1.0  0.63390  0.92500  0.17928  1.0000 0.129326795
H   H11       1.0  0.17928  0.63390  0.92500  1.0000 0.129326795
H   H12       1.0  0.92500  0.17928  0.63390  1.0000 0.129326795
H   H13       1.0  0.63390  0.17928  0.92500  1.0000 0.129326795
H   H14       1.0  0.17928  0.92500  0.63390  1.0000 0.129326795
H   H15       1.0  0.92500  0.63390  0.17928  1.0000 0.129326795
H   H16       1.0  0.36610  0.07500  0.82072  1.0000 0.129326795
H   H17       1.0  0.82072  0.36610  0.07500  1.0000 0.129326795
H   H18       1.0  0.07500  0.82072  0.36610  1.0000 0.129326795
H   H19       1.0  0.35320  0.82882  0.21360  1.0000 0.1026939086
H   H20       1.0  0.82882  0.21360  0.35320  1.0000 0.1026939086
H   H21       1.0  0.21360  0.35320  0.82882  1.0000 0.1026939086
H   H22       1.0  0.64680  0.78640  0.17118  1.0000 0.1026939086
H   H23       1.0  0.17118  0.64680  0.78640  1.0000 0.1026939086
H   H24       1.0  0.78640  0.17118  0.64680  1.0000 0.1026939086
H   H25       1.0  0.64680  0.17118  0.78640  1.0000 0.1026939086
H   H26       1.0  0.17118  0.78640  0.64680  1.0000 0.1026939086
H   H27       1.0  0.78640  0.64680  0.17118  1.0000 0.1026939086
H   H28       1.0  0.35320  0.21360  0.82882  1.0000 0.1026939086
H   H29       1.0  0.82882  0.35320  0.21360  1.0000 0.1026939086
H   H30       1.0  0.21360  0.82882  0.35320  1.0000 0.1026939086
H   H31       1.0  0.60560  0.15952  0.43900  1.0000 0.1026939086
H   H32       1.0  0.15952  0.43900  0.60560  1.0000 0.1026939086
H   H33       1.0  0.43900  0.60560  0.15952  1.0000 0.1026939086
H   H34       1.0  0.39440  0.56100  0.84048  1.0000 0.1026939086
H   H35       1.0  0.84048  0.39440  0.56100  1.0000 0.1026939086
H   H36       1.0  0.56100  0.84048  0.39440  1.0000 0.1026939086
H   H37       1.0  0.39440  0.84048  0.56100  1.0000 0.1026939086
H   H38       1.0  0.84048  0.56100  0.39440  1.0000 0.1026939086
H   H39       1.0  0.56100  0.39440  0.84048  1.0000 0.1026939086
H   H40       1.0  0.60560  0.43900  0.15952  1.0000 0.1026939086
H   H41       1.0  0.15952  0.60560  0.43900  1.0000 0.1026939086
H   H42       1.0  0.43900  0.15952  0.60560  1.0000 0.1026939086
H   H43       1.0  0.62070  0.16252  0.30510  1.0000 0.129326795
H   H44       1.0  0.16252  0.30510  0.62070  1.0000 0.129326795
H   H45       1.0  0.30510  0.62070  0.16252  1.0000 0.129326795
H   H46       1.0  0.37930  0.69490  0.83748  1.0000 0.129326795
H   H47       1.0  0.83748  0.37930  0.69490  1.0000 0.129326795
H   H48       1.0  0.69490  0.83748  0.37930  1.0000 0.129326795
H   H49       1.0  0.37930  0.83748  0.69490  1.0000 0.129326795
H   H50       1.0  0.83748  0.69490  0.37930  1.0000 0.129326795
H   H51       1.0  0.69490  0.37930  0.83748  1.0000 0.129326795
H   H52       1.0  0.62070  0.30510  0.16252  1.0000 0.129326795
H   H53       1.0  0.16252  0.62070  0.30510  1.0000 0.129326795
H   H54       1.0  0.30510  0.16252  0.62070  1.0000 0.129326795
C   C1        1.0  0.50084  0.07624  0.07624  1.0000 -0.1697924912
C   C2        1.0  0.07624  0.07624  0.50084  1.0000 -0.1697924912
C   C3        1.0  0.07624  0.50084  0.07624  1.0000 -0.1697924912
C   C4        1.0  0.49916  0.92376  0.92376  1.0000 -0.1697924912
C   C5        1.0  0.92376  0.49916  0.92376  1.0000 -0.1697924912
C   C6        1.0  0.92376  0.92376  0.49916  1.0000 -0.1697924912
C   C7        1.0  0.49987  0.99322  0.08373  1.0000 0.0231053674
C   C8        1.0  0.99322  0.08373  0.49987  1.0000 0.0231053674
C   C9        1.0  0.08373  0.49987  0.99322  1.0000 0.0231053674
C   C10       1.0  0.50013  0.91627  0.00678  1.0000 0.0231053674
C   C11       1.0  0.00678  0.50013  0.91627  1.0000 0.0231053674
C   C12       1.0  0.91627  0.00678  0.50013  1.0000 0.0231053674
C   C13       1.0  0.50013  0.00678  0.91627  1.0000 0.0231053674
C   C14       1.0  0.00678  0.91627  0.50013  1.0000 0.0231053674
C   C15       1.0  0.91627  0.50013  0.00678  1.0000 0.0231053674
C   C16       1.0  0.49987  0.08373  0.99322  1.0000 0.0231053674
C   C17       1.0  0.99322  0.49987  0.08373  1.0000 0.0231053674
C   C18       1.0  0.08373  0.99322  0.49987  1.0000 0.0231053674
C   C19       1.0  0.49363  0.99069  0.17230  1.0000 0.1191767962
C   C20       1.0  0.99069  0.17230  0.49363  1.0000 0.1191767962
C   C21       1.0  0.17230  0.49363  0.99069  1.0000 0.1191767962
C   C22       1.0  0.50637  0.82770  0.00931  1.0000 0.1191767962
C   C23       1.0  0.00931  0.50637  0.82770  1.0000 0.1191767962
C   C24       1.0  0.82770  0.00931  0.50637  1.0000 0.1191767962
C   C25       1.0  0.50637  0.00931  0.82770  1.0000 0.1191767962
C   C26       1.0  0.00931  0.82770  0.50637  1.0000 0.1191767962
C   C27       1.0  0.82770  0.50637  0.00931  1.0000 0.1191767962
C   C28       1.0  0.49363  0.17230  0.99069  1.0000 0.1191767962
C   C29       1.0  0.99069  0.49363  0.17230  1.0000 0.1191767962
C   C30       1.0  0.17230  0.99069  0.49363  1.0000 0.1191767962
C   C31       1.0  0.41507  0.89139  0.14826  1.0000 -0.202499795
C   C32       1.0  0.89139  0.14826  0.41507  1.0000 -0.202499795
C   C33       1.0  0.14826  0.41507  0.89139  1.0000 -0.202499795
C   C34       1.0  0.58493  0.85174  0.10861  1.0000 -0.202499795
C   C35       1.0  0.10861  0.58493  0.85174  1.0000 -0.202499795
C   C36       1.0  0.85174  0.10861  0.58493  1.0000 -0.202499795
C   C37       1.0  0.58493  0.10861  0.85174  1.0000 -0.202499795
C   C38       1.0  0.10861  0.85174  0.58493  1.0000 -0.202499795
C   C39       1.0  0.85174  0.58493  0.10861  1.0000 -0.202499795
C   C40       1.0  0.41507  0.14826  0.89139  1.0000 -0.202499795
C   C41       1.0  0.89139  0.41507  0.14826  1.0000 -0.202499795
C   C42       1.0  0.14826  0.89139  0.41507  1.0000 -0.202499795
C   C43       1.0  0.40881  0.89651  0.23280  1.0000 0.0840018213
C   C44       1.0  0.89651  0.23280  0.40881  1.0000 0.0840018213
C   C45       1.0  0.23280  0.40881  0.89651  1.0000 0.0840018213
C   C46       1.0  0.59119  0.76720  0.10349  1.0000 0.0840018213
C   C47       1.0  0.10349  0.59119  0.76720  1.0000 0.0840018213
C   C48       1.0  0.76720  0.10349  0.59119  1.0000 0.0840018213
C   C49       1.0  0.59119  0.10349  0.76720  1.0000 0.0840018213
C   C50       1.0  0.10349  0.76720  0.59119  1.0000 0.0840018213
C   C51       1.0  0.76720  0.59119  0.10349  1.0000 0.0840018213
C   C52       1.0  0.40881  0.23280  0.89651  1.0000 0.0840018213
C   C53       1.0  0.89651  0.40881  0.23280  1.0000 0.0840018213
C   C54       1.0  0.23280  0.89651  0.40881  1.0000 0.0840018213
C   C55       1.0  0.55605  0.09049  0.36438  1.0000 0.0912730664
C   C56       1.0  0.09049  0.36438  0.55605  1.0000 0.0912730664
C   C57       1.0  0.36438  0.55605  0.09049  1.0000 0.0912730664
C   C58       1.0  0.44395  0.63562  0.90951  1.0000 0.0912730664
C   C59       1.0  0.90951  0.44395  0.63562  1.0000 0.0912730664
C   C60       1.0  0.63562  0.90951  0.44395  1.0000 0.0912730664
C   C61       1.0  0.44395  0.90951  0.63562  1.0000 0.0912730664
C   C62       1.0  0.90951  0.63562  0.44395  1.0000 0.0912730664
C   C63       1.0  0.63562  0.44395  0.90951  1.0000 0.0912730664
C   C64       1.0  0.55605  0.36438  0.09049  1.0000 0.0912730664
C   C65       1.0  0.09049  0.55605  0.36438  1.0000 0.0912730664
C   C66       1.0  0.36438  0.09049  0.55605  1.0000 0.0912730664
C   C67       1.0  0.56623  0.09319  0.28430  1.0000 -0.1913043241
C   C68       1.0  0.09319  0.28430  0.56623  1.0000 -0.1913043241
C   C69       1.0  0.28430  0.56623  0.09319  1.0000 -0.1913043241
C   C70       1.0  0.43377  0.71570  0.90681  1.0000 -0.1913043241
C   C71       1.0  0.90681  0.43377  0.71570  1.0000 -0.1913043241
C   C72       1.0  0.71570  0.90681  0.43377  1.0000 -0.1913043241
C   C73       1.0  0.43377  0.90681  0.71570  1.0000 -0.1913043241
C   C74       1.0  0.90681  0.71570  0.43377  1.0000 -0.1913043241
C   C75       1.0  0.71570  0.43377  0.90681  1.0000 -0.1913043241
C   C76       1.0  0.56623  0.28430  0.09319  1.0000 -0.1913043241
C   C77       1.0  0.09319  0.56623  0.28430  1.0000 -0.1913043241
C   C78       1.0  0.28430  0.09319  0.56623  1.0000 -0.1913043241
S   S1        1.0  0.63650  0.22072  0.63650  1.0000 -0.6026906699
S   S2        1.0  0.22072  0.63650  0.63650  1.0000 -0.6026906699
S   S3        1.0  0.63650  0.63650  0.22072  1.0000 -0.6026906699
S   S4        1.0  0.36350  0.36350  0.77928  1.0000 -0.6026906699
S   S5        1.0  0.77928  0.36350  0.36350  1.0000 -0.6026906699
S   S6        1.0  0.36350  0.77928  0.36350  1.0000 -0.6026906699
N   N1        1.0  0.47937  0.99466  0.34069  1.0000 -0.2099747092
N   N2        1.0  0.99466  0.34069  0.47937  1.0000 -0.2099747092
N   N3        1.0  0.34069  0.47937  0.99466  1.0000 -0.2099747092
N   N4        1.0  0.52063  0.65931  0.00534  1.0000 -0.2099747092
N   N5        1.0  0.00534  0.52063  0.65931  1.0000 -0.2099747092
N   N6        1.0  0.65931  0.00534  0.52063  1.0000 -0.2099747092
N   N7        1.0  0.52063  0.00534  0.65931  1.0000 -0.2099747092
N   N8        1.0  0.00534  0.65931  0.52063  1.0000 -0.2099747092
N   N9        1.0  0.65931  0.52063  0.00534  1.0000 -0.2099747092
N   N10       1.0  0.47937  0.34069  0.99466  1.0000 -0.2099747092
N   N11       1.0  0.99466  0.47937  0.34069  1.0000 -0.2099747092
N   N12       1.0  0.34069  0.99466  0.47937  1.0000 -0.2099747092
