# DDEC6 charges by PACMAN v1.1 (https://github.com/mtap-research/PACMAN-charge/)
data_2008[Mn][dia]3[FSR]2
_chemical_formula_sum              "Mn2 H28 C16 S4 N8 O12"
_cell_length_a       12.6809
_cell_length_b       12.6809
_cell_length_c       12.6809
_cell_angle_alpha    95.2458
_cell_angle_beta     95.2458
_cell_angle_gamma    144.8

_symmetry_space_group_name_H-M    "P 1"
_symmetry_Int_Tables_number       1

loop_
  _symmetry_equiv_pos_as_xyz
  'x, y, z'

loop_
  _atom_site_type_symbol
  _atom_site_label
  _atom_site_symmetry_multiplicity
  _atom_site_fract_x
  _atom_site_fract_y
  _atom_site_fract_z
  _atom_site_occupancy
  _atom_site_charge
Mn  Mn1       1.0  0.00000  0.00000  0.00000  1.0000 0.9065971456
Mn  Mn2       1.0  0.25000  0.75000  0.50000  1.0000 0.9065971456
H   H1        1.0  0.71310  0.71500  0.07490  1.0000 0.3899423238
H   H2        1.0  0.64010  0.63820  0.92510  1.0000 0.3899423238
H   H3        1.0  0.36180  0.28690  0.00190  1.0000 0.3899423238
H   H4        1.0  0.28500  0.35990  0.99810  1.0000 0.3899423238
H   H5        1.0  0.53690  0.11180  0.50190  1.0000 0.3899423238
H   H6        1.0  0.60990  0.03500  0.49810  1.0000 0.3899423238
H   H7        1.0  0.88820  0.39010  0.42510  1.0000 0.3899423238
H   H8        1.0  0.96500  0.46310  0.57490  1.0000 0.3899423238
H   H9        1.0  0.22820  0.37500  0.35320  1.0000 0.1860358945
H   H10       1.0  0.02180  0.87500  0.64680  1.0000 0.1860358945
H   H11       1.0  0.12500  0.77180  0.14680  1.0000 0.1860358945
H   H12       1.0  0.62500  0.97820  0.85320  1.0000 0.1860358945
H   H13       1.0  0.94240  0.18700  0.04760  1.0000 0.1822874478
H   H14       1.0  0.13940  0.89480  0.95240  1.0000 0.1822874478
H   H15       1.0  0.10520  0.05760  0.24460  1.0000 0.1822874478
H   H16       1.0  0.81300  0.86060  0.75540  1.0000 0.1822874478
H   H17       1.0  0.30760  0.85520  0.74460  1.0000 0.1822874478
H   H18       1.0  0.11060  0.56300  0.25540  1.0000 0.1822874478
H   H19       1.0  0.14480  0.88940  0.45240  1.0000 0.1822874478
H   H20       1.0  0.43700  0.69240  0.54760  1.0000 0.1822874478
H   H21       1.0  0.05300  0.09770  0.21590  1.0000 0.2088951363
H   H22       1.0  0.88180  0.83710  0.78410  1.0000 0.2088951363
H   H23       1.0  0.16290  0.94700  0.04470  1.0000 0.2088951363
H   H24       1.0  0.90230  0.11820  0.95530  1.0000 0.2088951363
H   H25       1.0  0.19700  0.91290  0.54470  1.0000 0.2088951363
H   H26       1.0  0.36820  0.65230  0.45530  1.0000 0.2088951363
H   H27       1.0  0.08710  0.63180  0.28410  1.0000 0.2088951363
H   H28       1.0  0.34770  0.80300  0.71590  1.0000 0.2088951363
C   C1        1.0  0.00840  0.37500  0.13340  1.0000 0.3899423238
C   C2        1.0  0.24160  0.87500  0.86660  1.0000 0.3899423238
C   C3        1.0  0.12500  0.99160  0.36660  1.0000 0.3899423238
C   C4        1.0  0.62500  0.75840  0.63340  1.0000 0.3899423238
C   C5        1.0  0.08160  0.25820  0.19240  1.0000 0.4663569948
C   C6        1.0  0.06580  0.88920  0.80760  1.0000 0.4663569948
C   C7        1.0  0.11080  0.91840  0.17660  1.0000 0.4630462708
C   C8        1.0  0.74180  0.93420  0.82340  1.0000 0.4630462708
C   C9        1.0  0.16840  0.86080  0.67660  1.0000 0.4663569948
C   C10       1.0  0.18420  0.49180  0.32340  1.0000 0.4663569948
C   C11       1.0  0.13920  0.81580  0.30760  1.0000 0.4663569948
C   C12       1.0  0.50820  0.83160  0.69240  1.0000 0.4630462708
C   C13       1.0  0.17370  0.37500  0.29870  1.0000 -0.5072246709
C   C14       1.0  0.07630  0.87500  0.70130  1.0000 -0.5072246709
C   C15       1.0  0.12500  0.82630  0.20130  1.0000 -0.5072246709
C   C16       1.0  0.62500  0.92370  0.79870  1.0000 -0.5072246709
S   S1        1.0  0.91250  0.37500  0.03750  1.0000 -0.4682090797
S   S2        1.0  0.33750  0.87500  0.96250  1.0000 -0.4682090797
S   S3        1.0  0.12500  0.08750  0.46250  1.0000 -0.4682090797
S   S4        1.0  0.62500  0.66250  0.53750  1.0000 -0.4682090797
N   N1        1.0  0.00090  0.26170  0.11340  1.0000 -0.4262481152
N   N2        1.0  0.14830  0.88750  0.88660  1.0000 -0.4262481152
N   N3        1.0  0.11250  0.99910  0.26080  1.0000 -0.4262481152
N   N4        1.0  0.73830  0.85170  0.73920  1.0000 -0.4262481152
N   N5        1.0  0.24910  0.86250  0.76080  1.0000 -0.4249175408
N   N6        1.0  0.10170  0.48830  0.23920  1.0000 -0.4262481152
N   N7        1.0  0.13750  0.89830  0.38660  1.0000 -0.4249175408
N   N8        1.0  0.51170  0.75090  0.61340  1.0000 -0.4262481152
O   O1        1.0  0.05239  0.13845  0.15884  1.0000 -0.4589068622
O   O2        1.0  0.97961  0.89355  0.84116  1.0000 -0.4589068622
O   O3        1.0  0.10645  0.94761  0.08606  1.0000 -0.4589068622
O   O4        1.0  0.86155  0.02039  0.91394  1.0000 -0.4589068622
O   O5        1.0  0.19761  0.85645  0.58606  1.0000 -0.4589068622
O   O6        1.0  0.27039  0.61155  0.41394  1.0000 -0.4589068622
O   O7        1.0  0.14355  0.72961  0.34116  1.0000 -0.4589068622
O   O8        1.0  0.38845  0.80239  0.65884  1.0000 -0.4589068622
O   O9        1.0  0.71830  0.71830  0.00000  1.0000 -0.7766791352
O   O10       1.0  0.28170  0.28170  0.00000  1.0000 -0.7766791352
O   O11       1.0  0.53170  0.03170  0.50000  1.0000 -0.7766791352
O   O12       1.0  0.96830  0.46830  0.50000  1.0000 -0.7766791352
