# DDEC6 charges by PACMAN v1.1 (https://github.com/mtap-research/PACMAN-charge/)
data_2008[Cu][rob]3[FSR]4
_chemical_formula_sum              "Cu4 H48 C44 N4 O16"
_cell_length_a       12.506
_cell_length_b       12.506
_cell_length_c       9.1075
_cell_angle_alpha    78.6031
_cell_angle_beta     101.397
_cell_angle_gamma    113.532

_symmetry_space_group_name_H-M    "P 1"
_symmetry_Int_Tables_number       1

loop_
  _symmetry_equiv_pos_as_xyz
  'x, y, z'

loop_
  _atom_site_type_symbol
  _atom_site_label
  _atom_site_symmetry_multiplicity
  _atom_site_fract_x
  _atom_site_fract_y
  _atom_site_fract_z
  _atom_site_occupancy
  _atom_site_charge
Cu  Cu1       1.0  0.22629  0.82629  0.68399  1.0000 0.7473537901
Cu  Cu2       1.0  0.82629  0.22629  0.31601  1.0000 0.7473537901
Cu  Cu3       1.0  0.23966  0.62872  0.82927  1.0000 0.7473537901
Cu  Cu4       1.0  0.62872  0.23966  0.17073  1.0000 0.7473537901
H   H1        1.0  0.05990  0.91490  0.44080  1.0000 0.1116864628
H   H2        1.0  0.91490  0.05990  0.55920  1.0000 0.1116864628
H   H3        1.0  0.05720  0.07160  0.26490  1.0000 0.1380354324
H   H4        1.0  0.07160  0.05720  0.73510  1.0000 0.1380354324
H   H5        1.0  0.39830  0.23450  0.39950  1.0000 0.1309063413
H   H6        1.0  0.23450  0.39830  0.60050  1.0000 0.1309063413
H   H7        1.0  0.39000  0.07560  0.58040  1.0000 0.1116864628
H   H8        1.0  0.07560  0.39000  0.41960  1.0000 0.1116864628
H   H9        1.0  0.06700  0.38520  0.94440  1.0000 0.1116864628
H   H10       1.0  0.38520  0.06700  0.05560  1.0000 0.1116864628
H   H11       1.0  0.05540  0.22420  0.12260  1.0000 0.1309063413
H   H12       1.0  0.22420  0.05540  0.87740  1.0000 0.1309063413
H   H13       1.0  0.40700  0.37140  0.23480  1.0000 0.1380354324
H   H14       1.0  0.37140  0.40700  0.76520  1.0000 0.1380354324
H   H15       1.0  0.40690  0.52930  0.05320  1.0000 0.1116864628
H   H16       1.0  0.52930  0.40690  0.94680  1.0000 0.1116864628
H   H17       1.0  0.46210  0.67150  0.48120  1.0000 0.0983469484
H   H18       1.0  0.67150  0.46210  0.51880  1.0000 0.0983469484
H   H19       1.0  0.39800  0.85860  0.30080  1.0000 0.1116864628
H   H20       1.0  0.85860  0.39800  0.69920  1.0000 0.1116864628
H   H21       1.0  0.49880  0.82100  0.26910  1.0000 0.0983469484
H   H22       1.0  0.82100  0.49880  0.73090  1.0000 0.0983469484
H   H23       1.0  0.60630  0.87550  0.50940  1.0000 0.1309063413
H   H24       1.0  0.87550  0.60630  0.49060  1.0000 0.1309063413
H   H25       1.0  0.50780  0.92020  0.53120  1.0000 0.1380354324
H   H26       1.0  0.92020  0.50780  0.46880  1.0000 0.1380354324
H   H27       1.0  0.27780  0.54220  0.37470  1.0000 0.1183129379
H   H28       1.0  0.54220  0.27780  0.62530  1.0000 0.1183129379
H   H29       1.0  0.25350  0.65130  0.27050  1.0000 0.1309063413
H   H30       1.0  0.65130  0.25350  0.72950  1.0000 0.1309063413
H   H31       1.0  0.35760  0.61640  0.24420  1.0000 0.1309063413
H   H32       1.0  0.61640  0.35760  0.75580  1.0000 0.1309063413
H   H33       1.0  0.14130  0.79750  0.16690  1.0000 0.1116864628
H   H34       1.0  0.79750  0.14130  0.83310  1.0000 0.1116864628
H   H35       1.0  0.96580  0.64700  0.23910  1.0000 0.0983469484
H   H36       1.0  0.64700  0.96580  0.76090  1.0000 0.0983469484
H   H37       1.0  0.05500  0.59560  0.20410  1.0000 0.0983469484
H   H38       1.0  0.59560  0.05500  0.79590  1.0000 0.0983469484
H   H39       1.0  0.94030  0.55890  0.96150  1.0000 0.1380354324
H   H40       1.0  0.55890  0.94030  0.03850  1.0000 0.1380354324
H   H41       1.0  0.84840  0.60260  0.00610  1.0000 0.1380354324
H   H42       1.0  0.60260  0.84840  0.99390  1.0000 0.1380354324
H   H43       1.0  0.97150  0.83970  0.12500  1.0000 0.1183129379
H   H44       1.0  0.83970  0.97150  0.87500  1.0000 0.1183129379
H   H45       1.0  0.06000  0.91900  0.00570  1.0000 0.1183129379
H   H46       1.0  0.91900  0.06000  0.99430  1.0000 0.1183129379
H   H47       1.0  0.94590  0.80890  0.95610  1.0000 0.1309063413
H   H48       1.0  0.80890  0.94590  0.04390  1.0000 0.1309063413
C   C1        1.0  0.13070  0.98230  0.43460  1.0000 0.0614268163
C   C2        1.0  0.98230  0.13070  0.56540  1.0000 0.0614268163
C   C3        1.0  0.12860  0.07500  0.32760  1.0000 -0.1845478735
C   C4        1.0  0.07500  0.12860  0.67240  1.0000 -0.1845478735
C   C5        1.0  0.22750  0.17150  0.31070  1.0000 0.0983469484
C   C6        1.0  0.17150  0.22750  0.68930  1.0000 0.0983469484
C   C7        1.0  0.32580  0.16940  0.40690  1.0000 -0.1906483244
C   C8        1.0  0.16940  0.32580  0.59310  1.0000 -0.1906483244
C   C9        1.0  0.32050  0.07370  0.51420  1.0000 0.0758398676
C   C10       1.0  0.07370  0.32050  0.48580  1.0000 0.0758398676
C   C11       1.0  0.13770  0.38210  0.00340  1.0000 0.0983469484
C   C12       1.0  0.38210  0.13770  0.99660  1.0000 0.0983469484
C   C13       1.0  0.12990  0.28490  0.10940  1.0000 -0.1906483244
C   C14       1.0  0.28490  0.12990  0.89060  1.0000 -0.1906483244
C   C15       1.0  0.23060  0.27620  0.19650  1.0000 0.1116864628
C   C16       1.0  0.27620  0.23060  0.80350  1.0000 0.1116864628
C   C17       1.0  0.33550  0.37110  0.17520  1.0000 -0.1906483244
C   C18       1.0  0.37110  0.33550  0.82480  1.0000 -0.1906483244
C   C19       1.0  0.33460  0.46520  0.06640  1.0000 0.0659864971
C   C20       1.0  0.46520  0.33460  0.93360  1.0000 0.0659864971
C   C21       1.0  0.33090  0.70290  0.55440  1.0000 0.57776737
C   C22       1.0  0.70290  0.33090  0.44560  1.0000 0.57776737
C   C23       1.0  0.39980  0.70320  0.43210  1.0000 -0.049069105
C   C24       1.0  0.70320  0.39980  0.56790  1.0000 -0.049069105
C   C25       1.0  0.45910  0.82650  0.34960  1.0000 -0.1524367428
C   C26       1.0  0.82650  0.45910  0.65040  1.0000 -0.1524367428
C   C27       1.0  0.54860  0.91040  0.45510  1.0000 -0.3277893236
C   C28       1.0  0.91040  0.54860  0.54490  1.0000 -0.3277893236
C   C29       1.0  0.61300  0.02880  0.37320  1.0000 0.6306837627
C   C30       1.0  0.02880  0.61300  0.62680  1.0000 0.6306837627
C   C31       1.0  0.31450  0.62090  0.32030  1.0000 -0.4187754562
C   C32       1.0  0.62090  0.31450  0.67970  1.0000 -0.4187754562
C   C33       1.0  0.13590  0.75470  0.95920  1.0000 0.57776737
C   C34       1.0  0.75470  0.13590  0.04080  1.0000 0.57776737
C   C35       1.0  0.07680  0.76120  0.08630  1.0000 -0.049069105
C   C36       1.0  0.76120  0.07680  0.91370  1.0000 -0.049069105
C   C37       1.0  0.00230  0.63830  0.15740  1.0000 -0.1524367428
C   C38       1.0  0.63830  0.00230  0.84260  1.0000 -0.1524367428
C   C39       1.0  0.90491  0.56329  0.04720  1.0000 -0.3085230461
C   C40       1.0  0.56329  0.90491  0.95280  1.0000 -0.3085230461
C   C41       1.0  0.83810  0.43850  0.11910  1.0000 0.6172720322
C   C42       1.0  0.43850  0.83810  0.88090  1.0000 0.6172720322
C   C43       1.0  0.00754  0.83886  0.03920  1.0000 -0.4085463456
C   C44       1.0  0.83886  0.00754  0.96080  1.0000 -0.4085463456
N   N1        1.0  0.22360  0.97980  0.52970  1.0000 -0.2138503364
N   N2        1.0  0.97980  0.22360  0.47030  1.0000 -0.2138503364
N   N3        1.0  0.23670  0.47090  0.97840  1.0000 -0.2344414017
N   N4        1.0  0.47090  0.23670  0.02160  1.0000 -0.2344414017
O   O1        1.0  0.28899  0.78101  0.53410  1.0000 -0.5231683027
O   O2        1.0  0.78101  0.28899  0.46590  1.0000 -0.5231683027
O   O3        1.0  0.32346  0.62474  0.66820  1.0000 -0.5383188299
O   O4        1.0  0.62474  0.32346  0.33180  1.0000 -0.5383188299
O   O5        1.0  0.72546  0.06594  0.39380  1.0000 -0.5452776721
O   O6        1.0  0.06594  0.72546  0.60620  1.0000 -0.5452776721
O   O7        1.0  0.55594  0.08626  0.29130  1.0000 -0.5231683027
O   O8        1.0  0.08626  0.55594  0.70870  1.0000 -0.5284640533
O   O9        1.0  0.16224  0.84176  0.85640  1.0000 -0.5284640533
O   O10       1.0  0.84176  0.16224  0.14360  1.0000 -0.5284640533
O   O11       1.0  0.15917  0.66463  0.96820  1.0000 -0.5284640533
O   O12       1.0  0.66463  0.15917  0.03180  1.0000 -0.5284640533
O   O13       1.0  0.89731  0.38909  0.21500  1.0000 -0.5284640533
O   O14       1.0  0.38909  0.89731  0.78500  1.0000 -0.5284640533
O   O15       1.0  0.73039  0.39441  0.07600  1.0000 -0.5144886545
O   O16       1.0  0.39441  0.73039  0.92400  1.0000 -0.5144886545
