# DDEC6 charges by PACMAN v1.1 (https://github.com/mtap-research/PACMAN-charge/)
data_2008[Zn][nan]3[FSR]9
_chemical_formula_sum              "Zn12 H24 C40 N16 O40"
_cell_length_a       11.7437
_cell_length_b       18.9251
_cell_length_c       13.8256
_cell_angle_alpha    90
_cell_angle_beta     119.479
_cell_angle_gamma    90

_symmetry_space_group_name_H-M    "P 1"
_symmetry_Int_Tables_number       1

loop_
  _symmetry_equiv_pos_as_xyz
  'x, y, z'

loop_
  _atom_site_type_symbol
  _atom_site_label
  _atom_site_symmetry_multiplicity
  _atom_site_fract_x
  _atom_site_fract_y
  _atom_site_fract_z
  _atom_site_occupancy
  _atom_site_charge
Zn  Zn1       1.0  0.47469  0.37185  0.65079  1.0000 0.8605597976
Zn  Zn2       1.0  0.52531  0.87185  0.84921  1.0000 0.8605597976
Zn  Zn3       1.0  0.52531  0.62815  0.34921  1.0000 0.8605597976
Zn  Zn4       1.0  0.47469  0.12815  0.15079  1.0000 0.8605597976
Zn  Zn5       1.0  0.96135  0.41437  0.62255  1.0000 0.877799547
Zn  Zn6       1.0  0.03865  0.91437  0.87745  1.0000 0.877799547
Zn  Zn7       1.0  0.03865  0.58563  0.37745  1.0000 0.877799547
Zn  Zn8       1.0  0.96135  0.08563  0.12255  1.0000 0.877799547
Zn  Zn9       1.0  0.32287  0.16821  0.87889  1.0000 0.784360877
Zn  Zn10      1.0  0.67713  0.66821  0.62111  1.0000 0.784360877
Zn  Zn11      1.0  0.67713  0.83179  0.12111  1.0000 0.784360877
Zn  Zn12      1.0  0.32287  0.33179  0.37889  1.0000 0.784360877
H   H1        1.0  0.46100  0.54790  0.62170  1.0000 0.1024989325
H   H2        1.0  0.53900  0.04790  0.87830  1.0000 0.1024989325
H   H3        1.0  0.53900  0.45210  0.37830  1.0000 0.1024989325
H   H4        1.0  0.46100  0.95210  0.12170  1.0000 0.1024989325
H   H5        1.0  0.29710  0.29460  0.53390  1.0000 0.3932127717
H   H6        1.0  0.70290  0.79460  0.96610  1.0000 0.3932127717
H   H7        1.0  0.70290  0.70540  0.46610  1.0000 0.3932127717
H   H8        1.0  0.29710  0.20540  0.03390  1.0000 0.3932127717
H   H9        1.0  0.42610  0.26360  0.54790  1.0000 0.4116827312
H   H10       1.0  0.57390  0.76360  0.95210  1.0000 0.4116827312
H   H11       1.0  0.57390  0.73640  0.45210  1.0000 0.4116827312
H   H12       1.0  0.42610  0.23640  0.04790  1.0000 0.4116827312
H   H13       1.0  0.03130  0.24980  0.72880  1.0000 0.1166926387
H   H14       1.0  0.96870  0.74980  0.77120  1.0000 0.1166926387
H   H15       1.0  0.96870  0.75020  0.27120  1.0000 0.1166926387
H   H16       1.0  0.03130  0.25020  0.22880  1.0000 0.1166926387
H   H17       1.0  0.79500  0.44600  0.42700  1.0000 0.3932127717
H   H18       1.0  0.20500  0.94600  0.07300  1.0000 0.3932127717
H   H19       1.0  0.20500  0.55400  0.57300  1.0000 0.3932127717
H   H20       1.0  0.79500  0.05400  0.92700  1.0000 0.3932127717
H   H21       1.0  0.86900  0.38670  0.42200  1.0000 0.4116827312
H   H22       1.0  0.13100  0.88670  0.07800  1.0000 0.4116827312
H   H23       1.0  0.13100  0.61330  0.57800  1.0000 0.4116827312
H   H24       1.0  0.86900  0.11330  0.92200  1.0000 0.4116827312
C   C1        1.0  0.53870  0.52850  0.63130  1.0000 0.1910294729
C   C2        1.0  0.46130  0.02850  0.86870  1.0000 0.1910294729
C   C3        1.0  0.46130  0.47150  0.36870  1.0000 0.1910294729
C   C4        1.0  0.53870  0.97150  0.13130  1.0000 0.1910294729
C   C5        1.0  0.22970  0.41800  0.65330  1.0000 0.5648718837
C   C6        1.0  0.77030  0.91800  0.84670  1.0000 0.5659710331
C   C7        1.0  0.77030  0.58200  0.34670  1.0000 0.5659710331
C   C8        1.0  0.22970  0.08200  0.15330  1.0000 0.5648718837
C   C9        1.0  0.10120  0.27270  0.72860  1.0000 0.207368246
C   C10       1.0  0.89880  0.77270  0.77140  1.0000 0.207368246
C   C11       1.0  0.89880  0.72730  0.27140  1.0000 0.207368246
C   C12       1.0  0.10120  0.22730  0.22860  1.0000 0.207368246
C   C13       1.0  0.29400  0.29440  0.75310  1.0000 -0.0280798676
C   C14       1.0  0.70600  0.79440  0.74690  1.0000 -0.0280798676
C   C15       1.0  0.70600  0.70560  0.24690  1.0000 -0.0280798676
C   C16       1.0  0.29400  0.20560  0.25310  1.0000 -0.0280798676
C   C17       1.0  0.43640  0.27760  0.80320  1.0000 0.5659710331
C   C18       1.0  0.56360  0.77760  0.69680  1.0000 0.5659710331
C   C19       1.0  0.56360  0.72240  0.19680  1.0000 0.5659710331
C   C20       1.0  0.43640  0.22240  0.30320  1.0000 0.5659710331
C   C21       1.0  0.21370  0.35000  0.69690  1.0000 -0.0280798676
C   C22       1.0  0.78630  0.85000  0.80310  1.0000 -0.0280798676
C   C23       1.0  0.78630  0.65000  0.30310  1.0000 -0.0280798676
C   C24       1.0  0.21370  0.15000  0.19690  1.0000 -0.0280798676
C   C25       1.0  0.73040  0.51910  0.64830  1.0000 0.0036174988
C   C26       1.0  0.26960  0.01910  0.85170  1.0000 0.0036174988
C   C27       1.0  0.26960  0.48090  0.35170  1.0000 0.0036174988
C   C28       1.0  0.73040  0.98090  0.14830  1.0000 0.0036174988
C   C29       1.0  0.73550  0.37970  0.66470  1.0000 0.5851166609
C   C30       1.0  0.26450  0.87970  0.83530  1.0000 0.5851166609
C   C31       1.0  0.26450  0.62030  0.33530  1.0000 0.5851166609
C   C32       1.0  0.73550  0.12030  0.16470  1.0000 0.5851166609
C   C33       1.0  0.68530  0.45210  0.65100  1.0000 -0.0430753811
C   C34       1.0  0.31470  0.95210  0.84900  1.0000 -0.0430753811
C   C35       1.0  0.31470  0.54790  0.34900  1.0000 -0.0430753811
C   C36       1.0  0.68530  0.04790  0.15100  1.0000 -0.0430753811
C   C37       1.0  0.85520  0.54920  0.66030  1.0000 0.5821688238
C   C38       1.0  0.14480  0.04920  0.83970  1.0000 0.5821688238
C   C39       1.0  0.14480  0.45080  0.33970  1.0000 0.5821688238
C   C40       1.0  0.85520  0.95080  0.16030  1.0000 0.5821688238
N   N1        1.0  0.56360  0.46030  0.64170  1.0000 -0.320256823
N   N2        1.0  0.43640  0.96030  0.85830  1.0000 -0.320256823
N   N3        1.0  0.43640  0.53970  0.35830  1.0000 -0.320256823
N   N4        1.0  0.56360  0.03970  0.14170  1.0000 -0.320256823
N   N5        1.0  0.09290  0.33580  0.68300  1.0000 -0.3341090095
N   N6        1.0  0.90710  0.83580  0.81700  1.0000 -0.3341090095
N   N7        1.0  0.90710  0.66420  0.31700  1.0000 -0.3341090095
N   N8        1.0  0.09290  0.16420  0.18300  1.0000 -0.3341090095
N   N9        1.0  0.22160  0.24630  0.77390  1.0000 -0.3341090095
N   N10       1.0  0.77840  0.74630  0.72610  1.0000 -0.3341090095
N   N11       1.0  0.77840  0.75370  0.22610  1.0000 -0.3341090095
N   N12       1.0  0.22160  0.25370  0.27390  1.0000 -0.3341090095
N   N13       1.0  0.63710  0.56700  0.63580  1.0000 -0.3341090095
N   N14       1.0  0.36290  0.06700  0.86420  1.0000 -0.3341090095
N   N15       1.0  0.36290  0.43300  0.36420  1.0000 -0.3341090095
N   N16       1.0  0.63710  0.93300  0.13580  1.0000 -0.3341090095
O   O1        1.0  0.33260  0.43380  0.65260  1.0000 -0.5582346688
O   O2        1.0  0.66740  0.93380  0.84740  1.0000 -0.5582346688
O   O3        1.0  0.66740  0.56620  0.34740  1.0000 -0.5582346688
O   O4        1.0  0.33260  0.06620  0.15260  1.0000 -0.5582346688
O   O5        1.0  0.13220  0.45870  0.61840  1.0000 -0.5080791202
O   O6        1.0  0.86780  0.95870  0.88160  1.0000 -0.5080791202
O   O7        1.0  0.86780  0.54130  0.38160  1.0000 -0.5080791202
O   O8        1.0  0.13220  0.04130  0.11840  1.0000 -0.5080791202
O   O9        1.0  0.47520  0.22230  0.86060  1.0000 -0.5302294728
O   O10       1.0  0.52480  0.72230  0.63940  1.0000 -0.5302294728
O   O11       1.0  0.52480  0.77770  0.13940  1.0000 -0.5302294728
O   O12       1.0  0.47520  0.27770  0.36060  1.0000 -0.5302294728
O   O13       1.0  0.85460  0.41590  0.45990  1.0000 -0.6419018445
O   O14       1.0  0.14540  0.91590  0.04010  1.0000 -0.6419018445
O   O15       1.0  0.14540  0.58410  0.54010  1.0000 -0.6419018445
O   O16       1.0  0.85460  0.08410  0.95990  1.0000 -0.6419018445
O   O17       1.0  0.51290  0.31820  0.78950  1.0000 -0.5374161539
O   O18       1.0  0.48710  0.81820  0.71050  1.0000 -0.5374161539
O   O19       1.0  0.48710  0.68180  0.21050  1.0000 -0.5374161539
O   O20       1.0  0.51290  0.18180  0.28950  1.0000 -0.5374161539
O   O21       1.0  0.37480  0.30690  0.53060  1.0000 -0.6734653202
O   O22       1.0  0.62520  0.80690  0.96940  1.0000 -0.6734653202
O   O23       1.0  0.62520  0.69310  0.46940  1.0000 -0.6734653202
O   O24       1.0  0.37480  0.19310  0.03060  1.0000 -0.6734653202
O   O25       1.0  0.66470  0.33300  0.67360  1.0000 -0.5302294728
O   O26       1.0  0.33530  0.83300  0.82640  1.0000 -0.5302294728
O   O27       1.0  0.33530  0.66700  0.32640  1.0000 -0.5302294728
O   O28       1.0  0.66470  0.16700  0.17360  1.0000 -0.5302294728
O   O29       1.0  0.84100  0.36480  0.66770  1.0000 -0.5582346688
O   O30       1.0  0.15900  0.86480  0.83230  1.0000 -0.5582346688
O   O31       1.0  0.15900  0.63520  0.33230  1.0000 -0.5582346688
O   O32       1.0  0.84100  0.13520  0.16770  1.0000 -0.5582346688
O   O33       1.0  0.94850  0.50940  0.67390  1.0000 -0.5374161539
O   O34       1.0  0.05150  0.00940  0.82610  1.0000 -0.5374161539
O   O35       1.0  0.05150  0.49060  0.32610  1.0000 -0.5374161539
O   O36       1.0  0.94850  0.99060  0.17390  1.0000 -0.5374161539
O   O37       1.0  0.86030  0.61570  0.65770  1.0000 -0.5544153091
O   O38       1.0  0.13970  0.11570  0.84230  1.0000 -0.5544153091
O   O39       1.0  0.13970  0.38430  0.34230  1.0000 -0.5544153091
O   O40       1.0  0.86030  0.88430  0.15770  1.0000 -0.5582346688
