# DDEC6 charges by PACMAN v1.1 (https://github.com/mtap-research/PACMAN-charge/)
data_2008[Cu][dia]3[FSR]3
_chemical_formula_sum              "Cu6 H72 C96 N12 O20"
_cell_length_a       14.9007
_cell_length_b       14.9007
_cell_length_c       13.3876
_cell_angle_alpha    75.5414
_cell_angle_beta     104.459
_cell_angle_gamma    79.7187

_symmetry_space_group_name_H-M    "P 1"
_symmetry_Int_Tables_number       1

loop_
  _symmetry_equiv_pos_as_xyz
  'x, y, z'

loop_
  _atom_site_type_symbol
  _atom_site_label
  _atom_site_symmetry_multiplicity
  _atom_site_fract_x
  _atom_site_fract_y
  _atom_site_fract_z
  _atom_site_occupancy
  _atom_site_charge
Cu  Cu1       1.0  0.73817  0.73325  0.44221  1.0000 0.8026157695
Cu  Cu2       1.0  0.73325  0.73817  0.05779  1.0000 0.8026157695
Cu  Cu3       1.0  0.26183  0.26675  0.55779  1.0000 0.8026157695
Cu  Cu4       1.0  0.26675  0.26183  0.94221  1.0000 0.8026157695
Cu  Cu5       1.0  0.63228  0.63228  0.25000  1.0000 0.775180884
Cu  Cu6       1.0  0.36772  0.36772  0.75000  1.0000 0.775180884
H   H1        1.0  0.81390  0.89810  0.32090  1.0000 0.1080451728
H   H2        1.0  0.89810  0.81390  0.17910  1.0000 0.1080451728
H   H3        1.0  0.18610  0.10190  0.67910  1.0000 0.1080451728
H   H4        1.0  0.10190  0.18610  0.82090  1.0000 0.1080451728
H   H5        1.0  0.94660  0.95880  0.36570  1.0000 0.1192019795
H   H6        1.0  0.95880  0.94660  0.13430  1.0000 0.1192019795
H   H7        1.0  0.05340  0.04120  0.63430  1.0000 0.1192019795
H   H8        1.0  0.04120  0.05340  0.86570  1.0000 0.1192019795
H   H9        1.0  0.06570  0.88310  0.52390  1.0000 0.1192019795
H   H10       1.0  0.88310  0.06570  0.97610  1.0000 0.1192019795
H   H11       1.0  0.93430  0.11690  0.47610  1.0000 0.1192019795
H   H12       1.0  0.11690  0.93430  0.02390  1.0000 0.1192019795
H   H13       1.0  0.12960  0.74260  0.70700  1.0000 0.1192019795
H   H14       1.0  0.74260  0.12960  0.79300  1.0000 0.1192019795
H   H15       1.0  0.87040  0.25740  0.29300  1.0000 0.1192019795
H   H16       1.0  0.25740  0.87040  0.20700  1.0000 0.1192019795
H   H17       1.0  0.10600  0.61640  0.81710  1.0000 0.1478110927
H   H18       1.0  0.61640  0.10600  0.68290  1.0000 0.1478110927
H   H19       1.0  0.89400  0.38360  0.18290  1.0000 0.1478110927
H   H20       1.0  0.38360  0.89400  0.31710  1.0000 0.1478110927
H   H21       1.0  0.99970  0.49890  0.85150  1.0000 0.1299001454
H   H22       1.0  0.49890  0.99970  0.64850  1.0000 0.1299001454
H   H23       1.0  0.00030  0.50110  0.14850  1.0000 0.1299001454
H   H24       1.0  0.50110  0.00030  0.35150  1.0000 0.1299001454
H   H25       1.0  0.86450  0.45610  0.78780  1.0000 0.1192019795
H   H26       1.0  0.45610  0.86450  0.71220  1.0000 0.1192019795
H   H27       1.0  0.13550  0.54390  0.21220  1.0000 0.1192019795
H   H28       1.0  0.54390  0.13550  0.28780  1.0000 0.1192019795
H   H29       1.0  0.75640  0.54220  0.62150  1.0000 0.1080451728
H   H30       1.0  0.54220  0.75640  0.87850  1.0000 0.1080451728
H   H31       1.0  0.24360  0.45780  0.37850  1.0000 0.1080451728
H   H32       1.0  0.45780  0.24360  0.12150  1.0000 0.1080451728
H   H33       1.0  0.43120  0.77700  0.12590  1.0000 0.1080451728
H   H34       1.0  0.77700  0.43120  0.37410  1.0000 0.1080451728
H   H35       1.0  0.56880  0.22300  0.87410  1.0000 0.1080451728
H   H36       1.0  0.22300  0.56880  0.62590  1.0000 0.1080451728
H   H37       1.0  0.27510  0.76330  0.07250  1.0000 0.1192019795
H   H38       1.0  0.76330  0.27510  0.42750  1.0000 0.1192019795
H   H39       1.0  0.72490  0.23670  0.92750  1.0000 0.1192019795
H   H40       1.0  0.23670  0.72490  0.57250  1.0000 0.1192019795
H   H41       1.0  0.24370  0.61690  0.11100  1.0000 0.1299001454
H   H42       1.0  0.61690  0.24370  0.38900  1.0000 0.1299001454
H   H43       1.0  0.75630  0.38310  0.88900  1.0000 0.1299001454
H   H44       1.0  0.38310  0.75630  0.61100  1.0000 0.1299001454
H   H45       1.0  0.30810  0.43490  0.20250  1.0000 0.1192019795
H   H46       1.0  0.43490  0.30810  0.29750  1.0000 0.1192019795
H   H47       1.0  0.69190  0.56510  0.79750  1.0000 0.1192019795
H   H48       1.0  0.56510  0.69190  0.70250  1.0000 0.1192019795
H   H49       1.0  0.42970  0.65290  0.43070  1.0000 0.1192019795
H   H50       1.0  0.65290  0.42970  0.06930  1.0000 0.1192019795
H   H51       1.0  0.57030  0.34710  0.56930  1.0000 0.1192019795
H   H52       1.0  0.34710  0.57030  0.93070  1.0000 0.1192019795
H   H53       1.0  0.59490  0.50790  0.50700  1.0000 0.1080451728
H   H54       1.0  0.50790  0.59490  0.99300  1.0000 0.1080451728
H   H55       1.0  0.40510  0.49210  0.49300  1.0000 0.1080451728
H   H56       1.0  0.49210  0.40510  0.00700  1.0000 0.1080451728
H   H57       1.0  0.60680  0.98500  0.15070  1.0000 0.1299001454
H   H58       1.0  0.98500  0.60680  0.34930  1.0000 0.1299001454
H   H59       1.0  0.39320  0.01500  0.84930  1.0000 0.1299001454
H   H60       1.0  0.01500  0.39320  0.65070  1.0000 0.1299001454
H   H61       1.0  0.50110  0.90130  0.02060  1.0000 0.1080451728
H   H62       1.0  0.90130  0.50110  0.47940  1.0000 0.1080451728
H   H63       1.0  0.49890  0.09870  0.97940  1.0000 0.1080451728
H   H64       1.0  0.09870  0.49890  0.52060  1.0000 0.1080451728
H   H65       1.0  0.67070  0.89870  0.51500  1.0000 0.301613089
H   H66       1.0  0.89870  0.67070  0.98500  1.0000 0.301613089
H   H67       1.0  0.32930  0.10130  0.48500  1.0000 0.301613089
H   H68       1.0  0.10130  0.32930  0.01500  1.0000 0.301613089
H   H69       1.0  0.69700  0.82300  0.60610  1.0000 0.301613089
H   H70       1.0  0.82300  0.69700  0.89390  1.0000 0.301613089
H   H71       1.0  0.30300  0.17700  0.39390  1.0000 0.301613089
H   H72       1.0  0.17700  0.30300  0.10610  1.0000 0.301613089
C   C1        1.0  0.86160  0.86740  0.38710  1.0000 0.0770705792
C   C2        1.0  0.86740  0.86160  0.11290  1.0000 0.0770705792
C   C3        1.0  0.13840  0.13260  0.61290  1.0000 0.0770705792
C   C4        1.0  0.13260  0.13840  0.88710  1.0000 0.0770705792
C   C5        1.0  0.94200  0.90380  0.41360  1.0000 -0.1509149196
C   C6        1.0  0.90380  0.94200  0.08640  1.0000 -0.1509149196
C   C7        1.0  0.05800  0.09620  0.58640  1.0000 -0.1509149196
C   C8        1.0  0.09620  0.05800  0.91360  1.0000 -0.1509149196
C   C9        1.0  0.01170  0.85990  0.50730  1.0000 -0.1121255678
C   C10       1.0  0.85990  0.01170  0.99270  1.0000 -0.1121255678
C   C11       1.0  0.98830  0.14010  0.49270  1.0000 -0.1121255678
C   C12       1.0  0.14010  0.98830  0.00730  1.0000 -0.1121255678
C   C13       1.0  0.00350  0.77790  0.58110  1.0000 0.0544293129
C   C14       1.0  0.77790  0.00350  0.91890  1.0000 0.0544293129
C   C15       1.0  0.99650  0.22210  0.41890  1.0000 0.062319512
C   C16       1.0  0.22210  0.99650  0.08110  1.0000 0.0544293129
C   C17       1.0  0.07360  0.72380  0.68530  1.0000 -0.1666135226
C   C18       1.0  0.72380  0.07360  0.81470  1.0000 -0.1666135226
C   C19       1.0  0.92640  0.27620  0.31470  1.0000 -0.1666135226
C   C20       1.0  0.27620  0.92640  0.18530  1.0000 -0.1666135226
C   C21       1.0  0.06000  0.64840  0.75020  1.0000 -0.1412770745
C   C22       1.0  0.64840  0.06000  0.74980  1.0000 -0.1412770745
C   C23       1.0  0.94000  0.35160  0.24980  1.0000 -0.1412770745
C   C24       1.0  0.35160  0.94000  0.25020  1.0000 -0.1412770745
C   C25       1.0  0.97670  0.61450  0.72070  1.0000 0.062319512
C   C26       1.0  0.61450  0.97670  0.77930  1.0000 0.062319512
C   C27       1.0  0.02330  0.38550  0.27930  1.0000 0.062319512
C   C28       1.0  0.38550  0.02330  0.22070  1.0000 0.062319512
C   C29       1.0  0.95680  0.53460  0.78350  1.0000 -0.0974433102
C   C30       1.0  0.53460  0.95680  0.71650  1.0000 -0.0974433102
C   C31       1.0  0.04320  0.46540  0.21650  1.0000 -0.0974433102
C   C32       1.0  0.46540  0.04320  0.28350  1.0000 -0.0974433102
C   C33       1.0  0.87670  0.50970  0.74600  1.0000 -0.1412770745
C   C34       1.0  0.50970  0.87670  0.75400  1.0000 -0.1412770745
C   C35       1.0  0.12330  0.49030  0.25400  1.0000 -0.1412770745
C   C36       1.0  0.49030  0.12330  0.24600  1.0000 -0.1412770745
C   C37       1.0  0.81130  0.56190  0.64580  1.0000 0.062319512
C   C38       1.0  0.56190  0.81130  0.85420  1.0000 0.062319512
C   C39       1.0  0.18870  0.43810  0.35420  1.0000 0.062319512
C   C40       1.0  0.43810  0.18870  0.14580  1.0000 0.062319512
C   C41       1.0  0.90810  0.66470  0.61950  1.0000 0.0992453958
C   C42       1.0  0.66470  0.90810  0.88050  1.0000 0.0992453958
C   C43       1.0  0.09190  0.33530  0.38050  1.0000 0.0992453958
C   C44       1.0  0.33530  0.09190  0.11950  1.0000 0.0992453958
C   C45       1.0  0.92190  0.74630  0.54950  1.0000 0.1080451728
C   C46       1.0  0.74630  0.92190  0.95050  1.0000 0.1080451728
C   C47       1.0  0.07810  0.25370  0.45050  1.0000 0.1080451728
C   C48       1.0  0.25370  0.07810  0.04950  1.0000 0.1080451728
C   C49       1.0  0.41930  0.71670  0.14300  1.0000 0.0992453958
C   C50       1.0  0.71670  0.41930  0.35700  1.0000 0.0992453958
C   C51       1.0  0.58070  0.28330  0.85700  1.0000 0.0992453958
C   C52       1.0  0.28330  0.58070  0.64300  1.0000 0.0992453958
C   C53       1.0  0.32500  0.70860  0.11050  1.0000 -0.1509149196
C   C54       1.0  0.70860  0.32500  0.38950  1.0000 -0.1509149196
C   C55       1.0  0.67500  0.29140  0.88950  1.0000 -0.1509149196
C   C56       1.0  0.29140  0.67500  0.61050  1.0000 -0.1509149196
C   C57       1.0  0.30620  0.62200  0.13390  1.0000 -0.0974433102
C   C58       1.0  0.62200  0.30620  0.36610  1.0000 -0.0974433102
C   C59       1.0  0.69380  0.37800  0.86610  1.0000 -0.0974433102
C   C60       1.0  0.37800  0.69380  0.63390  1.0000 -0.0974433102
C   C61       1.0  0.38020  0.54060  0.19220  1.0000 0.062319512
C   C62       1.0  0.54060  0.38020  0.30780  1.0000 0.062319512
C   C63       1.0  0.61980  0.45940  0.80780  1.0000 0.062319512
C   C64       1.0  0.45940  0.61980  0.69220  1.0000 0.062319512
C   C65       1.0  0.36910  0.44490  0.22210  1.0000 -0.1509149196
C   C66       1.0  0.44490  0.36910  0.27790  1.0000 -0.1509149196
C   C67       1.0  0.63090  0.55510  0.77790  1.0000 -0.1509149196
C   C68       1.0  0.55510  0.63090  0.72210  1.0000 -0.1509149196
C   C69       1.0  0.47280  0.55260  0.22140  1.0000 0.1080451728
C   C70       1.0  0.55260  0.47280  0.27860  1.0000 0.1080451728
C   C71       1.0  0.52720  0.44740  0.77860  1.0000 0.1080451728
C   C72       1.0  0.44740  0.52720  0.72140  1.0000 0.1080451728
C   C73       1.0  0.55870  0.69470  0.44740  1.0000 0.5941746909
C   C74       1.0  0.69470  0.55870  0.05260  1.0000 0.5941746909
C   C75       1.0  0.44130  0.30530  0.55260  1.0000 0.5941746909
C   C76       1.0  0.30530  0.44130  0.94740  1.0000 0.5941746909
C   C77       1.0  0.49570  0.62730  0.45400  1.0000 -0.2590830745
C   C78       1.0  0.62730  0.49570  0.04600  1.0000 -0.2590830745
C   C79       1.0  0.50430  0.37270  0.54600  1.0000 -0.2590830745
C   C80       1.0  0.37270  0.50430  0.95400  1.0000 -0.2590830745
C   C81       1.0  0.52930  0.53310  0.49120  1.0000 -0.0828245428
C   C82       1.0  0.53310  0.52930  0.00880  1.0000 -0.0828245428
C   C83       1.0  0.47070  0.46690  0.50880  1.0000 -0.0828245428
C   C84       1.0  0.46690  0.47070  0.99120  1.0000 -0.0828245428
C   C85       1.0  0.62610  0.83710  0.21370  1.0000 0.6014508533
C   C86       1.0  0.83710  0.62610  0.28630  1.0000 0.6014508533
C   C87       1.0  0.37390  0.16290  0.78630  1.0000 0.6014508533
C   C88       1.0  0.16290  0.37390  0.71370  1.0000 0.6014508533
C   C89       1.0  0.58550  0.93430  0.13330  1.0000 -0.2590830745
C   C90       1.0  0.93430  0.58550  0.36670  1.0000 -0.2590830745
C   C91       1.0  0.41450  0.06570  0.86670  1.0000 -0.2590830745
C   C92       1.0  0.06570  0.41450  0.63330  1.0000 -0.2590830745
C   C93       1.0  0.52100  0.95240  0.03880  1.0000 -0.0850462091
C   C94       1.0  0.95240  0.52100  0.46120  1.0000 -0.0850462091
C   C95       1.0  0.47900  0.04760  0.96120  1.0000 -0.0850462091
C   C96       1.0  0.04760  0.47900  0.53880  1.0000 -0.0850462091
N   N1        1.0  0.85201  0.79041  0.45380  1.0000 -0.2693858367
N   N2        1.0  0.79041  0.85201  0.04620  1.0000 -0.2693858367
N   N3        1.0  0.14799  0.20959  0.54620  1.0000 -0.2693858367
N   N4        1.0  0.20959  0.14799  0.95380  1.0000 -0.2693858367
N   N5        1.0  0.82480  0.63980  0.58330  1.0000 -0.2777248022
N   N6        1.0  0.63980  0.82480  0.91670  1.0000 -0.2777248022
N   N7        1.0  0.17520  0.36020  0.41670  1.0000 -0.2777248022
N   N8        1.0  0.36020  0.17520  0.08330  1.0000 -0.2777248022
N   N9        1.0  0.49175  0.64055  0.19740  1.0000 -0.2590830745
N   N10       1.0  0.64055  0.49175  0.30260  1.0000 -0.2590830745
N   N11       1.0  0.50825  0.35945  0.80260  1.0000 -0.2590830745
N   N12       1.0  0.35945  0.50825  0.69740  1.0000 -0.2590830745
O   O1        1.0  0.63870  0.66450  0.43410  1.0000 -0.5945331079
O   O2        1.0  0.66450  0.63870  0.06590  1.0000 -0.5945331079
O   O3        1.0  0.36130  0.33550  0.56590  1.0000 -0.5945331079
O   O4        1.0  0.33550  0.36130  0.93410  1.0000 -0.5945331079
O   O5        1.0  0.53029  0.77349  0.45900  1.0000 -0.5527309996
O   O6        1.0  0.77349  0.53029  0.04100  1.0000 -0.5527309996
O   O7        1.0  0.46971  0.22651  0.54100  1.0000 -0.5527309996
O   O8        1.0  0.22651  0.46971  0.95900  1.0000 -0.5527309996
O   O9        1.0  0.67125  0.83325  0.30610  1.0000 -0.5173880381
O   O10       1.0  0.83325  0.67125  0.19390  1.0000 -0.5173880381
O   O11       1.0  0.32875  0.16675  0.69390  1.0000 -0.5173880381
O   O12       1.0  0.16675  0.32875  0.80610  1.0000 -0.5173880381
O   O13       1.0  0.61019  0.76819  0.18000  1.0000 -0.5709295195
O   O14       1.0  0.76819  0.61019  0.32000  1.0000 -0.5709295195
O   O15       1.0  0.38981  0.23181  0.82000  1.0000 -0.5709295195
O   O16       1.0  0.23181  0.38981  0.68000  1.0000 -0.5709295195
O   O17       1.0  0.67940  0.83820  0.53740  1.0000 -0.6994844001
O   O18       1.0  0.83820  0.67940  0.96260  1.0000 -0.6994844001
O   O19       1.0  0.32060  0.16180  0.46260  1.0000 -0.6994844001
O   O20       1.0  0.16180  0.32060  0.03740  1.0000 -0.6994844001
