# DDEC6 charges by PACMAN v1.1 (https://github.com/mtap-research/PACMAN-charge/)
data_2008[LaCu][nan]3[FSR]1
_chemical_formula_sum              "La4 Cu4 H32 C56 N8 O32"
_cell_length_a       9.3825
_cell_length_b       21.6939
_cell_length_c       9.6773
_cell_angle_alpha    90
_cell_angle_beta     115.312
_cell_angle_gamma    90

_symmetry_space_group_name_H-M    "P 1"
_symmetry_Int_Tables_number       1

loop_
  _symmetry_equiv_pos_as_xyz
  'x, y, z'

loop_
  _atom_site_type_symbol
  _atom_site_label
  _atom_site_symmetry_multiplicity
  _atom_site_fract_x
  _atom_site_fract_y
  _atom_site_fract_z
  _atom_site_occupancy
  _atom_site_charge
La  La1       1.0  0.12205  0.99143  0.36168  1.0000 1.8486988109
La  La2       1.0  0.37795  0.49143  0.63832  1.0000 1.8486988109
La  La3       1.0  0.87795  0.00857  0.63832  1.0000 1.8486988109
La  La4       1.0  0.62205  0.50857  0.36168  1.0000 1.8486988109
Cu  Cu1       1.0  0.45642  0.85610  0.30874  1.0000 0.3233533661
Cu  Cu2       1.0  0.04358  0.35610  0.69126  1.0000 0.3233533661
Cu  Cu3       1.0  0.54358  0.14390  0.69126  1.0000 0.3233533661
Cu  Cu4       1.0  0.95642  0.64390  0.30874  1.0000 0.3233533661
H   H1        1.0  0.70300  0.84650  0.20680  1.0000 0.095263594
H   H2        1.0  0.79700  0.34650  0.79320  1.0000 0.0870496626
H   H3        1.0  0.29700  0.15350  0.79320  1.0000 0.095263594
H   H4        1.0  0.20300  0.65350  0.20680  1.0000 0.095263594
H   H5        1.0  0.75590  0.87620  0.00730  1.0000 0.1461974374
H   H6        1.0  0.74410  0.37620  0.99270  1.0000 0.1461974374
H   H7        1.0  0.24410  0.12380  0.99270  1.0000 0.1461974374
H   H8        1.0  0.25590  0.62380  0.00730  1.0000 0.1461974374
H   H9        1.0  0.56340  0.92920  0.80290  1.0000 0.1315610885
H   H10       1.0  0.93660  0.42920  0.19710  1.0000 0.1315610885
H   H11       1.0  0.43660  0.07080  0.19710  1.0000 0.1315610885
H   H12       1.0  0.06340  0.57080  0.80290  1.0000 0.1315610885
H   H13       1.0  0.29240  0.92740  0.02770  1.0000 0.1181416075
H   H14       1.0  0.20760  0.42740  0.97230  1.0000 0.1181416075
H   H15       1.0  0.70760  0.07260  0.97230  1.0000 0.1181416075
H   H16       1.0  0.79240  0.57260  0.02770  1.0000 0.1181416075
H   H17       1.0  0.87800  0.65510  0.57440  1.0000 0.1181416075
H   H18       1.0  0.62200  0.15510  0.42560  1.0000 0.1181416075
H   H19       1.0  0.12200  0.34490  0.42560  1.0000 0.1181416075
H   H20       1.0  0.37800  0.84490  0.57440  1.0000 0.1181416075
H   H21       1.0  0.84870  0.73220  0.72130  1.0000 0.1315610885
H   H22       1.0  0.65130  0.23220  0.27870  1.0000 0.1315610885
H   H23       1.0  0.15130  0.26780  0.27870  1.0000 0.1315610885
H   H24       1.0  0.34870  0.76780  0.72130  1.0000 0.1315610885
H   H25       1.0  0.89610  0.83410  0.67660  1.0000 0.1461974374
H   H26       1.0  0.60390  0.33410  0.32340  1.0000 0.1461974374
H   H27       1.0  0.10390  0.16590  0.32340  1.0000 0.1461974374
H   H28       1.0  0.39610  0.66590  0.67660  1.0000 0.1461974374
H   H29       1.0  0.00230  0.77280  0.34240  1.0000 0.1079248163
H   H30       1.0  0.49770  0.27280  0.65760  1.0000 0.1079248163
H   H31       1.0  0.99770  0.22720  0.65760  1.0000 0.1079248163
H   H32       1.0  0.50230  0.72720  0.34240  1.0000 0.1079248163
C   C1        1.0  0.62760  0.86923  0.12790  1.0000 0.059765448
C   C2        1.0  0.87240  0.36923  0.87210  1.0000 0.059765448
C   C3        1.0  0.37240  0.13077  0.87210  1.0000 0.059765448
C   C4        1.0  0.12760  0.63077  0.12790  1.0000 0.059765448
C   C5        1.0  0.65970  0.88600  0.00790  1.0000 -0.1176389967
C   C6        1.0  0.84030  0.38600  0.99210  1.0000 -0.1176389967
C   C7        1.0  0.34030  0.11400  0.99210  1.0000 -0.1176389967
C   C8        1.0  0.15970  0.61400  0.00790  1.0000 -0.1176389967
C   C9        1.0  0.54590  0.91806  0.88710  1.0000 -0.0577157771
C   C10       1.0  0.95410  0.41806  0.11290  1.0000 -0.0577157771
C   C11       1.0  0.45410  0.08194  0.11290  1.0000 -0.0577157771
C   C12       1.0  0.04590  0.58194  0.88710  1.0000 -0.0577157771
C   C13       1.0  0.40540  0.93314  0.89380  1.0000 -0.0704238776
C   C14       1.0  0.09460  0.43314  0.10620  1.0000 -0.0704238776
C   C15       1.0  0.59460  0.06686  0.10620  1.0000 -0.0704238776
C   C16       1.0  0.90540  0.56686  0.89380  1.0000 -0.0704238776
C   C17       1.0  0.38520  0.91604  0.02170  1.0000 0.059765448
C   C18       1.0  0.11480  0.41604  0.97830  1.0000 0.059765448
C   C19       1.0  0.61480  0.08396  0.97830  1.0000 0.059765448
C   C20       1.0  0.88520  0.58396  0.02170  1.0000 0.059765448
C   C21       1.0  0.27590  0.96648  0.76350  1.0000 0.6075622003
C   C22       1.0  0.22410  0.46648  0.23650  1.0000 0.6075622003
C   C23       1.0  0.72410  0.03352  0.23650  1.0000 0.6075622003
C   C24       1.0  0.77590  0.53352  0.76350  1.0000 0.6075622003
C   C25       1.0  0.89690  0.69561  0.55530  1.0000 0.0870496626
C   C26       1.0  0.60310  0.19561  0.44470  1.0000 0.0870496626
C   C27       1.0  0.10310  0.30439  0.44470  1.0000 0.0870496626
C   C28       1.0  0.39690  0.80439  0.55530  1.0000 0.0870496626
C   C29       1.0  0.87940  0.74160  0.64420  1.0000 -0.1447424431
C   C30       1.0  0.62060  0.24160  0.35580  1.0000 -0.1447424431
C   C31       1.0  0.12060  0.25840  0.35580  1.0000 -0.1447424431
C   C32       1.0  0.37940  0.75840  0.64420  1.0000 -0.1447424431
C   C33       1.0  0.90800  0.80224  0.61820  1.0000 -0.0445564826
C   C34       1.0  0.59200  0.30224  0.38180  1.0000 -0.0445564826
C   C35       1.0  0.09200  0.19776  0.38180  1.0000 -0.0445564826
C   C36       1.0  0.40800  0.69776  0.61820  1.0000 -0.0445564826
C   C37       1.0  0.95460  0.81413  0.50310  1.0000 -0.0704238776
C   C38       1.0  0.54540  0.31413  0.49690  1.0000 -0.0704238776
C   C39       1.0  0.04540  0.18587  0.49690  1.0000 -0.0704238776
C   C40       1.0  0.45460  0.68587  0.50310  1.0000 -0.0704238776
C   C41       1.0  0.96980  0.76481  0.41890  1.0000 0.0346485704
C   C42       1.0  0.53020  0.26481  0.58110  1.0000 0.0346485704
C   C43       1.0  0.03020  0.23519  0.58110  1.0000 0.0346485704
C   C44       1.0  0.46980  0.73519  0.41890  1.0000 0.0346485704
C   C45       1.0  0.99250  0.87697  0.46470  1.0000 0.5785165589
C   C46       1.0  0.50750  0.37697  0.53530  1.0000 0.5785165589
C   C47       1.0  0.00750  0.12303  0.53530  1.0000 0.5785165589
C   C48       1.0  0.49250  0.62303  0.46470  1.0000 0.5785165589
C   C49       1.0  0.50370  0.96605  0.47680  1.0000 0.4759716998
C   C50       1.0  0.99630  0.46605  0.52320  1.0000 0.4759716998
C   C51       1.0  0.49630  0.03395  0.52320  1.0000 0.4759716998
C   C52       1.0  0.00370  0.53395  0.47680  1.0000 0.4759716998
C   C53       1.0  0.98730  0.96426  0.99200  1.0000 0.4714707892
C   C54       1.0  0.51270  0.46426  0.00800  1.0000 0.4714707892
C   C55       1.0  0.01270  0.03574  0.00800  1.0000 0.4714707892
C   C56       1.0  0.48730  0.53574  0.99200  1.0000 0.4714707892
N   N1        1.0  0.49330  0.88371  0.13810  1.0000 -0.2003752976
N   N2        1.0  0.00670  0.38371  0.86190  1.0000 -0.2003752976
N   N3        1.0  0.50670  0.11629  0.86190  1.0000 -0.2003752976
N   N4        1.0  0.99330  0.61629  0.13810  1.0000 -0.2003752976
N   N5        1.0  0.93990  0.70644  0.44240  1.0000 -0.1948517103
N   N6        1.0  0.56010  0.20644  0.55760  1.0000 -0.2003752976
N   N7        1.0  0.06010  0.29356  0.55760  1.0000 -0.1948517103
N   N8        1.0  0.43990  0.79356  0.44240  1.0000 -0.2003752976
O   O1        1.0  0.28670  0.96719  0.63890  1.0000 -0.615709259
O   O2        1.0  0.21330  0.46719  0.36110  1.0000 -0.615709259
O   O3        1.0  0.71330  0.03281  0.36110  1.0000 -0.615709259
O   O4        1.0  0.78670  0.53281  0.63890  1.0000 -0.615709259
O   O5        1.0  0.16750  0.98985  0.78850  1.0000 -0.6079109002
O   O6        1.0  0.33250  0.48985  0.21150  1.0000 -0.6079109002
O   O7        1.0  0.83250  0.01015  0.21150  1.0000 -0.6079109002
O   O8        1.0  0.66750  0.51015  0.78850  1.0000 -0.6079109002
O   O9        1.0  0.06260  0.88014  0.38080  1.0000 -0.5637113292
O   O10       1.0  0.43740  0.38014  0.61920  1.0000 -0.5637113292
O   O11       1.0  0.93740  0.11986  0.61920  1.0000 -0.5637113292
O   O12       1.0  0.56260  0.61986  0.38080  1.0000 -0.5637113292
O   O13       1.0  0.95410  0.92365  0.51790  1.0000 -0.6374832232
O   O14       1.0  0.54590  0.42365  0.48210  1.0000 -0.6374832232
O   O15       1.0  0.04590  0.07635  0.48210  1.0000 -0.6374832232
O   O16       1.0  0.45410  0.57635  0.51790  1.0000 -0.6374832232
O   O17       1.0  0.37610  0.94288  0.38180  1.0000 -0.5403276969
O   O18       1.0  0.12390  0.44288  0.61820  1.0000 -0.5403276969
O   O19       1.0  0.62390  0.05712  0.61820  1.0000 -0.5403276969
O   O20       1.0  0.87610  0.55712  0.38180  1.0000 -0.5403276969
O   O21       1.0  0.63410  0.93961  0.53550  1.0000 -0.5509633336
O   O22       1.0  0.86590  0.43961  0.46450  1.0000 -0.5509633336
O   O23       1.0  0.36590  0.06039  0.46450  1.0000 -0.5509633336
O   O24       1.0  0.13410  0.56039  0.53550  1.0000 -0.5509633336
O   O25       1.0  0.05090  0.93386  0.11270  1.0000 -0.5509633336
O   O26       1.0  0.44910  0.43386  0.88730  1.0000 -0.5509633336
O   O27       1.0  0.94910  0.06614  0.88730  1.0000 -0.5509633336
O   O28       1.0  0.55090  0.56614  0.11270  1.0000 -0.5509633336
O   O29       1.0  0.90670  0.94338  0.86080  1.0000 -0.5691784162
O   O30       1.0  0.59330  0.44338  0.13920  1.0000 -0.5691784162
O   O31       1.0  0.09330  0.05662  0.13920  1.0000 -0.5691784162
O   O32       1.0  0.40670  0.55662  0.86080  1.0000 -0.5691784162
