# DDEC6 charges by PACMAN v1.1 (https://github.com/mtap-research/PACMAN-charge/)
data_2008[Co][bcg]3[FSR]1
_chemical_formula_sum              "Co6 H32 C64 O32"
_cell_length_a       17.1992
_cell_length_b       17.1992
_cell_length_c       18.392
_cell_angle_alpha    87.8417
_cell_angle_beta     92.1583
_cell_angle_gamma    147.177

_symmetry_space_group_name_H-M    "P 1"
_symmetry_Int_Tables_number       1

loop_
  _symmetry_equiv_pos_as_xyz
  'x, y, z'

loop_
  _atom_site_type_symbol
  _atom_site_label
  _atom_site_symmetry_multiplicity
  _atom_site_fract_x
  _atom_site_fract_y
  _atom_site_fract_z
  _atom_site_occupancy
  _atom_site_charge
Co  Co1       1.0  0.14802  0.45262  0.01294  1.0000 0.9769501026
Co  Co2       1.0  0.45262  0.14802  0.48706  1.0000 0.9769501026
Co  Co3       1.0  0.85198  0.54738  0.98706  1.0000 0.9769501026
Co  Co4       1.0  0.54738  0.85198  0.51294  1.0000 0.9769501026
Co  Co5       1.0  0.00000  0.50000  0.00000  1.0000 1.0668388243
Co  Co6       1.0  0.50000  0.00000  0.50000  1.0000 1.0668388243
H   H1        1.0  0.83310  0.09270  0.69790  1.0000 0.1381898756
H   H2        1.0  0.09270  0.83310  0.80210  1.0000 0.1381898756
H   H3        1.0  0.16690  0.90730  0.30210  1.0000 0.1381898756
H   H4        1.0  0.90730  0.16690  0.19790  1.0000 0.1381898756
H   H5        1.0  0.65160  0.15260  0.71760  1.0000 0.131762554
H   H6        1.0  0.15260  0.65160  0.78240  1.0000 0.131762554
H   H7        1.0  0.34840  0.84740  0.28240  1.0000 0.131762554
H   H8        1.0  0.84740  0.34840  0.21760  1.0000 0.131762554
H   H9        1.0  0.77050  0.26470  0.83080  1.0000 0.131762554
H   H10       1.0  0.26470  0.77050  0.66920  1.0000 0.131762554
H   H11       1.0  0.22950  0.73530  0.16920  1.0000 0.131762554
H   H12       1.0  0.73530  0.22950  0.33080  1.0000 0.131762554
H   H13       1.0  0.67820  0.18780  0.08180  1.0000 0.131762554
H   H14       1.0  0.18780  0.67820  0.41820  1.0000 0.131762554
H   H15       1.0  0.32180  0.81220  0.91820  1.0000 0.131762554
H   H16       1.0  0.81220  0.32180  0.58180  1.0000 0.131762554
H   H17       1.0  0.47950  0.04530  0.88410  1.0000 0.1240032996
H   H18       1.0  0.04530  0.47950  0.61590  1.0000 0.1240032996
H   H19       1.0  0.52050  0.95470  0.11590  1.0000 0.1240032996
H   H20       1.0  0.95470  0.52050  0.38410  1.0000 0.1240032996
H   H21       1.0  0.42460  0.30820  0.01210  1.0000 0.131762554
H   H22       1.0  0.30820  0.42460  0.48790  1.0000 0.131762554
H   H23       1.0  0.57540  0.69180  0.98790  1.0000 0.131762554
H   H24       1.0  0.69180  0.57540  0.51210  1.0000 0.131762554
H   H25       1.0  0.73820  0.72300  0.97580  1.0000 0.131762554
H   H26       1.0  0.72300  0.73820  0.52420  1.0000 0.131762554
H   H27       1.0  0.26180  0.27700  0.02420  1.0000 0.131762554
H   H28       1.0  0.27700  0.26180  0.47580  1.0000 0.131762554
H   H29       1.0  0.94700  0.20080  0.80980  1.0000 0.131762554
H   H30       1.0  0.20080  0.94700  0.69020  1.0000 0.131762554
H   H31       1.0  0.05300  0.79920  0.19020  1.0000 0.131762554
H   H32       1.0  0.79920  0.05300  0.30980  1.0000 0.131762554
C   C1        1.0  0.65242  0.03850  0.62565  1.0000 0.5948853578
C   C2        1.0  0.03850  0.65242  0.87435  1.0000 0.5948853578
C   C3        1.0  0.34758  0.96150  0.37435  1.0000 0.5948853578
C   C4        1.0  0.96150  0.34758  0.12565  1.0000 0.5948853578
C   C5        1.0  0.73159  0.11267  0.69722  1.0000 -0.0014967154
C   C6        1.0  0.11267  0.73159  0.80278  1.0000 -0.0014967154
C   C7        1.0  0.26841  0.88733  0.30278  1.0000 -0.0014967154
C   C8        1.0  0.88733  0.26841  0.19722  1.0000 -0.0014967154
C   C9        1.0  0.81988  0.12726  0.72457  1.0000 -0.1000200431
C   C10       1.0  0.12726  0.81988  0.77543  1.0000 -0.1000200431
C   C11       1.0  0.18012  0.87274  0.27543  1.0000 -0.1000200431
C   C12       1.0  0.87274  0.18012  0.22457  1.0000 -0.1000200431
C   C13       1.0  0.71239  0.16321  0.73625  1.0000 -0.1000200431
C   C14       1.0  0.16321  0.71239  0.76375  1.0000 -0.1000200431
C   C15       1.0  0.28761  0.83679  0.26375  1.0000 -0.1000200431
C   C16       1.0  0.83679  0.28761  0.23625  1.0000 -0.1000200431
C   C17       1.0  0.78350  0.23032  0.80367  1.0000 -0.0888381374
C   C18       1.0  0.23032  0.78350  0.69633  1.0000 -0.0888381374
C   C19       1.0  0.21650  0.76968  0.19633  1.0000 -0.0888381374
C   C20       1.0  0.76968  0.21650  0.30367  1.0000 -0.0888381374
C   C21       1.0  0.87276  0.24588  0.83023  1.0000 -0.0103371435
C   C22       1.0  0.24588  0.87276  0.66977  1.0000 -0.0103371435
C   C23       1.0  0.12724  0.75412  0.16977  1.0000 -0.0103371435
C   C24       1.0  0.75412  0.12724  0.33023  1.0000 -0.0103371435
C   C25       1.0  0.94593  0.31609  0.90227  1.0000 0.6007882143
C   C26       1.0  0.31609  0.94593  0.59773  1.0000 0.6007882143
C   C27       1.0  0.05407  0.68391  0.09773  1.0000 0.6007882143
C   C28       1.0  0.68391  0.05407  0.40227  1.0000 0.6007882143
C   C29       1.0  0.69527  0.28813  0.95893  1.0000 0.5740080263
C   C30       1.0  0.28813  0.69527  0.54107  1.0000 0.5740080263
C   C31       1.0  0.30473  0.71187  0.04107  1.0000 0.5740080263
C   C32       1.0  0.71187  0.30473  0.45893  1.0000 0.5740080263
C   C33       1.0  0.59459  0.13785  0.98036  1.0000 0.017255026
C   C34       1.0  0.13785  0.59459  0.51964  1.0000 0.017255026
C   C35       1.0  0.40541  0.86215  0.01964  1.0000 0.017255026
C   C36       1.0  0.86215  0.40541  0.48036  1.0000 0.017255026
C   C37       1.0  0.60580  0.11104  0.04875  1.0000 -0.0888381374
C   C38       1.0  0.11104  0.60580  0.45125  1.0000 -0.0888381374
C   C39       1.0  0.39420  0.88896  0.95125  1.0000 -0.0888381374
C   C40       1.0  0.88896  0.39420  0.54875  1.0000 -0.0888381374
C   C41       1.0  0.48757  0.02655  0.93065  1.0000 -0.1000200431
C   C42       1.0  0.02655  0.48757  0.56935  1.0000 -0.1000200431
C   C43       1.0  0.51243  0.97345  0.06935  1.0000 -0.1000200431
C   C44       1.0  0.97345  0.51243  0.43065  1.0000 -0.1000200431
C   C45       1.0  0.70231  0.54327  0.98744  1.0000 0.535909989
C   C46       1.0  0.54327  0.70231  0.51256  1.0000 0.535909989
C   C47       1.0  0.29769  0.45673  0.01256  1.0000 0.535909989
C   C48       1.0  0.45673  0.29769  0.48744  1.0000 0.535909989
C   C49       1.0  0.59655  0.52113  0.99471  1.0000 0.0064523258
C   C50       1.0  0.52113  0.59655  0.50529  1.0000 0.0064523258
C   C51       1.0  0.40345  0.47887  0.00529  1.0000 0.0064523258
C   C52       1.0  0.47887  0.40345  0.49471  1.0000 0.0064523258
C   C53       1.0  0.45715  0.38777  0.00747  1.0000 -0.0888381374
C   C54       1.0  0.38777  0.45715  0.49253  1.0000 -0.0888381374
C   C55       1.0  0.54285  0.61223  0.99253  1.0000 -0.0888381374
C   C56       1.0  0.61223  0.54285  0.50747  1.0000 -0.0888381374
C   C57       1.0  0.64029  0.63041  0.98624  1.0000 -0.0888381374
C   C58       1.0  0.63041  0.64029  0.51376  1.0000 -0.0888381374
C   C59       1.0  0.35971  0.36959  0.01376  1.0000 -0.0888381374
C   C60       1.0  0.36959  0.35971  0.48624  1.0000 -0.0888381374
C   C61       1.0  0.88806  0.19244  0.79080  1.0000 -0.0888381374
C   C62       1.0  0.19244  0.88806  0.70920  1.0000 -0.0888381374
C   C63       1.0  0.11194  0.80756  0.20920  1.0000 -0.0888381374
C   C64       1.0  0.80756  0.11194  0.29080  1.0000 -0.0888381374
O   O1        1.0  0.90298  0.33154  0.94334  1.0000 -0.5743273263
O   O2        1.0  0.33154  0.90298  0.55666  1.0000 -0.5743273263
O   O3        1.0  0.09702  0.66846  0.05666  1.0000 -0.5743273263
O   O4        1.0  0.66846  0.09702  0.44334  1.0000 -0.5743273263
O   O5        1.0  0.04502  0.35068  0.91818  1.0000 -0.5241120224
O   O6        1.0  0.35068  0.04502  0.58182  1.0000 -0.5241120224
O   O7        1.0  0.95498  0.64932  0.08182  1.0000 -0.5241120224
O   O8        1.0  0.64932  0.95498  0.41818  1.0000 -0.5241120224
O   O9        1.0  0.58805  0.04279  0.60010  1.0000 -0.5563404326
O   O10       1.0  0.04279  0.58805  0.89990  1.0000 -0.5563404326
O   O11       1.0  0.41195  0.95721  0.39990  1.0000 -0.5563404326
O   O12       1.0  0.95721  0.41195  0.10010  1.0000 -0.5563404326
O   O13       1.0  0.66027  0.97931  0.59710  1.0000 -0.529176331
O   O14       1.0  0.97931  0.66027  0.90290  1.0000 -0.529176331
O   O15       1.0  0.33973  0.02069  0.40290  1.0000 -0.529176331
O   O16       1.0  0.02069  0.33973  0.09710  1.0000 -0.529176331
O   O17       1.0  0.66063  0.44057  0.99586  1.0000 -0.4472849433
O   O18       1.0  0.44057  0.66063  0.50414  1.0000 -0.4472849433
O   O19       1.0  0.33937  0.55943  0.00414  1.0000 -0.4472849433
O   O20       1.0  0.55943  0.33937  0.49586  1.0000 -0.4472849433
O   O21       1.0  0.82515  0.65975  0.97085  1.0000 -0.4067390476
O   O22       1.0  0.65975  0.82515  0.52915  1.0000 -0.4067390476
O   O23       1.0  0.17485  0.34025  0.02915  1.0000 -0.4067390476
O   O24       1.0  0.34025  0.17485  0.47085  1.0000 -0.4067390476
O   O25       1.0  0.79691  0.38903  0.00511  1.0000 -0.6052096252
O   O26       1.0  0.38903  0.79691  0.49489  1.0000 -0.6052096252
O   O27       1.0  0.20309  0.61097  0.99489  1.0000 -0.6052096252
O   O28       1.0  0.61097  0.20309  0.50511  1.0000 -0.6052096252
O   O29       1.0  0.67545  0.30973  0.90149  1.0000 -0.493162549
O   O30       1.0  0.30973  0.67545  0.59851  1.0000 -0.493162549
O   O31       1.0  0.32455  0.69027  0.09851  1.0000 -0.493162549
O   O32       1.0  0.69027  0.32455  0.40149  1.0000 -0.493162549
