# DDEC6 charges by PACMAN v1.1 (https://github.com/mtap-research/PACMAN-charge/)
data_2008[Zn][nan]3[FSR]6
_chemical_formula_sum              "Zn8 H24 C22 N32 O14"
_cell_length_a       17.3916
_cell_length_b       17.3916
_cell_length_c       9.7308
_cell_angle_alpha    85.5691
_cell_angle_beta     94.4309
_cell_angle_gamma    149.86

_symmetry_space_group_name_H-M    "P 1"
_symmetry_Int_Tables_number       1

loop_
  _symmetry_equiv_pos_as_xyz
  'x, y, z'

loop_
  _atom_site_type_symbol
  _atom_site_label
  _atom_site_symmetry_multiplicity
  _atom_site_fract_x
  _atom_site_fract_y
  _atom_site_fract_z
  _atom_site_occupancy
  _atom_site_charge
Zn  Zn1       1.0  0.38260  0.21834  0.75961  1.0000 0.7091677675
Zn  Zn2       1.0  0.21834  0.38260  0.74039  1.0000 0.7091677675
Zn  Zn3       1.0  0.61740  0.78166  0.24039  1.0000 0.7091677675
Zn  Zn4       1.0  0.78166  0.61740  0.25961  1.0000 0.7091677675
Zn  Zn5       1.0  0.37633  0.03341  0.55304  1.0000 0.6952175239
Zn  Zn6       1.0  0.03341  0.37633  0.94696  1.0000 0.6952175239
Zn  Zn7       1.0  0.62367  0.96659  0.44696  1.0000 0.6952175239
Zn  Zn8       1.0  0.96659  0.62367  0.05304  1.0000 0.6952175239
H   H1        1.0  0.58930  0.52010  0.64000  1.0000 0.3168708572
H   H2        1.0  0.52010  0.58930  0.86000  1.0000 0.3168708572
H   H3        1.0  0.41070  0.47990  0.36000  1.0000 0.3168708572
H   H4        1.0  0.47990  0.41070  0.14000  1.0000 0.3168708572
H   H5        1.0  0.68820  0.62080  0.51800  1.0000 0.2932151893
H   H6        1.0  0.62080  0.68820  0.98200  1.0000 0.2932151893
H   H7        1.0  0.31180  0.37920  0.48200  1.0000 0.2932151893
H   H8        1.0  0.37920  0.31180  0.01800  1.0000 0.2932151893
H   H9        1.0  0.05200  0.86780  0.04760  1.0000 0.2932151893
H   H10       1.0  0.86780  0.05200  0.45240  1.0000 0.2932151893
H   H11       1.0  0.94800  0.13220  0.95240  1.0000 0.2932151893
H   H12       1.0  0.13220  0.94800  0.54760  1.0000 0.2932151893
H   H13       1.0  0.14680  0.00800  0.96790  1.0000 0.3117999324
H   H14       1.0  0.00800  0.14680  0.53210  1.0000 0.3117999324
H   H15       1.0  0.85320  0.99200  0.03210  1.0000 0.3117999324
H   H16       1.0  0.99200  0.85320  0.46790  1.0000 0.3117999324
H   H17       1.0  0.58370  0.30170  0.33480  1.0000 0.1244368294
H   H18       1.0  0.30170  0.58370  0.16520  1.0000 0.1244368294
H   H19       1.0  0.41630  0.69830  0.66520  1.0000 0.1244368294
H   H20       1.0  0.69830  0.41630  0.83480  1.0000 0.1244368294
H   H21       1.0  0.17270  0.77330  0.78900  1.0000 0.1259809622
H   H22       1.0  0.77330  0.17270  0.71100  1.0000 0.1259809622
H   H23       1.0  0.82730  0.22670  0.21100  1.0000 0.1259809622
H   H24       1.0  0.22670  0.82730  0.28900  1.0000 0.1259809622
C   C1        1.0  0.58480  0.43260  0.51890  1.0000 0.4911802599
C   C2        1.0  0.43260  0.58480  0.98110  1.0000 0.4911802599
C   C3        1.0  0.41520  0.56740  0.48110  1.0000 0.4911802599
C   C4        1.0  0.56740  0.41520  0.01890  1.0000 0.4911802599
C   C5        1.0  0.56925  0.32275  0.40340  1.0000 0.1563311556
C   C6        1.0  0.32275  0.56925  0.09660  1.0000 0.1563311556
C   C7        1.0  0.43075  0.67725  0.59660  1.0000 0.1563311556
C   C8        1.0  0.67725  0.43075  0.90340  1.0000 0.1563311556
C   C9        1.0  0.15794  0.91606  0.89660  1.0000 0.4911802599
C   C10       1.0  0.91606  0.15794  0.60340  1.0000 0.4911802599
C   C11       1.0  0.84206  0.08394  0.10340  1.0000 0.4911802599
C   C12       1.0  0.08394  0.84206  0.39660  1.0000 0.4911802599
C   C13       1.0  0.18268  0.83352  0.80680  1.0000 0.1650956312
C   C14       1.0  0.83352  0.18268  0.69320  1.0000 0.1650956312
C   C15       1.0  0.81732  0.16648  0.19320  1.0000 0.1650956312
C   C16       1.0  0.16648  0.81732  0.30680  1.0000 0.1650956312
C   C17       1.0  0.26320  0.26320  0.75000  1.0000 0.7925293931
C   C18       1.0  0.73680  0.73680  0.25000  1.0000 0.7925293931
C   C19       1.0  0.55474  0.06826  0.45120  1.0000 0.457916219
C   C20       1.0  0.06826  0.55474  0.04880  1.0000 0.457916219
C   C21       1.0  0.44526  0.93174  0.54880  1.0000 0.457916219
C   C22       1.0  0.93174  0.44526  0.95120  1.0000 0.457916219
N   N1        1.0  0.48948  0.30112  0.58410  1.0000 -0.3210844508
N   N2        1.0  0.30112  0.48948  0.91590  1.0000 -0.3210844508
N   N3        1.0  0.51052  0.69888  0.41590  1.0000 -0.3210844508
N   N4        1.0  0.69888  0.51052  0.08410  1.0000 -0.3210844508
N   N5        1.0  0.48209  0.23151  0.50690  1.0000 -0.2052008769
N   N6        1.0  0.23151  0.48209  0.99310  1.0000 -0.2052008769
N   N7        1.0  0.51791  0.76849  0.49310  1.0000 -0.2052008769
N   N8        1.0  0.76849  0.51791  0.00690  1.0000 -0.200198414
N   N9        1.0  0.63733  0.45087  0.40350  1.0000 -0.4271443895
N   N10       1.0  0.45087  0.63733  0.09650  1.0000 -0.4271443895
N   N11       1.0  0.36267  0.54913  0.59650  1.0000 -0.4271443895
N   N12       1.0  0.54913  0.36267  0.90350  1.0000 -0.4271443895
N   N13       1.0  0.62579  0.53741  0.56460  1.0000 -0.6374136022
N   N14       1.0  0.53741  0.62579  0.93540  1.0000 -0.6374136022
N   N15       1.0  0.37421  0.46259  0.43540  1.0000 -0.6374136022
N   N16       1.0  0.46259  0.37421  0.06460  1.0000 -0.6374136022
N   N17       1.0  0.25287  0.01193  0.79340  1.0000 -0.3137432149
N   N18       1.0  0.01193  0.25287  0.70660  1.0000 -0.3137432149
N   N19       1.0  0.74713  0.98807  0.20660  1.0000 -0.3137432149
N   N20       1.0  0.98807  0.74713  0.29340  1.0000 -0.3137432149
N   N21       1.0  0.26713  0.95587  0.73380  1.0000 -0.200198414
N   N22       1.0  0.95587  0.26713  0.76620  1.0000 -0.200198414
N   N23       1.0  0.73287  0.04413  0.26620  1.0000 -0.200198414
N   N24       1.0  0.04413  0.73287  0.23380  1.0000 -0.200198414
N   N25       1.0  0.11168  0.80372  0.91040  1.0000 -0.4137916377
N   N26       1.0  0.80372  0.11168  0.58960  1.0000 -0.4137916377
N   N27       1.0  0.88832  0.19628  0.08960  1.0000 -0.4137916377
N   N28       1.0  0.19628  0.88832  0.41040  1.0000 -0.4137916377
N   N29       1.0  0.11333  0.93267  0.98120  1.0000 -0.6253667286
N   N30       1.0  0.93267  0.11333  0.51880  1.0000 -0.6253667286
N   N31       1.0  0.88667  0.06733  0.01880  1.0000 -0.6253667286
N   N32       1.0  0.06733  0.88667  0.48120  1.0000 -0.6253667286
O   O1        1.0  0.22315  0.15745  0.75920  1.0000 -0.6061332336
O   O2        1.0  0.15745  0.22315  0.74080  1.0000 -0.6061332336
O   O3        1.0  0.77685  0.84255  0.24080  1.0000 -0.6061332336
O   O4        1.0  0.84255  0.77685  0.25920  1.0000 -0.6061332336
O   O5        1.0  0.40200  0.40200  0.75000  1.0000 -0.6488794795
O   O6        1.0  0.59800  0.59800  0.25000  1.0000 -0.6488794795
O   O7        1.0  0.53627  0.12253  0.42440  1.0000 -0.4729346668
O   O8        1.0  0.12253  0.53627  0.07560  1.0000 -0.4729346668
O   O9        1.0  0.46373  0.87747  0.57560  1.0000 -0.4729346668
O   O10       1.0  0.87747  0.46373  0.92440  1.0000 -0.4729346668
O   O11       1.0  0.65303  0.11297  0.39750  1.0000 -0.4816721341
O   O12       1.0  0.11297  0.65303  0.10250  1.0000 -0.4816721341
O   O13       1.0  0.34697  0.88703  0.60250  1.0000 -0.4816721341
O   O14       1.0  0.88703  0.34697  0.89750  1.0000 -0.4816721341
