# DDEC6 charges by PACMAN v1.1 (https://github.com/mtap-research/PACMAN-charge/)
data_2008[Zn][pts]3[FSR]1
_chemical_formula_sum              "Zn4 H8 C40 O32"
_cell_length_a       11.5837
_cell_length_b       14.7422
_cell_length_c       14.552
_cell_angle_alpha    90
_cell_angle_beta     128.731
_cell_angle_gamma    90

_symmetry_space_group_name_H-M    "P 1"
_symmetry_Int_Tables_number       1

loop_
  _symmetry_equiv_pos_as_xyz
  'x, y, z'

loop_
  _atom_site_type_symbol
  _atom_site_label
  _atom_site_symmetry_multiplicity
  _atom_site_fract_x
  _atom_site_fract_y
  _atom_site_fract_z
  _atom_site_occupancy
  _atom_site_charge
Zn  Zn1       1.0  0.24310  0.03205  0.25067  1.0000 0.9966458859
Zn  Zn2       1.0  0.75690  0.53205  0.24933  1.0000 0.9966458859
Zn  Zn3       1.0  0.75690  0.96795  0.74933  1.0000 0.9966458859
Zn  Zn4       1.0  0.24310  0.46795  0.75067  1.0000 0.9966458859
H   H1        1.0  0.44740  0.69340  0.68040  1.0000 0.1337214665
H   H2        1.0  0.55260  0.19340  0.81960  1.0000 0.1337214665
H   H3        1.0  0.55260  0.30660  0.31960  1.0000 0.1337214665
H   H4        1.0  0.44740  0.80660  0.18040  1.0000 0.1337214665
H   H5        1.0  0.04540  0.82490  0.33820  1.0000 0.1337214665
H   H6        1.0  0.95460  0.32490  0.16180  1.0000 0.1337214665
H   H7        1.0  0.95460  0.17510  0.66180  1.0000 0.1337214665
H   H8        1.0  0.04540  0.67510  0.83820  1.0000 0.1337214665
C   C1        1.0  0.25527  0.84956  0.48212  1.0000 -0.0102733071
C   C2        1.0  0.74473  0.34956  0.01788  1.0000 -0.0102733071
C   C3        1.0  0.74473  0.15044  0.51788  1.0000 -0.0102733071
C   C4        1.0  0.25527  0.65044  0.98212  1.0000 -0.0102733071
C   C5        1.0  0.37688  0.80944  0.58617  1.0000 0.0022531982
C   C6        1.0  0.62312  0.30944  0.91383  1.0000 0.0022531982
C   C7        1.0  0.62312  0.19056  0.41383  1.0000 0.0022531982
C   C8        1.0  0.37688  0.69056  0.08617  1.0000 0.0022531982
C   C9        1.0  0.36636  0.71960  0.61086  1.0000 -0.0803221302
C   C10       1.0  0.63364  0.21960  0.88914  1.0000 -0.0803221302
C   C11       1.0  0.63364  0.28040  0.38914  1.0000 -0.0803221302
C   C12       1.0  0.36636  0.78040  0.11086  1.0000 -0.0803221302
C   C13       1.0  0.23872  0.66795  0.53494  1.0000 -0.0006220639
C   C14       1.0  0.76128  0.16795  0.96506  1.0000 -0.0006220639
C   C15       1.0  0.76128  0.33205  0.46506  1.0000 -0.0006220639
C   C16       1.0  0.23872  0.83205  0.03494  1.0000 -0.0006220639
C   C17       1.0  0.11709  0.70812  0.43065  1.0000 -0.0102733071
C   C18       1.0  0.88291  0.20812  0.06935  1.0000 -0.0102733071
C   C19       1.0  0.88291  0.29188  0.56935  1.0000 -0.0102733071
C   C20       1.0  0.11709  0.79188  0.93065  1.0000 -0.0102733071
C   C21       1.0  0.12715  0.79819  0.40681  1.0000 -0.0803221302
C   C22       1.0  0.87285  0.29819  0.09319  1.0000 -0.0803221302
C   C23       1.0  0.87285  0.20181  0.59319  1.0000 -0.0803221302
C   C24       1.0  0.12715  0.70181  0.90681  1.0000 -0.0803221302
C   C25       1.0  0.25356  0.94650  0.44630  1.0000 0.5519401463
C   C26       1.0  0.74644  0.44650  0.05370  1.0000 0.5519401463
C   C27       1.0  0.74644  0.05350  0.55370  1.0000 0.5519401463
C   C28       1.0  0.25356  0.55350  0.94630  1.0000 0.5519401463
C   C29       1.0  0.52465  0.85535  0.67249  1.0000 0.5367949935
C   C30       1.0  0.47535  0.35535  0.82751  1.0000 0.5367949935
C   C31       1.0  0.47535  0.14465  0.32751  1.0000 0.5367949935
C   C32       1.0  0.52465  0.64465  0.17249  1.0000 0.5367949935
C   C33       1.0  0.24569  0.57102  0.57411  1.0000 0.5561490984
C   C34       1.0  0.75431  0.07102  0.92589  1.0000 0.5561490984
C   C35       1.0  0.75431  0.42898  0.42589  1.0000 0.5561490984
C   C36       1.0  0.24569  0.92898  0.07411  1.0000 0.5561490984
C   C37       1.0  0.97276  0.65974  0.34231  1.0000 0.5367949935
C   C38       1.0  0.02724  0.15974  0.15769  1.0000 0.5367949935
C   C39       1.0  0.02724  0.34026  0.65769  1.0000 0.5367949935
C   C40       1.0  0.97276  0.84026  0.84231  1.0000 0.5367949935
O   O1        1.0  0.28846  0.00999  0.51434  1.0000 -0.3714612951
O   O2        1.0  0.71154  0.50999  0.98566  1.0000 -0.3714612951
O   O3        1.0  0.71154  0.99001  0.48566  1.0000 -0.3714612951
O   O4        1.0  0.28846  0.49001  0.01434  1.0000 -0.3714612951
O   O5        1.0  0.20375  0.95349  0.33882  1.0000 -0.4294680772
O   O6        1.0  0.79625  0.45349  0.16118  1.0000 -0.4294680772
O   O7        1.0  0.79625  0.04651  0.66118  1.0000 -0.4294680772
O   O8        1.0  0.20375  0.54651  0.83882  1.0000 -0.4294680772
O   O9        1.0  0.60042  0.83402  0.77820  1.0000 -0.3851419805
O   O10       1.0  0.39958  0.33402  0.72180  1.0000 -0.3851419805
O   O11       1.0  0.39958  0.16598  0.22180  1.0000 -0.3851419805
O   O12       1.0  0.60042  0.66598  0.27820  1.0000 -0.3851419805
O   O13       1.0  0.56403  0.91245  0.63152  1.0000 -0.4396785764
O   O14       1.0  0.43597  0.41245  0.86848  1.0000 -0.4396785764
O   O15       1.0  0.43597  0.08755  0.36848  1.0000 -0.4396785764
O   O16       1.0  0.56403  0.58755  0.13152  1.0000 -0.4396785764
O   O17       1.0  0.25379  0.56702  0.66556  1.0000 -0.446795885
O   O18       1.0  0.74621  0.06702  0.83444  1.0000 -0.446795885
O   O19       1.0  0.74621  0.43298  0.33444  1.0000 -0.446795885
O   O20       1.0  0.25379  0.93298  0.16556  1.0000 -0.446795885
O   O21       1.0  0.25574  0.50644  0.52545  1.0000 -0.3714612951
O   O22       1.0  0.74426  0.00644  0.97455  1.0000 -0.3714612951
O   O23       1.0  0.74426  0.49356  0.47455  1.0000 -0.3714612951
O   O24       1.0  0.25574  0.99356  0.02545  1.0000 -0.3714612951
O   O25       1.0  0.95000  0.58652  0.37475  1.0000 -0.4396785764
O   O26       1.0  0.05000  0.08652  0.12525  1.0000 -0.4396785764
O   O27       1.0  0.05000  0.41348  0.62525  1.0000 -0.4396785764
O   O28       1.0  0.95000  0.91348  0.87475  1.0000 -0.4396785764
O   O29       1.0  0.88268  0.69345  0.24304  1.0000 -0.3825226245
O   O30       1.0  0.11732  0.19345  0.25696  1.0000 -0.3825226245
O   O31       1.0  0.11732  0.30655  0.75696  1.0000 -0.3825226245
O   O32       1.0  0.88268  0.80655  0.74304  1.0000 -0.3825226245
