# DDEC6 charges by PACMAN v1.1 (https://github.com/mtap-research/PACMAN-charge/)
data_2008[Cu][sql]2[FSR]2
_chemical_formula_sum              "Cu2 H24 C16 N24 O4"
_cell_length_a       7.9693
_cell_length_b       12.977
_cell_length_c       12.9727
_cell_angle_alpha    90
_cell_angle_beta     127.681
_cell_angle_gamma    90

_symmetry_space_group_name_H-M    "P 1"
_symmetry_Int_Tables_number       1

loop_
  _symmetry_equiv_pos_as_xyz
  'x, y, z'

loop_
  _atom_site_type_symbol
  _atom_site_label
  _atom_site_symmetry_multiplicity
  _atom_site_fract_x
  _atom_site_fract_y
  _atom_site_fract_z
  _atom_site_occupancy
  _atom_site_charge
Cu  Cu1       1.0  0.50000  0.00000  0.50000  1.0000 0.6063591126
Cu  Cu2       1.0  0.50000  0.50000  0.00000  1.0000 0.6040845397
H   H1        1.0  0.41740  0.00100  0.24640  1.0000 0.3398675356
H   H2        1.0  0.58260  0.50100  0.25360  1.0000 0.3398675356
H   H3        1.0  0.58260  0.99900  0.75360  1.0000 0.3398675356
H   H4        1.0  0.41740  0.49900  0.74640  1.0000 0.3398675356
H   H5        1.0  0.58570  0.07430  0.33110  1.0000 0.3540676195
H   H6        1.0  0.41430  0.57430  0.16890  1.0000 0.3540676195
H   H7        1.0  0.41430  0.92570  0.66890  1.0000 0.3540676195
H   H8        1.0  0.58570  0.42570  0.83110  1.0000 0.3540676195
H   H9        1.0  0.79310  0.84130  0.72170  1.0000 0.1160328701
H   H10       1.0  0.20690  0.34130  0.77830  1.0000 0.1160328701
H   H11       1.0  0.20690  0.15870  0.27830  1.0000 0.1160328701
H   H12       1.0  0.79310  0.65870  0.22170  1.0000 0.1160328701
H   H13       1.0  0.73730  0.66010  0.45790  1.0000 0.1133470941
H   H14       1.0  0.26270  0.16010  0.04210  1.0000 0.1133470941
H   H15       1.0  0.26270  0.33990  0.54210  1.0000 0.1133470941
H   H16       1.0  0.73730  0.83990  0.95790  1.0000 0.1133470941
H   H17       1.0  0.73650  0.57850  0.74630  1.0000 0.1133470941
H   H18       1.0  0.26350  0.07850  0.75370  1.0000 0.1133470941
H   H19       1.0  0.26350  0.42150  0.25370  1.0000 0.1133470941
H   H20       1.0  0.73650  0.92150  0.24630  1.0000 0.1133470941
H   H21       1.0  0.23460  0.67330  0.77690  1.0000 0.1160328701
H   H22       1.0  0.76540  0.17330  0.72310  1.0000 0.1160328701
H   H23       1.0  0.76540  0.32670  0.22310  1.0000 0.1160328701
H   H24       1.0  0.23460  0.82670  0.27690  1.0000 0.1160328701
C   C1        1.0  0.75550  0.81540  0.64330  1.0000 0.0400609484
C   C2        1.0  0.24450  0.31540  0.85670  1.0000 0.0400609484
C   C3        1.0  0.24450  0.18460  0.35670  1.0000 0.0400609484
C   C4        1.0  0.75550  0.68460  0.14330  1.0000 0.0400609484
C   C5        1.0  0.72400  0.71610  0.49710  1.0000 -0.0274803791
C   C6        1.0  0.27600  0.21610  0.00290  1.0000 -0.0274803791
C   C7        1.0  0.27600  0.28390  0.50290  1.0000 -0.0274803791
C   C8        1.0  0.72400  0.78390  0.99710  1.0000 -0.0228704487
C   C9        1.0  0.87450  0.58490  0.77360  1.0000 -0.0228704487
C   C10       1.0  0.12550  0.08490  0.72640  1.0000 -0.0228704487
C   C11       1.0  0.12550  0.41510  0.22640  1.0000 -0.0228704487
C   C12       1.0  0.87450  0.91510  0.27360  1.0000 -0.0228704487
C   C13       1.0  0.14770  0.63730  0.78960  1.0000 0.0400609484
C   C14       1.0  0.85230  0.13730  0.71040  1.0000 0.0400609484
C   C15       1.0  0.85230  0.36270  0.21040  1.0000 0.0400609484
C   C16       1.0  0.14770  0.86270  0.28960  1.0000 0.0400609484
N   N1        1.0  0.63760  0.86203  0.53120  1.0000 -0.19235835
N   N2        1.0  0.36240  0.36203  0.96880  1.0000 -0.19235835
N   N3        1.0  0.36240  0.13797  0.46880  1.0000 -0.19235835
N   N4        1.0  0.63760  0.63797  0.03120  1.0000 -0.19235835
N   N5        1.0  0.61760  0.79920  0.43720  1.0000 -0.2306224745
N   N6        1.0  0.38240  0.29920  0.06280  1.0000 -0.2306224745
N   N7        1.0  0.38240  0.20080  0.56280  1.0000 -0.2306224745
N   N8        1.0  0.61760  0.70080  0.93720  1.0000 -0.2306224745
N   N9        1.0  0.81380  0.72320  0.62660  1.0000 0.0491787647
N   N10       1.0  0.18620  0.22320  0.87340  1.0000 0.0491787647
N   N11       1.0  0.18620  0.27680  0.37340  1.0000 0.0491787647
N   N12       1.0  0.81380  0.77680  0.12660  1.0000 0.0491787647
N   N13       1.0  0.93800  0.65200  0.72320  1.0000 0.0400609484
N   N14       1.0  0.06200  0.15200  0.77680  1.0000 0.0400609484
N   N15       1.0  0.06200  0.34800  0.27680  1.0000 0.0400609484
N   N16       1.0  0.93800  0.84800  0.22320  1.0000 0.0400609484
N   N17       1.0  0.03520  0.53100  0.86550  1.0000 -0.2141805556
N   N18       1.0  0.96480  0.03100  0.63450  1.0000 -0.2141805556
N   N19       1.0  0.96480  0.46900  0.13450  1.0000 -0.2156386193
N   N20       1.0  0.03520  0.96900  0.36550  1.0000 -0.2141805556
N   N21       1.0  0.20850  0.56460  0.87450  1.0000 -0.1952362773
N   N22       1.0  0.79150  0.06460  0.62550  1.0000 -0.19235835
N   N23       1.0  0.79150  0.43540  0.12550  1.0000 -0.19235835
N   N24       1.0  0.20850  0.93540  0.37450  1.0000 -0.19235835
O   O1        1.0  0.48320  0.03800  0.31410  1.0000 -0.7440540609
O   O2        1.0  0.51680  0.53800  0.18590  1.0000 -0.7456770059
O   O3        1.0  0.51680  0.96200  0.68590  1.0000 -0.7456770059
O   O4        1.0  0.48320  0.46200  0.81410  1.0000 -0.7440540609
