# DDEC6 charges by PACMAN v1.1 (https://github.com/mtap-research/PACMAN-charge/)
data_2008[GdCu][nan]3[FSR]1
_chemical_formula_sum              "Gd4 Cu4 H32 C56 N8 O32"
_cell_length_a       9.2209
_cell_length_b       21.5841
_cell_length_c       9.5441
_cell_angle_alpha    90
_cell_angle_beta     116.219
_cell_angle_gamma    90

_symmetry_space_group_name_H-M    "P 1"
_symmetry_Int_Tables_number       1

loop_
  _symmetry_equiv_pos_as_xyz
  'x, y, z'

loop_
  _atom_site_type_symbol
  _atom_site_label
  _atom_site_symmetry_multiplicity
  _atom_site_fract_x
  _atom_site_fract_y
  _atom_site_fract_z
  _atom_site_occupancy
  _atom_site_charge
Gd  Gd1       1.0  0.12410  0.49154  0.85832  1.0000 2.0231332434
Gd  Gd2       1.0  0.37590  0.99154  0.14168  1.0000 2.0231332434
Gd  Gd3       1.0  0.87590  0.50846  0.14168  1.0000 2.0231332434
Gd  Gd4       1.0  0.62410  0.00846  0.85832  1.0000 2.0231332434
Cu  Cu1       1.0  0.04005  0.85407  0.19136  1.0000 0.33200002
Cu  Cu2       1.0  0.45995  0.35407  0.80864  1.0000 0.33200002
Cu  Cu3       1.0  0.95995  0.14593  0.80864  1.0000 0.33200002
Cu  Cu4       1.0  0.54005  0.64593  0.19136  1.0000 0.33200002
H   H1        1.0  0.99480  0.72370  0.15260  1.0000 0.1061165659
H   H2        1.0  0.50520  0.22370  0.84740  1.0000 0.1061165659
H   H3        1.0  0.00520  0.27630  0.84740  1.0000 0.1061165659
H   H4        1.0  0.49480  0.77630  0.15260  1.0000 0.1061165659
H   H5        1.0  0.10670  0.66667  0.81340  1.0000 0.1478588721
H   H6        1.0  0.39330  0.16667  0.18660  1.0000 0.1478588721
H   H7        1.0  0.89330  0.33333  0.18660  1.0000 0.1478588721
H   H8        1.0  0.60670  0.83333  0.81340  1.0000 0.1478588721
H   H9        1.0  0.15210  0.76940  0.77410  1.0000 0.1300638961
H   H10       1.0  0.34790  0.26940  0.22590  1.0000 0.1300638961
H   H11       1.0  0.84790  0.23060  0.22590  1.0000 0.1300638961
H   H12       1.0  0.65210  0.73060  0.77410  1.0000 0.1300638961
H   H13       1.0  0.11670  0.84550  0.92340  1.0000 0.1187506886
H   H14       1.0  0.38330  0.34550  0.07660  1.0000 0.1187506886
H   H15       1.0  0.88330  0.15450  0.07660  1.0000 0.1187506886
H   H16       1.0  0.61670  0.65450  0.92340  1.0000 0.1187506886
H   H17       1.0  0.79460  0.84360  0.29820  1.0000 0.0947965859
H   H18       1.0  0.70540  0.34360  0.70180  1.0000 0.0947965859
H   H19       1.0  0.20540  0.15640  0.70180  1.0000 0.0947965859
H   H20       1.0  0.29460  0.65640  0.29820  1.0000 0.0947965859
H   H21       1.0  0.74700  0.87260  0.50460  1.0000 0.1478588721
H   H22       1.0  0.75300  0.37260  0.49540  1.0000 0.1478588721
H   H23       1.0  0.25300  0.12740  0.49540  1.0000 0.1478588721
H   H24       1.0  0.24700  0.62740  0.50460  1.0000 0.1478588721
H   H25       1.0  0.93860  0.93140  0.70330  1.0000 0.1300638961
H   H26       1.0  0.56140  0.43140  0.29670  1.0000 0.1300638961
H   H27       1.0  0.06140  0.06860  0.29670  1.0000 0.1300638961
H   H28       1.0  0.43860  0.56860  0.70330  1.0000 0.1300638961
H   H29       1.0  0.20930  0.92930  0.47370  1.0000 0.1187506886
H   H30       1.0  0.29070  0.42930  0.52630  1.0000 0.1187506886
H   H31       1.0  0.79070  0.07070  0.52630  1.0000 0.1187506886
H   H32       1.0  0.70930  0.57070  0.47370  1.0000 0.1187506886
C   C1        1.0  0.02870  0.73270  0.07640  1.0000 0.0300238068
C   C2        1.0  0.47130  0.23270  0.92360  1.0000 0.0300238068
C   C3        1.0  0.97130  0.26730  0.92360  1.0000 0.0300238068
C   C4        1.0  0.52870  0.76730  0.07640  1.0000 0.0300238068
C   C5        1.0  0.04500  0.68360  0.99020  1.0000 -0.0783937824
C   C6        1.0  0.45500  0.18360  0.00980  1.0000 -0.0783937824
C   C7        1.0  0.95500  0.31640  0.00980  1.0000 -0.0783937824
C   C8        1.0  0.54500  0.81640  0.99020  1.0000 -0.0783937824
C   C9        1.0  0.09320  0.69790  0.87400  1.0000 -0.0448395992
C   C10       1.0  0.40680  0.19790  0.12600  1.0000 -0.0448395992
C   C11       1.0  0.90680  0.30210  0.12600  1.0000 -0.0448395992
C   C12       1.0  0.59320  0.80210  0.87400  1.0000 -0.0448395992
C   C13       1.0  0.12040  0.75890  0.85100  1.0000 -0.1427412228
C   C14       1.0  0.37960  0.25890  0.14900  1.0000 -0.1427412228
C   C15       1.0  0.87960  0.24110  0.14900  1.0000 -0.1427412228
C   C16       1.0  0.62040  0.74110  0.85100  1.0000 -0.1427412228
C   C17       1.0  0.10050  0.80440  0.94240  1.0000 0.0834830283
C   C18       1.0  0.39950  0.30440  0.05760  1.0000 0.0834830283
C   C19       1.0  0.89950  0.19560  0.05760  1.0000 0.0834830283
C   C20       1.0  0.60050  0.69560  0.94240  1.0000 0.0834830283
C   C21       1.0  0.01220  0.61950  0.02430  1.0000 0.6009696378
C   C22       1.0  0.48780  0.11950  0.97570  1.0000 0.6009696378
C   C23       1.0  0.98780  0.38050  0.97570  1.0000 0.6009696378
C   C24       1.0  0.51220  0.88050  0.02430  1.0000 0.6009696378
C   C25       1.0  0.87190  0.86740  0.37720  1.0000 0.0727413697
C   C26       1.0  0.62810  0.36740  0.62280  1.0000 0.0727413697
C   C27       1.0  0.12810  0.13260  0.62280  1.0000 0.0727413697
C   C28       1.0  0.37190  0.63260  0.37720  1.0000 0.0727413697
C   C29       1.0  0.84230  0.88440  0.50090  1.0000 -0.1130287247
C   C30       1.0  0.65770  0.38440  0.49910  1.0000 -0.1130287247
C   C31       1.0  0.15770  0.11560  0.49910  1.0000 -0.1130287247
C   C32       1.0  0.34230  0.61560  0.50090  1.0000 -0.1130287247
C   C33       1.0  0.95590  0.91900  0.61860  1.0000 -0.0593763109
C   C34       1.0  0.54410  0.41900  0.38140  1.0000 -0.0593763109
C   C35       1.0  0.04410  0.08100  0.38140  1.0000 -0.0593763109
C   C36       1.0  0.45590  0.58100  0.61860  1.0000 -0.0593763109
C   C37       1.0  0.09670  0.93520  0.60980  1.0000 -0.0593763109
C   C38       1.0  0.40330  0.43520  0.39020  1.0000 -0.0651490362
C   C39       1.0  0.90330  0.06480  0.39020  1.0000 -0.0593763109
C   C40       1.0  0.59670  0.56480  0.60980  1.0000 -0.0593763109
C   C41       1.0  0.11600  0.91740  0.48100  1.0000 0.0474562003
C   C42       1.0  0.38400  0.41740  0.51900  1.0000 0.0474562003
C   C43       1.0  0.88400  0.08260  0.51900  1.0000 0.0474562003
C   C44       1.0  0.61600  0.58260  0.48100  1.0000 0.0474562003
C   C45       1.0  0.23090  0.97000  0.74200  1.0000 0.6277451469
C   C46       1.0  0.26910  0.47000  0.25800  1.0000 0.6277451469
C   C47       1.0  0.76910  0.03000  0.25800  1.0000 0.6277451469
C   C48       1.0  0.73090  0.53000  0.74200  1.0000 0.6277451469
C   C49       1.0  0.98870  0.46460  0.49230  1.0000 0.4796439363
C   C50       1.0  0.51130  0.96460  0.50770  1.0000 0.4796439363
C   C51       1.0  0.01130  0.53540  0.50770  1.0000 0.4796439363
C   C52       1.0  0.48870  0.03540  0.49230  1.0000 0.4796439363
C   C53       1.0  0.99640  0.96580  0.02270  1.0000 0.4796439363
C   C54       1.0  0.50360  0.46580  0.97730  1.0000 0.4796439363
C   C55       1.0  0.00360  0.03420  0.97730  1.0000 0.4796439363
C   C56       1.0  0.49640  0.53420  0.02270  1.0000 0.4796439363
N   N1        1.0  0.05870  0.79209  0.05730  1.0000 -0.1965882563
N   N2        1.0  0.44130  0.29209  0.94270  1.0000 -0.1965882563
N   N3        1.0  0.94130  0.20791  0.94270  1.0000 -0.1965882563
N   N4        1.0  0.55870  0.70791  0.05730  1.0000 -0.1965882563
N   N5        1.0  0.00460  0.88300  0.36400  1.0000 -0.1965882563
N   N6        1.0  0.49540  0.38300  0.63600  1.0000 -0.1965882563
N   N7        1.0  0.99540  0.11700  0.63600  1.0000 -0.1965882563
N   N8        1.0  0.50460  0.61700  0.36400  1.0000 -0.1965882563
O   O1        1.0  0.05190  0.57543  0.96380  1.0000 -0.6668949621
O   O2        1.0  0.44810  0.07543  0.03620  1.0000 -0.6668949621
O   O3        1.0  0.94810  0.42457  0.03620  1.0000 -0.6668949621
O   O4        1.0  0.55190  0.92457  0.96380  1.0000 -0.6668949621
O   O5        1.0  0.94520  0.61256  0.11210  1.0000 -0.603563887
O   O6        1.0  0.55480  0.11256  0.88790  1.0000 -0.603563887
O   O7        1.0  0.05480  0.38744  0.88790  1.0000 -0.603563887
O   O8        1.0  0.44520  0.88744  0.11210  1.0000 -0.603563887
O   O9        1.0  0.33690  0.99528  0.71460  1.0000 -0.632363473
O   O10       1.0  0.16310  0.49528  0.28540  1.0000 -0.632363473
O   O11       1.0  0.66310  0.00472  0.28540  1.0000 -0.632363473
O   O12       1.0  0.83690  0.50472  0.71460  1.0000 -0.632363473
O   O13       1.0  0.22140  0.97089  0.86860  1.0000 -0.6489914404
O   O14       1.0  0.27860  0.47089  0.13140  1.0000 -0.6489914404
O   O15       1.0  0.77860  0.02911  0.13140  1.0000 -0.6489914404
O   O16       1.0  0.72140  0.52911  0.86860  1.0000 -0.6489914404
O   O17       1.0  0.05130  0.43357  0.61620  1.0000 -0.5800210508
O   O18       1.0  0.44870  0.93357  0.38380  1.0000 -0.5800210508
O   O19       1.0  0.94870  0.56643  0.38380  1.0000 -0.5800210508
O   O20       1.0  0.55130  0.06643  0.61620  1.0000 -0.5800210508
O   O21       1.0  0.90810  0.44339  0.35660  1.0000 -0.603563887
O   O22       1.0  0.59190  0.94339  0.64340  1.0000 -0.603563887
O   O23       1.0  0.09190  0.55661  0.64340  1.0000 -0.603563887
O   O24       1.0  0.40810  0.05661  0.35660  1.0000 -0.603563887
O   O25       1.0  0.12890  0.94171  0.11780  1.0000 -0.5800210508
O   O26       1.0  0.37110  0.44171  0.88220  1.0000 -0.5800210508
O   O27       1.0  0.87110  0.05829  0.88220  1.0000 -0.5800210508
O   O28       1.0  0.62890  0.55829  0.11780  1.0000 -0.5800210508
O   O29       1.0  0.86310  0.93898  0.96140  1.0000 -0.5633049952
O   O30       1.0  0.63690  0.43898  0.03860  1.0000 -0.5633049952
O   O31       1.0  0.13690  0.06102  0.03860  1.0000 -0.5633049952
O   O32       1.0  0.36310  0.56102  0.96140  1.0000 -0.5633049952
