# DDEC6 charges by PACMAN v1.1 (https://github.com/mtap-research/PACMAN-charge/)
data_2008[Cu][pcu]3[FSR]2
_chemical_formula_sum              "Cu2 H24 C24 N36"
_cell_length_a       13.3673
_cell_length_b       13.3673
_cell_length_c       13.3673
_cell_angle_alpha    48.4554
_cell_angle_beta     48.4554
_cell_angle_gamma    48.4554

_symmetry_space_group_name_H-M    "P 1"
_symmetry_Int_Tables_number       1

loop_
  _symmetry_equiv_pos_as_xyz
  'x, y, z'

loop_
  _atom_site_type_symbol
  _atom_site_label
  _atom_site_symmetry_multiplicity
  _atom_site_fract_x
  _atom_site_fract_y
  _atom_site_fract_z
  _atom_site_occupancy
  _atom_site_charge
Cu  Cu1       1.0  0.00000  0.00000  0.00000  1.0000 0.4176793416
Cu  Cu2       1.0  0.50000  0.50000  0.50000  1.0000 0.4176793416
H   H1        1.0  0.72210  0.12040  0.24660  1.0000 0.1251167675
H   H2        1.0  0.12040  0.24660  0.72210  1.0000 0.1251167675
H   H3        1.0  0.24660  0.72210  0.12040  1.0000 0.1251167675
H   H4        1.0  0.77790  0.25340  0.37960  1.0000 0.1251167675
H   H5        1.0  0.37960  0.77790  0.25340  1.0000 0.1251167675
H   H6        1.0  0.25340  0.37960  0.77790  1.0000 0.1251167675
H   H7        1.0  0.27790  0.87960  0.75340  1.0000 0.1251167675
H   H8        1.0  0.87960  0.75340  0.27790  1.0000 0.1251167675
H   H9        1.0  0.75340  0.27790  0.87960  1.0000 0.1251167675
H   H10       1.0  0.22210  0.74660  0.62040  1.0000 0.1251167675
H   H11       1.0  0.62040  0.22210  0.74660  1.0000 0.1251167675
H   H12       1.0  0.74660  0.62040  0.22210  1.0000 0.1251167675
H   H13       1.0  0.96610  0.88660  0.45720  1.0000 0.1154933244
H   H14       1.0  0.88660  0.45720  0.96610  1.0000 0.1154933244
H   H15       1.0  0.45720  0.96610  0.88660  1.0000 0.1154933244
H   H16       1.0  0.53390  0.04280  0.61340  1.0000 0.1154933244
H   H17       1.0  0.61340  0.53390  0.04280  1.0000 0.1154933244
H   H18       1.0  0.04280  0.61340  0.53390  1.0000 0.1154933244
H   H19       1.0  0.03390  0.11340  0.54280  1.0000 0.1154933244
H   H20       1.0  0.11340  0.54280  0.03390  1.0000 0.1154933244
H   H21       1.0  0.54280  0.03390  0.11340  1.0000 0.1154933244
H   H22       1.0  0.46610  0.95720  0.38660  1.0000 0.1154933244
H   H23       1.0  0.38660  0.46610  0.95720  1.0000 0.1154933244
H   H24       1.0  0.95720  0.38660  0.46610  1.0000 0.1154933244
C   C1        1.0  0.79954  0.05274  0.27564  1.0000 0.0400405447
C   C2        1.0  0.05274  0.27564  0.79954  1.0000 0.0400405447
C   C3        1.0  0.27564  0.79954  0.05274  1.0000 0.0400405447
C   C4        1.0  0.70046  0.22436  0.44726  1.0000 0.0400405447
C   C5        1.0  0.44726  0.70046  0.22436  1.0000 0.0400405447
C   C6        1.0  0.22436  0.44726  0.70046  1.0000 0.0400405447
C   C7        1.0  0.20046  0.94726  0.72436  1.0000 0.0400405447
C   C8        1.0  0.94726  0.72436  0.20046  1.0000 0.0400405447
C   C9        1.0  0.72436  0.20046  0.94726  1.0000 0.0400405447
C   C10       1.0  0.29954  0.77564  0.55274  1.0000 0.0400405447
C   C11       1.0  0.55274  0.29954  0.77564  1.0000 0.0400405447
C   C12       1.0  0.77564  0.55274  0.29954  1.0000 0.0400405447
C   C13       1.0  0.93357  0.92407  0.39067  1.0000 0.005672874
C   C14       1.0  0.92407  0.39067  0.93357  1.0000 0.005672874
C   C15       1.0  0.39067  0.93357  0.92407  1.0000 0.005672874
C   C16       1.0  0.56643  0.10933  0.57593  1.0000 0.005672874
C   C17       1.0  0.57593  0.56643  0.10933  1.0000 0.0044362006
C   C18       1.0  0.10933  0.57593  0.56643  1.0000 0.005672874
C   C19       1.0  0.06643  0.07593  0.60933  1.0000 0.005672874
C   C20       1.0  0.07593  0.60933  0.06643  1.0000 0.005672874
C   C21       1.0  0.60933  0.06643  0.07593  1.0000 0.005672874
C   C22       1.0  0.43357  0.89067  0.42407  1.0000 0.0044362006
C   C23       1.0  0.42407  0.43357  0.89067  1.0000 0.005672874
C   C24       1.0  0.89067  0.42407  0.43357  1.0000 0.005672874
N   N1        1.0  0.80254  0.02974  0.38834  1.0000 0.0520811846
N   N2        1.0  0.02974  0.38834  0.80254  1.0000 0.0520811846
N   N3        1.0  0.38834  0.80254  0.02974  1.0000 0.0520811846
N   N4        1.0  0.69746  0.11166  0.47026  1.0000 0.0520811846
N   N5        1.0  0.47026  0.69746  0.11166  1.0000 0.0520811846
N   N6        1.0  0.11166  0.47026  0.69746  1.0000 0.0520811846
N   N7        1.0  0.19746  0.97026  0.61166  1.0000 0.0520811846
N   N8        1.0  0.97026  0.61166  0.19746  1.0000 0.0520811846
N   N9        1.0  0.61166  0.19746  0.97026  1.0000 0.0520811846
N   N10       1.0  0.30254  0.88834  0.52974  1.0000 0.0520811846
N   N11       1.0  0.52974  0.30254  0.88834  1.0000 0.0520811846
N   N12       1.0  0.88834  0.52974  0.30254  1.0000 0.0520811846
N   N13       1.0  0.92150  0.96560  0.21460  1.0000 -0.1808216453
N   N14       1.0  0.96560  0.21460  0.92150  1.0000 -0.1808216453
N   N15       1.0  0.21460  0.92150  0.96560  1.0000 -0.1808216453
N   N16       1.0  0.57850  0.28540  0.53440  1.0000 -0.1808216453
N   N17       1.0  0.53440  0.57850  0.28540  1.0000 -0.1808216453
N   N18       1.0  0.28540  0.53440  0.57850  1.0000 -0.1808216453
N   N19       1.0  0.07850  0.03440  0.78540  1.0000 -0.1808216453
N   N20       1.0  0.03440  0.78540  0.07850  1.0000 -0.1808216453
N   N21       1.0  0.78540  0.07850  0.03440  1.0000 -0.1808216453
N   N22       1.0  0.42150  0.71460  0.46560  1.0000 -0.1808216453
N   N23       1.0  0.46560  0.42150  0.71460  1.0000 -0.1808216453
N   N24       1.0  0.71460  0.46560  0.42150  1.0000 -0.1808216453
N   N25       1.0  0.00810  0.88150  0.28860  1.0000 -0.2269901613
N   N26       1.0  0.88150  0.28860  0.00810  1.0000 -0.2269901613
N   N27       1.0  0.28860  0.00810  0.88150  1.0000 -0.2269901613
N   N28       1.0  0.49190  0.21140  0.61850  1.0000 -0.2269901613
N   N29       1.0  0.61850  0.49190  0.21140  1.0000 -0.2269901613
N   N30       1.0  0.21140  0.61850  0.49190  1.0000 -0.2269901613
N   N31       1.0  0.99190  0.11850  0.71140  1.0000 -0.2269901613
N   N32       1.0  0.11850  0.71140  0.99190  1.0000 -0.2269901613
N   N33       1.0  0.71140  0.99190  0.11850  1.0000 -0.2269901613
N   N34       1.0  0.50810  0.78860  0.38150  1.0000 -0.2269901613
N   N35       1.0  0.38150  0.50810  0.78860  1.0000 -0.2269901613
N   N36       1.0  0.78860  0.38150  0.50810  1.0000 -0.2269901613
