# DDEC6 charges by PACMAN v1.1 (https://github.com/mtap-research/PACMAN-charge/)
data_2008[Co][dia]3[FSR]1
_chemical_formula_sum              "Co12 H24 C24 O48"
_cell_length_a       11.3612
_cell_length_b       9.9603
_cell_length_c       18.4162
_cell_angle_alpha    90
_cell_angle_beta     126.548
_cell_angle_gamma    90

_symmetry_space_group_name_H-M    "P 1"
_symmetry_Int_Tables_number       1

loop_
  _symmetry_equiv_pos_as_xyz
  'x, y, z'

loop_
  _atom_site_type_symbol
  _atom_site_label
  _atom_site_symmetry_multiplicity
  _atom_site_fract_x
  _atom_site_fract_y
  _atom_site_fract_z
  _atom_site_occupancy
  _atom_site_charge
Co  Co1       1.0  0.12254  0.07285  0.86634  1.0000 0.9607741011
Co  Co2       1.0  0.87746  0.57285  0.63366  1.0000 0.9607741011
Co  Co3       1.0  0.87746  0.92715  0.13366  1.0000 0.9607741011
Co  Co4       1.0  0.12254  0.42715  0.36634  1.0000 0.9607741011
Co  Co5       1.0  0.93542  0.87871  0.69485  1.0000 0.9434928221
Co  Co6       1.0  0.06458  0.37871  0.80515  1.0000 0.9434928221
Co  Co7       1.0  0.06458  0.12129  0.30515  1.0000 0.9434928221
Co  Co8       1.0  0.93542  0.62129  0.19485  1.0000 0.9434928221
Co  Co9       1.0  0.50000  0.00000  0.00000  1.0000 0.9969483537
Co  Co10      1.0  0.50000  0.50000  0.50000  1.0000 0.9969483537
Co  Co11      1.0  0.00000  0.00000  0.00000  1.0000 0.9863920731
Co  Co12      1.0  0.00000  0.50000  0.50000  1.0000 0.9863920731
H   H1        1.0  0.98200  0.22760  0.63130  1.0000 0.1080199298
H   H2        1.0  0.01800  0.72760  0.86870  1.0000 0.1080199298
H   H3        1.0  0.01800  0.77240  0.36870  1.0000 0.1080199298
H   H4        1.0  0.98200  0.27240  0.13130  1.0000 0.1080199298
H   H5        1.0  0.25570  0.79560  0.77870  1.0000 0.1080199298
H   H6        1.0  0.74430  0.29560  0.72130  1.0000 0.1080199298
H   H7        1.0  0.74430  0.20440  0.22130  1.0000 0.1080199298
H   H8        1.0  0.25570  0.70440  0.27870  1.0000 0.1080199298
H   H9        1.0  0.72330  0.94370  0.74330  1.0000 0.0993760946
H   H10       1.0  0.27670  0.44370  0.75670  1.0000 0.0993760946
H   H11       1.0  0.27670  0.05630  0.25670  1.0000 0.0993760946
H   H12       1.0  0.72330  0.55630  0.24330  1.0000 0.0993760946
H   H13       1.0  0.00700  0.37510  0.94960  1.0000 0.0993760946
H   H14       1.0  0.99300  0.87510  0.55040  1.0000 0.0993760946
H   H15       1.0  0.99300  0.62490  0.05040  1.0000 0.0993760946
H   H16       1.0  0.00700  0.12490  0.44960  1.0000 0.0993760946
H   H17       1.0  0.52880  0.78890  0.52560  1.0000 0.1080199298
H   H18       1.0  0.47120  0.28890  0.97440  1.0000 0.1080199298
H   H19       1.0  0.47120  0.21110  0.47440  1.0000 0.1080199298
H   H20       1.0  0.52880  0.71110  0.02560  1.0000 0.1080199298
H   H21       1.0  0.26850  0.84520  0.07120  1.0000 0.0993760946
H   H22       1.0  0.73150  0.34520  0.42880  1.0000 0.0993760946
H   H23       1.0  0.73150  0.15480  0.92880  1.0000 0.0993760946
H   H24       1.0  0.26850  0.65480  0.57120  1.0000 0.0993760946
C   C1        1.0  0.99250  0.15940  0.66930  1.0000 0.4798321826
C   C2        1.0  0.00750  0.65940  0.83070  1.0000 0.4798321826
C   C3        1.0  0.00750  0.84060  0.33070  1.0000 0.4798321826
C   C4        1.0  0.99250  0.34060  0.16930  1.0000 0.4798321826
C   C5        1.0  0.27130  0.85840  0.82100  1.0000 0.4717843158
C   C6        1.0  0.72870  0.35840  0.67900  1.0000 0.4717843158
C   C7        1.0  0.72870  0.14160  0.17900  1.0000 0.4717843158
C   C8        1.0  0.27130  0.64160  0.32100  1.0000 0.4717843158
C   C9        1.0  0.81370  0.97130  0.79440  1.0000 0.4717843158
C   C10       1.0  0.18630  0.47130  0.70560  1.0000 0.4717843158
C   C11       1.0  0.18630  0.02870  0.20560  1.0000 0.4717843158
C   C12       1.0  0.81370  0.52870  0.29440  1.0000 0.4717843158
C   C13       1.0  0.01960  0.28410  0.94480  1.0000 0.4798321826
C   C14       1.0  0.98040  0.78410  0.55520  1.0000 0.4717843158
C   C15       1.0  0.98040  0.71590  0.05520  1.0000 0.4717843158
C   C16       1.0  0.01960  0.21590  0.44480  1.0000 0.4717843158
C   C17       1.0  0.62870  0.77070  0.56280  1.0000 0.4940984888
C   C18       1.0  0.37130  0.27070  0.93720  1.0000 0.4940984888
C   C19       1.0  0.37130  0.22930  0.43720  1.0000 0.4940984888
C   C20       1.0  0.62870  0.72930  0.06280  1.0000 0.4940984888
C   C21       1.0  0.27450  0.89960  0.03250  1.0000 0.4952692909
C   C22       1.0  0.72550  0.39960  0.46750  1.0000 0.4952692909
C   C23       1.0  0.72550  0.10040  0.96750  1.0000 0.4952692909
C   C24       1.0  0.27450  0.60040  0.53250  1.0000 0.4940984888
O   O1        1.0  0.05749  0.18960  0.75209  1.0000 -0.569582876
O   O2        1.0  0.94251  0.68960  0.74791  1.0000 -0.569582876
O   O3        1.0  0.94251  0.81040  0.24791  1.0000 -0.569582876
O   O4        1.0  0.05749  0.31040  0.25209  1.0000 -0.569582876
O   O5        1.0  0.94170  0.04810  0.63430  1.0000 -0.4980344551
O   O6        1.0  0.05830  0.54810  0.86570  1.0000 -0.4980344551
O   O7        1.0  0.05830  0.95190  0.36570  1.0000 -0.4980344551
O   O8        1.0  0.94170  0.45190  0.13430  1.0000 -0.4980344551
O   O9        1.0  0.15829  0.91060  0.80759  1.0000 -0.5632474127
O   O10       1.0  0.84171  0.41060  0.69241  1.0000 -0.5632474127
O   O11       1.0  0.84171  0.08940  0.19241  1.0000 -0.5632474127
O   O12       1.0  0.15829  0.58940  0.30759  1.0000 -0.5632474127
O   O13       1.0  0.39960  0.88190  0.88420  1.0000 -0.4928776376
O   O14       1.0  0.60040  0.38190  0.61580  1.0000 -0.4928776376
O   O15       1.0  0.60040  0.11810  0.11580  1.0000 -0.4928776376
O   O16       1.0  0.39960  0.61810  0.38420  1.0000 -0.4928776376
O   O17       1.0  0.91648  0.98300  0.78618  1.0000 -0.569582876
O   O18       1.0  0.08352  0.48300  0.71382  1.0000 -0.569582876
O   O19       1.0  0.08352  0.01700  0.21382  1.0000 -0.569582876
O   O20       1.0  0.91648  0.51700  0.28618  1.0000 -0.569582876
O   O21       1.0  0.82110  0.99240  0.86250  1.0000 -0.4928776376
O   O22       1.0  0.17890  0.49240  0.63750  1.0000 -0.4928776376
O   O23       1.0  0.17890  0.00760  0.13750  1.0000 -0.4928776376
O   O24       1.0  0.82110  0.50760  0.36250  1.0000 -0.4928776376
O   O25       1.0  0.04334  0.25060  0.88794  1.0000 -0.569582876
O   O26       1.0  0.95666  0.75060  0.61206  1.0000 -0.569582876
O   O27       1.0  0.95666  0.74940  0.11206  1.0000 -0.569582876
O   O28       1.0  0.04334  0.24940  0.38794  1.0000 -0.569582876
O   O29       1.0  0.01160  0.20640  0.99450  1.0000 -0.5152556973
O   O30       1.0  0.98840  0.70640  0.50550  1.0000 -0.5101838933
O   O31       1.0  0.98840  0.79360  0.00550  1.0000 -0.5101838933
O   O32       1.0  0.01160  0.29360  0.49450  1.0000 -0.5152556973
O   O33       1.0  0.71037  0.86660  0.60347  1.0000 -0.4928776376
O   O34       1.0  0.28963  0.36660  0.89653  1.0000 -0.4928776376
O   O35       1.0  0.28963  0.13340  0.39653  1.0000 -0.4928776376
O   O36       1.0  0.71037  0.63340  0.10347  1.0000 -0.4928776376
O   O37       1.0  0.66613  0.64850  0.56593  1.0000 -0.5632474127
O   O38       1.0  0.33387  0.14850  0.93407  1.0000 -0.5632474127
O   O39       1.0  0.33387  0.35150  0.43407  1.0000 -0.5632474127
O   O40       1.0  0.66613  0.85150  0.06593  1.0000 -0.5632474127
O   O41       1.0  0.16255  0.97330  0.97705  1.0000 -0.569582876
O   O42       1.0  0.83745  0.47330  0.52295  1.0000 -0.569582876
O   O43       1.0  0.83745  0.02670  0.02295  1.0000 -0.569582876
O   O44       1.0  0.16255  0.52670  0.47705  1.0000 -0.569582876
O   O45       1.0  0.38810  0.89430  0.03900  1.0000 -0.5101838933
O   O46       1.0  0.61190  0.39430  0.46100  1.0000 -0.5101838933
O   O47       1.0  0.61190  0.10570  0.96100  1.0000 -0.5101838933
O   O48       1.0  0.38810  0.60570  0.53900  1.0000 -0.5101838933
