# DDEC6 charges by PACMAN v1.1 (https://github.com/mtap-research/PACMAN-charge/)
data_2008[Bi][dia]3[FSR]1
_chemical_formula_sum              "Bi2 C8 O16"
_cell_length_a       9.47326
_cell_length_b       9.47326
_cell_length_c       9.47326
_cell_angle_alpha    103.708
_cell_angle_beta     103.708
_cell_angle_gamma    121.738

_symmetry_space_group_name_H-M    "P 1"
_symmetry_Int_Tables_number       1

loop_
  _symmetry_equiv_pos_as_xyz
  'x, y, z'

loop_
  _atom_site_type_symbol
  _atom_site_label
  _atom_site_symmetry_multiplicity
  _atom_site_fract_x
  _atom_site_fract_y
  _atom_site_fract_z
  _atom_site_occupancy
  _atom_site_charge
Bi  Bi1       1.0  0.25000  0.75000  0.50000  1.0000 1.6236340656
Bi  Bi2       1.0  0.00000  0.00000  0.00000  1.0000 1.6370362892
C   C1        1.0  0.04730  0.32180  0.27450  1.0000 0.5216289266
C   C2        1.0  0.02280  0.79730  0.22550  1.0000 0.5216289266
C   C3        1.0  0.57180  0.79730  0.77450  1.0000 0.5216289266
C   C4        1.0  0.22720  0.95270  0.27450  1.0000 0.5216289266
C   C5        1.0  0.04730  0.77280  0.72550  1.0000 0.5216289266
C   C6        1.0  0.20270  0.42820  0.22550  1.0000 0.5216289266
C   C7        1.0  0.20270  0.97720  0.77450  1.0000 0.5216289266
C   C8        1.0  0.67820  0.95270  0.72550  1.0000 0.5216289266
O   O1        1.0  0.03320  0.41320  0.38000  1.0000 -0.43376368
O   O2        1.0  0.90320  0.78320  0.12000  1.0000 -0.43376368
O   O3        1.0  0.66320  0.78320  0.88000  1.0000 -0.43376368
O   O4        1.0  0.34680  0.96680  0.38000  1.0000 -0.43376368
O   O5        1.0  0.03320  0.65320  0.62000  1.0000 -0.43376368
O   O6        1.0  0.21680  0.33680  0.12000  1.0000 -0.43376368
O   O7        1.0  0.21680  0.09680  0.88000  1.0000 -0.43376368
O   O8        1.0  0.58680  0.96680  0.62000  1.0000 -0.43376368
O   O9        1.0  0.94630  0.14860  0.20230  1.0000 -0.4954490409
O   O10       1.0  0.99400  0.69630  0.29770  1.0000 -0.4954490409
O   O11       1.0  0.39860  0.69630  0.70230  1.0000 -0.4954490409
O   O12       1.0  0.25600  0.05370  0.20230  1.0000 -0.4954490409
O   O13       1.0  0.94630  0.74400  0.79770  1.0000 -0.4954490409
O   O14       1.0  0.30370  0.60140  0.29770  1.0000 -0.4954490409
O   O15       1.0  0.30370  0.00600  0.70230  1.0000 -0.4954490409
O   O16       1.0  0.85140  0.05370  0.79770  1.0000 -0.4954490409
