# DDEC6 charges by PACMAN v1.1 (https://github.com/mtap-research/PACMAN-charge/)
data_2008[Fe][bpq]3[FSR]1
_chemical_formula_sum              "Fe8 H40 C64 O40"
_cell_length_a       11.34
_cell_length_b       13.798
_cell_length_c       19.22
_cell_angle_alpha    110.82
_cell_angle_beta     90
_cell_angle_gamma    90

_symmetry_space_group_name_H-M    "P 1"
_symmetry_Int_Tables_number       1

loop_
  _symmetry_equiv_pos_as_xyz
  'x, y, z'

loop_
  _atom_site_type_symbol
  _atom_site_label
  _atom_site_symmetry_multiplicity
  _atom_site_fract_x
  _atom_site_fract_y
  _atom_site_fract_z
  _atom_site_occupancy
  _atom_site_charge
Fe  Fe1       1.0  0.00081  0.00202  0.00134  1.0000 1.2994100166
Fe  Fe2       1.0  0.50766  0.99870  0.49949  1.0000 1.3427026582
Fe  Fe3       1.0  0.99863  0.25134  0.99987  1.0000 1.3486691427
Fe  Fe4       1.0  0.50448  0.24967  0.49910  1.0000 1.3626740289
Fe  Fe5       1.0  0.00319  0.50080  0.99908  1.0000 1.3702307057
Fe  Fe6       1.0  0.49132  0.49771  0.50016  1.0000 1.3702307057
Fe  Fe7       1.0  0.00071  0.75151  0.00012  1.0000 1.3486691427
Fe  Fe8       1.0  0.49841  0.74862  0.50000  1.0000 1.3767197442
H   H1        1.0  0.32920  0.17727  0.29903  1.0000 0.1173697383
H   H2        1.0  0.23102  0.11606  0.17527  1.0000 0.1173697383
H   H3        1.0  0.67239  0.12880  0.50844  1.0000 0.4188127381
H   H4        1.0  0.77641  0.18838  0.82216  1.0000 0.1139708621
H   H5        1.0  0.68076  0.12427  0.69741  1.0000 0.1173697383
H   H6        1.0  0.30494  0.06348  0.68714  1.0000 0.1173697383
H   H7        1.0  0.19878  0.12545  0.80873  1.0000 0.1173697383
H   H8        1.0  0.82311  0.07492  0.20195  1.0000 0.1173697383
H   H9        1.0  0.72468  0.13747  0.32562  1.0000 0.1173697383
H   H10       1.0  0.15887  0.12641  0.01354  1.0000 0.4110295114
H   H11       1.0  0.67275  0.32385  0.70260  1.0000 0.1173697383
H   H12       1.0  0.77310  0.38625  0.82592  1.0000 0.1139708621
H   H13       1.0  0.33704  0.35208  0.46898  1.0000 0.4188127381
H   H14       1.0  0.18075  0.32287  0.18999  1.0000 0.1173697383
H   H15       1.0  0.27897  0.38532  0.31389  1.0000 0.1173697383
H   H16       1.0  0.72225  0.44321  0.32330  1.0000 0.1173697383
H   H17       1.0  0.82052  0.38078  0.19916  1.0000 0.1173697383
H   H18       1.0  0.19450  0.43045  0.80430  1.0000 0.1173697383
H   H19       1.0  0.29976  0.36843  0.68233  1.0000 0.1173697383
H   H20       1.0  0.38243  0.66030  0.27905  1.0000 0.1173697383
H   H21       1.0  0.28128  0.59893  0.15615  1.0000 0.1139708621
H   H22       1.0  0.65799  0.63151  0.52162  1.0000 0.4188127381
H   H23       1.0  0.77590  0.69192  0.82267  1.0000 0.1139708621
H   H24       1.0  0.67422  0.62978  0.69973  1.0000 0.1173697383
H   H25       1.0  0.26675  0.56071  0.67401  1.0000 0.1173697383
H   H26       1.0  0.17151  0.62384  0.79903  1.0000 0.1173697383
H   H27       1.0  0.82031  0.56771  0.19730  1.0000 0.1173697383
H   H28       1.0  0.72110  0.62838  0.32125  1.0000 0.1173697383
H   H29       1.0  0.16085  0.64417  0.03271  1.0000 0.4110295114
H   H30       1.0  0.67550  0.81970  0.70284  1.0000 0.1173697383
H   H31       1.0  0.77266  0.88356  0.82715  1.0000 0.1139708621
H   H32       1.0  0.34144  0.86631  0.47501  1.0000 0.4188127381
H   H33       1.0  0.22232  0.81008  0.17816  1.0000 0.1173697383
H   H34       1.0  0.32168  0.87114  0.30168  1.0000 0.1173697383
H   H35       1.0  0.70875  0.93376  0.31787  1.0000 0.1173697383
H   H36       1.0  0.80756  0.87307  0.19386  1.0000 0.1173697383
H   H37       1.0  0.16617  0.92913  0.79512  1.0000 0.1173697383
H   H38       1.0  0.26153  0.86601  0.67024  1.0000 0.1173697383
H   H39       1.0  0.83217  0.35652  0.97155  1.0000 0.4110295114
H   H40       1.0  0.83902  0.86427  0.97502  1.0000 0.4110295114
C   C1        1.0  0.33070  0.02786  0.30748  1.0000 -0.0319521055
C   C2        1.0  0.30673  0.09724  0.27162  1.0000 -0.091883078
C   C3        1.0  0.25213  0.06328  0.20303  1.0000 -0.091883078
C   C4        1.0  0.38754  0.06530  0.38159  1.0000 0.6156858516
C   C5        1.0  0.77993  0.03976  0.83162  1.0000 -0.0361688814
C   C6        1.0  0.75362  0.10828  0.79539  1.0000 -0.091883078
C   C7        1.0  0.70097  0.07269  0.72631  1.0000 -0.091883078
C   C8        1.0  0.84335  0.07752  0.90336  1.0000 0.6156858516
C   C9        1.0  0.30642  0.21210  0.67767  1.0000 -0.0319521055
C   C10       1.0  0.28004  0.14313  0.71350  1.0000 -0.091883078
C   C11       1.0  0.22169  0.17744  0.78068  1.0000 -0.091883078
C   C12       1.0  0.36529  0.17380  0.60450  1.0000 0.61135534
C   C13       1.0  0.82719  0.22421  0.19366  1.0000 -0.0319521055
C   C14       1.0  0.80134  0.15510  0.22944  1.0000 -0.091883078
C   C15       1.0  0.74748  0.18972  0.29800  1.0000 -0.091883078
C   C16       1.0  0.88446  0.18628  0.11979  1.0000 0.61135534
C   C17       1.0  0.66890  0.47303  0.69401  1.0000 -0.0319521055
C   C18       1.0  0.69534  0.40393  0.72972  1.0000 -0.091883078
C   C19       1.0  0.75057  0.43850  0.79800  1.0000 -0.091883078
C   C20       1.0  0.61141  0.43489  0.62021  1.0000 0.61135534
C   C21       1.0  0.22528  0.45752  0.16648  1.0000 -0.0319521055
C   C22       1.0  0.22631  0.39558  0.20981  1.0000 -0.091883078
C   C23       1.0  0.28153  0.42970  0.27809  1.0000 -0.091883078
C   C24       1.0  0.15755  0.42363  0.09649  1.0000 0.61135534
C   C25       1.0  0.71916  0.29393  0.33158  1.0000 -0.0319521055
C   C26       1.0  0.74552  0.36332  0.29615  1.0000 -0.091883078
C   C27       1.0  0.79945  0.32865  0.22744  1.0000 -0.091883078
C   C28       1.0  0.65699  0.33020  0.40372  1.0000 0.61135534
C   C29       1.0  0.19057  0.28136  0.81283  1.0000 -0.0319521055
C   C30       1.0  0.21893  0.35071  0.77776  1.0000 -0.091883078
C   C31       1.0  0.27694  0.31639  0.71039  1.0000 -0.091883078
C   C32       1.0  0.12438  0.31756  0.88357  1.0000 0.61135534
C   C33       1.0  0.33671  0.52598  0.30311  1.0000 -0.0319521055
C   C34       1.0  0.33873  0.58666  0.25885  1.0000 -0.091883078
C   C35       1.0  0.28285  0.55270  0.19072  1.0000 -0.091883078
C   C36       1.0  0.38951  0.56497  0.37807  1.0000 0.61135534
C   C37       1.0  0.77997  0.54275  0.83111  1.0000 -0.0319521055
C   C38       1.0  0.75229  0.61204  0.79583  1.0000 -0.091883078
C   C39       1.0  0.69656  0.57752  0.72769  1.0000 -0.091883078
C   C40       1.0  0.84545  0.57900  0.90210  1.0000 0.61135534
C   C41       1.0  0.26922  0.70956  0.66507  1.0000 -0.0319521055
C   C42       1.0  0.24329  0.64062  0.70102  1.0000 -0.091883078
C   C43       1.0  0.19116  0.67571  0.77028  1.0000 -0.0955736104
C   C44       1.0  0.33373  0.67212  0.59364  1.0000 0.61135534
C   C45       1.0  0.81973  0.71709  0.18902  1.0000 -0.0319521055
C   C46       1.0  0.79551  0.64722  0.22441  1.0000 -0.0955736104
C   C47       1.0  0.74126  0.68087  0.29310  1.0000 -0.091883078
C   C48       1.0  0.88219  0.68197  0.11690  1.0000 0.61135534
C   C49       1.0  0.67350  0.96809  0.69293  1.0000 -0.0319521055
C   C50       1.0  0.69790  0.89987  0.72969  1.0000 -0.091883078
C   C51       1.0  0.75119  0.93534  0.79864  1.0000 -0.091883078
C   C52       1.0  0.61873  0.92963  0.61832  1.0000 0.61135534
C   C53       1.0  0.22150  0.95938  0.16955  1.0000 -0.0319521055
C   C54       1.0  0.24693  0.88974  0.20501  1.0000 -0.091883078
C   C55       1.0  0.30148  0.92372  0.27359  1.0000 -0.091883078
C   C56       1.0  0.15717  0.92352  0.09804  1.0000 0.61135534
C   C57       1.0  0.71154  0.78487  0.32685  1.0000 -0.0361688814
C   C58       1.0  0.73403  0.85437  0.29087  1.0000 -0.091883078
C   C59       1.0  0.78814  0.82073  0.22227  1.0000 -0.091883078
C   C60       1.0  0.65429  0.82288  0.40055  1.0000 0.61135534
C   C61       1.0  0.16440  0.78031  0.80437  1.0000 -0.0319521055
C   C62       1.0  0.18790  0.84891  0.76778  1.0000 -0.0955736104
C   C63       1.0  0.24016  0.81383  0.69845  1.0000 -0.091883078
C   C64       1.0  0.11229  0.81852  0.87982  1.0000 0.61135534
O   O1        1.0  0.41371  0.16016  0.40819  1.0000 -0.5479230017
O   O2        1.0  0.40452  0.49983  0.40942  1.0000 -0.5479230017
O   O3        1.0  0.87023  0.17238  0.92883  1.0000 -0.5415454694
O   O4        1.0  0.87312  0.51157  0.92945  1.0000 -0.5415454694
O   O5        1.0  0.39135  0.07908  0.57883  1.0000 -0.5415454694
O   O6        1.0  0.38003  0.23784  0.57205  1.0000 -0.5479230017
O   O7        1.0  0.90998  0.09130  0.09316  1.0000 -0.5415454694
O   O8        1.0  0.90289  0.25215  0.08943  1.0000 -0.5415454694
O   O9        1.0  0.59734  0.33828  0.59039  1.0000 -0.5415454694
O   O10       1.0  0.60889  0.99348  0.58541  1.0000 -0.5415454694
O   O11       1.0  0.12601  0.33002  0.07110  1.0000 -0.5415454694
O   O12       1.0  0.13256  0.99031  0.06941  1.0000 -0.5415454694
O   O13       1.0  0.62684  0.42393  0.43017  1.0000 -0.5479230017
O   O14       1.0  0.63928  0.26359  0.43391  1.0000 -0.5479230017
O   O15       1.0  0.09787  0.41237  0.90938  1.0000 -0.5479230017
O   O16       1.0  0.09869  0.25047  0.91147  1.0000 -0.5479230017
O   O17       1.0  0.41494  0.36703  0.49120  1.0000 -0.8512159077
O   O18       1.0  0.07540  0.12612  0.00621  1.0000 -0.7991875696
O   O19       1.0  0.58852  0.12695  0.50442  1.0000 -0.8512159077
O   O20       1.0  0.41383  0.66027  0.40491  1.0000 -0.5479230017
O   O21       1.0  0.86996  0.67420  0.92935  1.0000 -0.5415454694
O   O22       1.0  0.35983  0.57727  0.56814  1.0000 -0.5415454694
O   O23       1.0  0.35897  0.73774  0.56401  1.0000 -0.5479230017
O   O24       1.0  0.90911  0.58741  0.08982  1.0000 -0.5415454694
O   O25       1.0  0.90409  0.74973  0.08877  1.0000 -0.5415454694
O   O26       1.0  0.58680  0.83598  0.59333  1.0000 -0.5479230017
O   O27       1.0  0.58139  0.50183  0.59300  1.0000 -0.5479230017
O   O28       1.0  0.13076  0.82866  0.07110  1.0000 -0.5415454694
O   O29       1.0  0.13459  0.49105  0.06813  1.0000 -0.5479230017
O   O30       1.0  0.63109  0.91844  0.42675  1.0000 -0.5415454694
O   O31       1.0  0.63371  0.75843  0.43182  1.0000 -0.5479230017
O   O32       1.0  0.09123  0.91427  0.90830  1.0000 -0.5415454694
O   O33       1.0  0.09439  0.75231  0.90998  1.0000 -0.5415454694
O   O34       1.0  0.42119  0.87145  0.49180  1.0000 -0.8512159077
O   O35       1.0  0.08340  0.63311  0.01277  1.0000 -0.8574272382
O   O36       1.0  0.57597  0.62744  0.50996  1.0000 -0.8574272382
O   O37       1.0  0.40493  0.99987  0.41253  1.0000 -0.5479230017
O   O38       1.0  0.86689  0.01222  0.93347  1.0000 -0.5415454694
O   O39       1.0  0.91179  0.36954  0.99156  1.0000 -0.8719221639
O   O40       1.0  0.91853  0.87180  0.99217  1.0000 -0.8385091114
