# DDEC6 charges by PACMAN v1.1 (https://github.com/mtap-research/PACMAN-charge/)
data_2009[Zn][nan]3[FSR]2
_chemical_formula_sum              "Zn4 H44 C78 N8 O16 F12"
_cell_length_a       13.2711
_cell_length_b       13.2711
_cell_length_c       12.605
_cell_angle_alpha    83.3681
_cell_angle_beta     96.6319
_cell_angle_gamma    94.6874

_symmetry_space_group_name_H-M    "P 1"
_symmetry_Int_Tables_number       1

loop_
  _symmetry_equiv_pos_as_xyz
  'x, y, z'

loop_
  _atom_site_type_symbol
  _atom_site_label
  _atom_site_symmetry_multiplicity
  _atom_site_fract_x
  _atom_site_fract_y
  _atom_site_fract_z
  _atom_site_occupancy
  _atom_site_charge
Zn  Zn1       1.0  0.82727  0.27303  0.17123  1.0000 0.7085740973
Zn  Zn2       1.0  0.27303  0.82727  0.32877  1.0000 0.7085740973
Zn  Zn3       1.0  0.17273  0.72697  0.82877  1.0000 0.7085740973
Zn  Zn4       1.0  0.72697  0.17273  0.67123  1.0000 0.7085740973
H   H1        1.0  0.81340  0.28940  0.40570  1.0000 0.1189417269
H   H2        1.0  0.28940  0.81340  0.09430  1.0000 0.1189417269
H   H3        1.0  0.18660  0.71060  0.59430  1.0000 0.1189417269
H   H4        1.0  0.71060  0.18660  0.90570  1.0000 0.1189417269
H   H5        1.0  0.88630  0.37650  0.54170  1.0000 0.137206452
H   H6        1.0  0.37650  0.88630  0.95830  1.0000 0.137206452
H   H7        1.0  0.11370  0.62350  0.45830  1.0000 0.137206452
H   H8        1.0  0.62350  0.11370  0.04170  1.0000 0.137206452
H   H9        1.0  0.04770  0.54470  0.33690  1.0000 0.1320948083
H   H10       1.0  0.54470  0.04770  0.16310  1.0000 0.137206452
H   H11       1.0  0.95230  0.45530  0.66310  1.0000 0.1320948083
H   H12       1.0  0.45530  0.95230  0.83690  1.0000 0.1320948083
H   H13       1.0  0.96970  0.45410  0.20450  1.0000 0.1189417269
H   H14       1.0  0.45410  0.96970  0.29550  1.0000 0.1189417269
H   H15       1.0  0.03030  0.54590  0.79550  1.0000 0.1189417269
H   H16       1.0  0.54590  0.03030  0.70450  1.0000 0.1189417269
H   H17       1.0  0.76810  0.42210  0.98210  1.0000 0.1189417269
H   H18       1.0  0.42210  0.76810  0.51790  1.0000 0.1189417269
H   H19       1.0  0.23190  0.57790  0.01790  1.0000 0.1189417269
H   H20       1.0  0.57790  0.23190  0.48210  1.0000 0.1189417269
H   H21       1.0  0.64050  0.52010  0.91470  1.0000 0.1320948083
H   H22       1.0  0.52010  0.64050  0.58530  1.0000 0.1320948083
H   H23       1.0  0.35950  0.47990  0.08530  1.0000 0.1320948083
H   H24       1.0  0.47990  0.35950  0.41470  1.0000 0.1320948083
H   H25       1.0  0.47900  0.39400  0.14800  1.0000 0.1320948083
H   H26       1.0  0.39400  0.47900  0.35200  1.0000 0.1320948083
H   H27       1.0  0.52100  0.60600  0.85200  1.0000 0.1320948083
H   H28       1.0  0.60600  0.52100  0.64800  1.0000 0.1320948083
H   H29       1.0  0.61080  0.29640  0.20940  1.0000 0.1094396489
H   H30       1.0  0.29640  0.61080  0.29060  1.0000 0.1189417269
H   H31       1.0  0.38920  0.70360  0.79060  1.0000 0.1189417269
H   H32       1.0  0.70360  0.38920  0.70940  1.0000 0.1094396489
H   H33       1.0  0.13180  0.30000  0.05790  1.0000 0.1189417269
H   H34       1.0  0.30000  0.13180  0.44210  1.0000 0.1189417269
H   H35       1.0  0.86820  0.70000  0.94210  1.0000 0.1189417269
H   H36       1.0  0.70000  0.86820  0.55790  1.0000 0.1189417269
H   H37       1.0  0.26420  0.29840  0.95780  1.0000 0.1094396489
H   H38       1.0  0.29840  0.26420  0.54220  1.0000 0.1094396489
H   H39       1.0  0.73580  0.70160  0.04220  1.0000 0.1094396489
H   H40       1.0  0.70160  0.73580  0.45780  1.0000 0.1094396489
H   H41       1.0  0.07240  0.22100  0.70980  1.0000 0.1320948083
H   H42       1.0  0.22100  0.07240  0.79020  1.0000 0.1320948083
H   H43       1.0  0.92760  0.77900  0.29020  1.0000 0.1320948083
H   H44       1.0  0.77900  0.92760  0.20980  1.0000 0.1320948083
C   C1        1.0  0.86290  0.34110  0.39080  1.0000 0.0911323574
C   C2        1.0  0.34110  0.86290  0.10920  1.0000 0.0911323574
C   C3        1.0  0.13710  0.65890  0.60920  1.0000 0.0911323574
C   C4        1.0  0.65890  0.13710  0.89080  1.0000 0.0911323574
C   C5        1.0  0.90630  0.39390  0.47320  1.0000 -0.1806115102
C   C6        1.0  0.39390  0.90630  0.02680  1.0000 -0.1806115102
C   C7        1.0  0.09370  0.60610  0.52680  1.0000 -0.1806115102
C   C8        1.0  0.60610  0.09370  0.97320  1.0000 -0.1806115102
C   C9        1.0  0.97710  0.47050  0.45710  1.0000 0.1094396489
C   C10       1.0  0.47050  0.97710  0.04290  1.0000 0.1094396489
C   C11       1.0  0.02290  0.52950  0.54290  1.0000 0.1094396489
C   C12       1.0  0.52950  0.02290  0.95710  1.0000 0.1094396489
C   C13       1.0  0.99990  0.49170  0.35370  1.0000 -0.1899254698
C   C14       1.0  0.49170  0.99990  0.14630  1.0000 -0.1899254698
C   C15       1.0  0.00010  0.50830  0.64630  1.0000 -0.1899254698
C   C16       1.0  0.50830  0.00010  0.85370  1.0000 -0.1899254698
C   C17       1.0  0.95340  0.43620  0.27430  1.0000 0.0726844833
C   C18       1.0  0.43620  0.95340  0.22570  1.0000 0.0726844833
C   C19       1.0  0.04660  0.56380  0.72570  1.0000 0.0726844833
C   C20       1.0  0.56380  0.04660  0.77430  1.0000 0.0726844833
C   C21       1.0  0.70910  0.41590  0.01630  1.0000 0.0726844833
C   C22       1.0  0.41590  0.70910  0.48370  1.0000 0.0726844833
C   C23       1.0  0.29090  0.58410  0.98370  1.0000 0.0726844833
C   C24       1.0  0.58410  0.29090  0.51630  1.0000 0.0726844833
C   C25       1.0  0.63250  0.47430  0.97530  1.0000 -0.1899254698
C   C26       1.0  0.47430  0.63250  0.52470  1.0000 -0.1899254698
C   C27       1.0  0.36750  0.52570  0.02470  1.0000 -0.1899254698
C   C28       1.0  0.52570  0.36750  0.47530  1.0000 -0.1899254698
C   C29       1.0  0.54300  0.46780  0.02090  1.0000 0.1094396489
C   C30       1.0  0.46780  0.54300  0.47910  1.0000 0.1094396489
C   C31       1.0  0.45700  0.53220  0.97910  1.0000 0.1094396489
C   C32       1.0  0.53220  0.45700  0.52090  1.0000 0.1094396489
C   C33       1.0  0.53700  0.40040  0.11210  1.0000 -0.197115999
C   C34       1.0  0.40040  0.53700  0.38790  1.0000 -0.197115999
C   C35       1.0  0.46300  0.59960  0.88790  1.0000 -0.197115999
C   C36       1.0  0.59960  0.46300  0.61210  1.0000 -0.197115999
C   C37       1.0  0.61700  0.34300  0.14900  1.0000 0.0629276891
C   C38       1.0  0.34300  0.61700  0.35100  1.0000 0.0629276891
C   C39       1.0  0.38300  0.65700  0.85100  1.0000 0.0629276891
C   C40       1.0  0.65700  0.38300  0.64900  1.0000 0.0629276891
C   C41       1.0  0.93250  0.26110  0.01420  1.0000 0.5418431123
C   C42       1.0  0.26110  0.93250  0.48580  1.0000 0.5418431123
C   C43       1.0  0.06750  0.73890  0.98580  1.0000 0.5418431123
C   C44       1.0  0.73890  0.06750  0.51420  1.0000 0.5418431123
C   C45       1.0  0.01780  0.26680  0.94460  1.0000 -0.0315677955
C   C46       1.0  0.26680  0.01780  0.55540  1.0000 -0.0315677955
C   C47       1.0  0.98220  0.73320  0.05540  1.0000 -0.0315677955
C   C48       1.0  0.73320  0.98220  0.44460  1.0000 -0.0315677955
C   C49       1.0  0.11830  0.28570  0.98690  1.0000 -0.1002807806
C   C50       1.0  0.28570  0.11830  0.51310  1.0000 -0.1002807806
C   C51       1.0  0.88170  0.71430  0.01310  1.0000 -0.1002807806
C   C52       1.0  0.71430  0.88170  0.48690  1.0000 -0.1002807806
C   C53       1.0  0.19830  0.28370  0.92700  1.0000 -0.1630810055
C   C54       1.0  0.28370  0.19830  0.57300  1.0000 -0.1630810055
C   C55       1.0  0.80170  0.71630  0.07300  1.0000 -0.1630810055
C   C56       1.0  0.71630  0.80170  0.42700  1.0000 -0.1630810055
C   C57       1.0  0.18290  0.26070  0.82280  1.0000 0.0726844833
C   C58       1.0  0.26070  0.18290  0.67720  1.0000 0.0726844833
C   C59       1.0  0.81710  0.73930  0.17720  1.0000 0.0726844833
C   C60       1.0  0.73930  0.81710  0.32280  1.0000 0.0726844833
C   C61       1.0  0.08470  0.23890  0.77960  1.0000 -0.1630810055
C   C62       1.0  0.23890  0.08470  0.72040  1.0000 -0.1630810055
C   C63       1.0  0.91530  0.76110  0.22040  1.0000 -0.1630810055
C   C64       1.0  0.76110  0.91530  0.27960  1.0000 -0.1630810055
C   C65       1.0  0.00270  0.24350  0.83960  1.0000 -0.0060178304
C   C66       1.0  0.24350  0.00270  0.66040  1.0000 -0.0060178304
C   C67       1.0  0.99730  0.75650  0.16040  1.0000 -0.0060178304
C   C68       1.0  0.75650  0.99730  0.33960  1.0000 -0.0060178304
C   C69       1.0  0.89720  0.23160  0.78340  1.0000 0.5220631618
C   C70       1.0  0.23160  0.89720  0.71660  1.0000 0.5220631618
C   C71       1.0  0.10280  0.76840  0.21660  1.0000 0.5220631618
C   C72       1.0  0.76840  0.10280  0.28340  1.0000 0.5220631618
C   C73       1.0  0.26920  0.26920  0.75000  1.0000 -0.2718794386
C   C74       1.0  0.73080  0.73080  0.25000  1.0000 -0.2718794386
C   C75       1.0  0.37450  0.26530  0.81300  1.0000 0.6408242244
C   C76       1.0  0.26530  0.37450  0.68700  1.0000 0.6408242244
C   C77       1.0  0.62550  0.73470  0.18700  1.0000 0.6408242244
C   C78       1.0  0.73470  0.62550  0.31300  1.0000 0.6408242244
N   N1        1.0  0.88665  0.35865  0.29220  1.0000 -0.2220216192
N   N2        1.0  0.35865  0.88665  0.20780  1.0000 -0.2220216192
N   N3        1.0  0.11335  0.64135  0.70780  1.0000 -0.2220216192
N   N4        1.0  0.64135  0.11335  0.79220  1.0000 -0.2220216192
N   N5        1.0  0.70405  0.34955  0.10370  1.0000 -0.2220216192
N   N6        1.0  0.34955  0.70405  0.39630  1.0000 -0.2220216192
N   N7        1.0  0.29595  0.65045  0.89630  1.0000 -0.2220216192
N   N8        1.0  0.65045  0.29595  0.60370  1.0000 -0.2220216192
O   O1        1.0  0.85714  0.19996  0.99890  1.0000 -0.5357417505
O   O2        1.0  0.19996  0.85714  0.50110  1.0000 -0.5357417505
O   O3        1.0  0.14286  0.80004  0.00110  1.0000 -0.5357417505
O   O4        1.0  0.80004  0.14286  0.49890  1.0000 -0.5357417505
O   O5        1.0  0.94139  0.32127  0.07760  1.0000 -0.489980955
O   O6        1.0  0.32127  0.94139  0.42240  1.0000 -0.489980955
O   O7        1.0  0.05861  0.67873  0.92240  1.0000 -0.489980955
O   O8        1.0  0.67873  0.05861  0.57760  1.0000 -0.489980955
O   O9        1.0  0.83844  0.29594  0.78440  1.0000 -0.5043857958
O   O10       1.0  0.29594  0.83844  0.71560  1.0000 -0.5043857958
O   O11       1.0  0.16156  0.70406  0.21560  1.0000 -0.5043857958
O   O12       1.0  0.70406  0.16156  0.28440  1.0000 -0.5043857958
O   O13       1.0  0.87232  0.15784  0.73860  1.0000 -0.4306550663
O   O14       1.0  0.15784  0.87232  0.76140  1.0000 -0.4306550663
O   O15       1.0  0.12768  0.84216  0.26140  1.0000 -0.4306550663
O   O16       1.0  0.84216  0.12768  0.23860  1.0000 -0.4306550663
F   F1        1.0  0.37579  0.18633  0.89078  1.0000 -0.197115999
F   F2        1.0  0.18633  0.37579  0.60922  1.0000 -0.197115999
F   F3        1.0  0.62421  0.81367  0.10922  1.0000 -0.197115999
F   F4        1.0  0.81367  0.62421  0.39078  1.0000 -0.197115999
F   F5        1.0  0.40301  0.34757  0.86410  1.0000 -0.2139728408
F   F6        1.0  0.34757  0.40301  0.63590  1.0000 -0.2139728408
F   F7        1.0  0.59699  0.65243  0.13590  1.0000 -0.2139728408
F   F8        1.0  0.65243  0.59699  0.36410  1.0000 -0.2139728408
F   F9        1.0  0.44559  0.25335  0.75212  1.0000 -0.197115999
F   F10       1.0  0.25335  0.44559  0.74788  1.0000 -0.197115999
F   F11       1.0  0.55441  0.74665  0.24788  1.0000 -0.197115999
F   F12       1.0  0.74665  0.55441  0.25212  1.0000 -0.197115999
