# DDEC6 charges by PACMAN v1.1 (https://github.com/mtap-research/PACMAN-charge/)
data_2009[Zn][srs]3[FSR]1
_chemical_formula_sum              "Zn4 H48 C44 N8 O20"
_cell_length_a       10.4465
_cell_length_b       11.7859
_cell_length_c       14.6048
_cell_angle_alpha    90
_cell_angle_beta     90
_cell_angle_gamma    90

_symmetry_space_group_name_H-M    "P 1"
_symmetry_Int_Tables_number       1

loop_
  _symmetry_equiv_pos_as_xyz
  'x, y, z'

loop_
  _atom_site_type_symbol
  _atom_site_label
  _atom_site_symmetry_multiplicity
  _atom_site_fract_x
  _atom_site_fract_y
  _atom_site_fract_z
  _atom_site_occupancy
  _atom_site_charge
Zn  Zn1       1.0  0.16850  0.19800  0.17336  1.0000 0.8422473506
Zn  Zn2       1.0  0.33150  0.80200  0.67336  1.0000 0.8422473506
Zn  Zn3       1.0  0.83150  0.69800  0.32664  1.0000 0.8422473506
Zn  Zn4       1.0  0.66850  0.30200  0.82664  1.0000 0.8422473506
H   H1        1.0  0.50460  0.97080  0.19620  1.0000 0.1505445787
H   H2        1.0  0.99540  0.02920  0.69620  1.0000 0.1505445787
H   H3        1.0  0.49540  0.47080  0.30380  1.0000 0.1505445787
H   H4        1.0  0.00460  0.52920  0.80380  1.0000 0.1505445787
H   H5        1.0  0.47420  0.10390  0.19400  1.0000 0.1718168096
H   H6        1.0  0.02580  0.89610  0.69400  1.0000 0.1718168096
H   H7        1.0  0.52580  0.60390  0.30600  1.0000 0.1718168096
H   H8        1.0  0.97420  0.39610  0.80600  1.0000 0.1718168096
H   H9        1.0  0.40710  0.02070  0.12190  1.0000 0.1752160624
H   H10       1.0  0.09290  0.97930  0.62190  1.0000 0.1752160624
H   H11       1.0  0.59290  0.52070  0.37810  1.0000 0.1752160624
H   H12       1.0  0.90710  0.47930  0.87810  1.0000 0.1752160624
H   H13       1.0  0.42050  0.79000  0.36620  1.0000 0.1236237814
H   H14       1.0  0.07950  0.21000  0.86620  1.0000 0.1236237814
H   H15       1.0  0.57950  0.29000  0.13380  1.0000 0.1236237814
H   H16       1.0  0.92050  0.71000  0.63380  1.0000 0.1236237814
H   H17       1.0  0.51880  0.88120  0.32560  1.0000 0.1380620647
H   H18       1.0  0.98120  0.11880  0.82560  1.0000 0.1380620647
H   H19       1.0  0.48120  0.38120  0.17440  1.0000 0.1380620647
H   H20       1.0  0.01880  0.61880  0.67440  1.0000 0.1380620647
H   H21       1.0  0.44000  0.80050  0.25790  1.0000 0.1380620647
H   H22       1.0  0.06000  0.19950  0.75790  1.0000 0.1380620647
H   H23       1.0  0.56000  0.30050  0.24210  1.0000 0.1380620647
H   H24       1.0  0.94000  0.69950  0.74210  1.0000 0.1380620647
H   H25       1.0  0.24390  0.84610  0.41410  1.0000 0.1236237814
H   H26       1.0  0.25610  0.15390  0.91410  1.0000 0.1236237814
H   H27       1.0  0.75610  0.34610  0.08590  1.0000 0.1236237814
H   H28       1.0  0.74390  0.65390  0.58590  1.0000 0.1236237814
H   H29       1.0  0.14890  0.89430  0.33740  1.0000 0.1505445787
H   H30       1.0  0.35110  0.10570  0.83740  1.0000 0.1505445787
H   H31       1.0  0.85110  0.39430  0.16260  1.0000 0.1505445787
H   H32       1.0  0.64890  0.60570  0.66260  1.0000 0.1505445787
H   H33       1.0  0.21310  0.97900  0.40970  1.0000 0.1505445787
H   H34       1.0  0.28690  0.02100  0.90970  1.0000 0.1505445787
H   H35       1.0  0.78690  0.47900  0.09030  1.0000 0.1505445787
H   H36       1.0  0.71310  0.52100  0.59030  1.0000 0.1505445787
H   H37       1.0  0.53020  0.52020  0.79240  1.0000 0.1267894604
H   H38       1.0  0.96980  0.47980  0.29240  1.0000 0.1267894604
H   H39       1.0  0.46980  0.02020  0.70760  1.0000 0.1267894604
H   H40       1.0  0.03020  0.97980  0.20760  1.0000 0.1267894604
H   H41       1.0  0.19710  0.52130  0.93300  1.0000 0.1380620647
H   H42       1.0  0.30290  0.47870  0.43300  1.0000 0.1380620647
H   H43       1.0  0.80290  0.02130  0.56700  1.0000 0.1380620647
H   H44       1.0  0.69710  0.97870  0.06700  1.0000 0.1380620647
H   H45       1.0  0.46010  0.27370  0.96910  1.0000 0.1267894604
H   H46       1.0  0.03990  0.72630  0.46910  1.0000 0.1267894604
H   H47       1.0  0.53990  0.77370  0.53090  1.0000 0.1267894604
H   H48       1.0  0.96010  0.22630  0.03090  1.0000 0.1267894604
C   C1        1.0  0.32940  0.01001  0.25025  1.0000 0.5380800501
C   C2        1.0  0.17060  0.98999  0.75025  1.0000 0.5380800501
C   C3        1.0  0.67060  0.51001  0.24975  1.0000 0.5380800501
C   C4        1.0  0.82940  0.48999  0.74975  1.0000 0.5380800501
C   C5        1.0  0.43820  0.02790  0.18492  1.0000 -0.5966749951
C   C6        1.0  0.06180  0.97210  0.68492  1.0000 -0.5966749951
C   C7        1.0  0.56180  0.52790  0.31508  1.0000 -0.5966749951
C   C8        1.0  0.93820  0.47210  0.81508  1.0000 -0.5966749951
C   C9        1.0  0.43680  0.84270  0.31560  1.0000 -0.345485115
C   C10       1.0  0.06320  0.15730  0.81560  1.0000 -0.345485115
C   C11       1.0  0.56320  0.34270  0.18440  1.0000 -0.345485115
C   C12       1.0  0.93680  0.65730  0.68440  1.0000 -0.345485115
C   C13       1.0  0.22620  0.91010  0.37320  1.0000 -0.3295237585
C   C14       1.0  0.27380  0.08990  0.87320  1.0000 -0.3295237585
C   C15       1.0  0.77380  0.41010  0.12680  1.0000 -0.3295237585
C   C16       1.0  0.72620  0.58990  0.62680  1.0000 -0.3295237585
C   C17       1.0  0.47443  0.48562  0.83557  1.0000 0.0641789124
C   C18       1.0  0.02557  0.51438  0.33557  1.0000 0.0641789124
C   C19       1.0  0.52557  0.98562  0.66443  1.0000 0.0641789124
C   C20       1.0  0.97443  0.01438  0.16443  1.0000 0.0641789124
C   C21       1.0  0.35825  0.53733  0.85432  1.0000 -0.0409238576
C   C22       1.0  0.14175  0.46267  0.35432  1.0000 -0.0409238576
C   C23       1.0  0.64175  0.03733  0.64568  1.0000 -0.0409238576
C   C24       1.0  0.85825  0.96267  0.14568  1.0000 -0.0409238576
C   C25       1.0  0.27776  0.48818  0.91918  1.0000 -0.0606831699
C   C26       1.0  0.22224  0.51182  0.41918  1.0000 -0.0606831699
C   C27       1.0  0.72224  0.98818  0.58082  1.0000 -0.0606831699
C   C28       1.0  0.77776  0.01182  0.08082  1.0000 -0.0606831699
C   C29       1.0  0.43410  0.34170  0.93961  1.0000 0.068197845
C   C30       1.0  0.06590  0.65830  0.43961  1.0000 0.068197845
C   C31       1.0  0.56590  0.84170  0.56039  1.0000 0.068197845
C   C32       1.0  0.93410  0.15830  0.06039  1.0000 0.068197845
C   C33       1.0  0.23210  0.33368  0.03363  1.0000 0.5380800501
C   C34       1.0  0.26790  0.66632  0.53363  1.0000 0.5380800501
C   C35       1.0  0.76790  0.83368  0.46637  1.0000 0.5380800501
C   C36       1.0  0.73210  0.16632  0.96637  1.0000 0.5380800501
C   C37       1.0  0.31760  0.38942  0.96351  1.0000 -0.0503366213
C   C38       1.0  0.18240  0.61058  0.46351  1.0000 -0.0503366213
C   C39       1.0  0.68240  0.88942  0.53649  1.0000 -0.0503366213
C   C40       1.0  0.81760  0.11058  0.03649  1.0000 -0.0503366213
C   C41       1.0  0.31670  0.64071  0.80095  1.0000 0.5592300729
C   C42       1.0  0.18330  0.35929  0.30095  1.0000 0.5592300729
C   C43       1.0  0.68330  0.14071  0.69905  1.0000 0.5592300729
C   C44       1.0  0.81670  0.85929  0.19905  1.0000 0.5592300729
N   N1        1.0  0.51178  0.38776  0.87627  1.0000 -0.2313466235
N   N2        1.0  0.98822  0.61224  0.37627  1.0000 -0.2313466235
N   N3        1.0  0.48822  0.88776  0.62373  1.0000 -0.2313466235
N   N4        1.0  0.01178  0.11224  0.12373  1.0000 -0.2313466235
N   N5        1.0  0.33430  0.92670  0.31150  1.0000 0.0012192202
N   N6        1.0  0.16570  0.07330  0.81150  1.0000 0.0012192202
N   N7        1.0  0.66570  0.42670  0.18850  1.0000 0.0012192202
N   N8        1.0  0.83430  0.57330  0.68850  1.0000 0.0012192202
O   O1        1.0  0.28357  0.25064  0.07767  1.0000 -0.5481816544
O   O2        1.0  0.21643  0.74936  0.57767  1.0000 -0.5481816544
O   O3        1.0  0.71643  0.75064  0.42233  1.0000 -0.5481816544
O   O4        1.0  0.78357  0.24936  0.92233  1.0000 -0.5481816544
O   O5        1.0  0.12212  0.36777  0.04395  1.0000 -0.5147933527
O   O6        1.0  0.37788  0.63223  0.54395  1.0000 -0.5147933527
O   O7        1.0  0.87788  0.86777  0.45605  1.0000 -0.5156527921
O   O8        1.0  0.62212  0.13223  0.95605  1.0000 -0.5147933527
O   O9        1.0  0.40565  0.69010  0.75630  1.0000 -0.5481816544
O   O10       1.0  0.09435  0.30990  0.25630  1.0000 -0.5481816544
O   O11       1.0  0.59435  0.19010  0.74370  1.0000 -0.5481816544
O   O12       1.0  0.90565  0.80990  0.24370  1.0000 -0.5481816544
O   O13       1.0  0.20318  0.66811  0.80165  1.0000 -0.5156527921
O   O14       1.0  0.29682  0.33189  0.30165  1.0000 -0.5156527921
O   O15       1.0  0.79682  0.16811  0.69835  1.0000 -0.5156527921
O   O16       1.0  0.70318  0.83189  0.19835  1.0000 -0.5147933527
O   O17       1.0  0.23296  0.07245  0.24884  1.0000 -0.5431291922
O   O18       1.0  0.26704  0.92755  0.74884  1.0000 -0.5431291922
O   O19       1.0  0.76704  0.57245  0.25116  1.0000 -0.5431291922
O   O20       1.0  0.73296  0.42755  0.75116  1.0000 -0.5431291922
