# DDEC6 charges by PACMAN v1.1 (https://github.com/mtap-research/PACMAN-charge/)
data_2009[Sm][nan]3[FSR]1
_chemical_formula_sum              "Sm8 P12 H136 C108 N12 O68"
_cell_length_a       20.91
_cell_length_b       7.09
_cell_length_c       27.823
_cell_angle_alpha    90
_cell_angle_beta     107.611
_cell_angle_gamma    90

_symmetry_space_group_name_H-M    "P 1"
_symmetry_Int_Tables_number       1

loop_
  _symmetry_equiv_pos_as_xyz
  'x, y, z'

loop_
  _atom_site_type_symbol
  _atom_site_label
  _atom_site_symmetry_multiplicity
  _atom_site_fract_x
  _atom_site_fract_y
  _atom_site_fract_z
  _atom_site_occupancy
  _atom_site_charge
Sm  Sm1       1.0  0.91035  0.87277  0.66149  1.0000 2.2359968274
Sm  Sm2       1.0  0.08965  0.37277  0.83851  1.0000 2.2359968274
Sm  Sm3       1.0  0.08965  0.12723  0.33851  1.0000 2.2359968274
Sm  Sm4       1.0  0.91035  0.62723  0.16149  1.0000 2.2359968274
Sm  Sm5       1.0  0.74695  0.08665  0.20675  1.0000 2.1817584484
Sm  Sm6       1.0  0.25305  0.58665  0.29325  1.0000 2.1817584484
Sm  Sm7       1.0  0.25305  0.91335  0.79325  1.0000 2.1817584484
Sm  Sm8       1.0  0.74695  0.41335  0.70675  1.0000 2.1817584484
P   P1        1.0  0.91779  0.95937  0.27272  1.0000 1.4326059668
P   P2        1.0  0.08221  0.45937  0.22728  1.0000 1.4326059668
P   P3        1.0  0.08221  0.04063  0.72728  1.0000 1.4326059668
P   P4        1.0  0.91779  0.54063  0.77272  1.0000 1.4326059668
P   P5        1.0  0.75047  0.91364  0.67951  1.0000 1.3623468129
P   P6        1.0  0.24953  0.41364  0.82049  1.0000 1.3623468129
P   P7        1.0  0.24953  0.08636  0.32049  1.0000 1.3623468129
P   P8        1.0  0.75047  0.58636  0.17951  1.0000 1.3623468129
P   P9        1.0  0.86332  0.37753  0.62631  1.0000 1.393841788
P   P10       1.0  0.13668  0.87753  0.87369  1.0000 1.393841788
P   P11       1.0  0.13668  0.62247  0.37369  1.0000 1.393841788
P   P12       1.0  0.86332  0.12247  0.12631  1.0000 1.393841788
H   H1        1.0  0.98750  0.65010  0.32330  1.0000 0.2712674884
H   H2        1.0  0.01250  0.15010  0.17670  1.0000 0.2712674884
H   H3        1.0  0.01250  0.34990  0.67670  1.0000 0.2712674884
H   H4        1.0  0.98750  0.84990  0.82330  1.0000 0.2712674884
H   H5        1.0  0.62070  0.81200  0.68620  1.0000 0.2802233955
H   H6        1.0  0.37930  0.31200  0.81380  1.0000 0.2802233955
H   H7        1.0  0.37930  0.18800  0.31380  1.0000 0.2802233955
H   H8        1.0  0.62070  0.68800  0.18620  1.0000 0.2802233955
H   H9        1.0  0.61960  0.01700  0.68810  1.0000 0.2889926208
H   H10       1.0  0.38040  0.51700  0.81190  1.0000 0.2889926208
H   H11       1.0  0.38040  0.98300  0.31190  1.0000 0.2889926208
H   H12       1.0  0.61960  0.48300  0.18810  1.0000 0.2889926208
H   H13       1.0  0.76520  0.16050  0.58550  1.0000 0.2802233955
H   H14       1.0  0.23480  0.66050  0.91450  1.0000 0.2802233955
H   H15       1.0  0.23480  0.83950  0.41450  1.0000 0.2802233955
H   H16       1.0  0.76520  0.33950  0.08550  1.0000 0.2802233955
H   H17       1.0  0.79390  0.07390  0.54960  1.0000 0.2889926208
H   H18       1.0  0.20610  0.57390  0.95040  1.0000 0.2889926208
H   H19       1.0  0.20610  0.92610  0.45040  1.0000 0.2889926208
H   H20       1.0  0.79390  0.42610  0.04960  1.0000 0.2889926208
H   H21       1.0  0.90310  0.88340  0.35020  1.0000 0.1487553081
H   H22       1.0  0.09690  0.38340  0.14980  1.0000 0.1487553081
H   H23       1.0  0.09690  0.11660  0.64980  1.0000 0.1487553081
H   H24       1.0  0.90310  0.61660  0.85020  1.0000 0.1487553081
H   H25       1.0  0.85790  0.75200  0.30800  1.0000 0.1422005406
H   H26       1.0  0.14210  0.25200  0.19200  1.0000 0.1422005406
H   H27       1.0  0.14210  0.24800  0.69200  1.0000 0.1422005406
H   H28       1.0  0.85790  0.74800  0.80800  1.0000 0.1422005406
H   H29       1.0  0.98060  0.43200  0.38260  1.0000 0.1298089929
H   H30       1.0  0.01940  0.93200  0.11740  1.0000 0.1298089929
H   H31       1.0  0.01940  0.56800  0.61740  1.0000 0.1298089929
H   H32       1.0  0.98060  0.06800  0.88260  1.0000 0.1298089929
H   H33       1.0  0.90300  0.44500  0.35670  1.0000 0.1204676716
H   H34       1.0  0.09700  0.94500  0.14330  1.0000 0.1204676716
H   H35       1.0  0.09700  0.55500  0.64330  1.0000 0.1204676716
H   H36       1.0  0.90300  0.05500  0.85670  1.0000 0.1204676716
H   H37       1.0  0.83700  0.55150  0.40500  1.0000 0.1121188649
H   H38       1.0  0.16300  0.05150  0.09500  1.0000 0.1121188649
H   H39       1.0  0.16300  0.44850  0.59500  1.0000 0.1121188649
H   H40       1.0  0.83700  0.94850  0.90500  1.0000 0.1121188649
H   H41       1.0  0.82390  0.68390  0.47790  1.0000 0.1121188649
H   H42       1.0  0.17610  0.18390  0.02210  1.0000 0.1121188649
H   H43       1.0  0.17610  0.31610  0.52210  1.0000 0.1121188649
H   H44       1.0  0.82390  0.81610  0.97790  1.0000 0.1121188649
H   H45       1.0  0.01820  0.81820  0.52320  1.0000 0.1204676716
H   H46       1.0  0.98180  0.31820  0.97680  1.0000 0.1204676716
H   H47       1.0  0.98180  0.18180  0.47680  1.0000 0.1204676716
H   H48       1.0  0.01820  0.68180  0.02320  1.0000 0.1204676716
H   H49       1.0  0.03030  0.69870  0.44940  1.0000 0.1298089929
H   H50       1.0  0.96970  0.19870  0.05060  1.0000 0.1298089929
H   H51       1.0  0.96970  0.30130  0.55060  1.0000 0.1298089929
H   H52       1.0  0.03030  0.80130  0.94940  1.0000 0.1298089929
H   H53       1.0  0.65600  0.82230  0.61490  1.0000 0.1298089929
H   H54       1.0  0.34400  0.32230  0.88510  1.0000 0.1298089929
H   H55       1.0  0.34400  0.17770  0.38510  1.0000 0.1298089929
H   H56       1.0  0.65600  0.67770  0.11490  1.0000 0.1298089929
H   H57       1.0  0.65790  0.04270  0.61970  1.0000 0.1422005406
H   H58       1.0  0.34210  0.54270  0.88030  1.0000 0.1422005406
H   H59       1.0  0.34210  0.95730  0.38030  1.0000 0.1422005406
H   H60       1.0  0.65790  0.45730  0.11970  1.0000 0.1422005406
H   H61       1.0  0.53500  0.02930  0.61130  1.0000 0.1298089929
H   H62       1.0  0.46500  0.52930  0.88870  1.0000 0.1298089929
H   H63       1.0  0.46500  0.97070  0.38870  1.0000 0.1298089929
H   H64       1.0  0.53500  0.47070  0.11130  1.0000 0.1298089929
H   H65       1.0  0.53550  0.80770  0.61050  1.0000 0.1204676716
H   H66       1.0  0.46450  0.30770  0.88950  1.0000 0.1204676716
H   H67       1.0  0.46450  0.19230  0.38950  1.0000 0.1204676716
H   H68       1.0  0.53550  0.69230  0.11050  1.0000 0.1204676716
H   H69       1.0  0.49330  0.63360  0.67360  1.0000 0.1204676716
H   H70       1.0  0.50670  0.13360  0.82640  1.0000 0.1204676716
H   H71       1.0  0.50670  0.36640  0.32640  1.0000 0.1204676716
H   H72       1.0  0.49330  0.86640  0.17360  1.0000 0.1204676716
H   H73       1.0  0.42850  0.63620  0.72740  1.0000 0.1204676716
H   H74       1.0  0.57150  0.13620  0.77260  1.0000 0.1204676716
H   H75       1.0  0.57150  0.36380  0.27260  1.0000 0.1204676716
H   H76       1.0  0.42850  0.86380  0.22740  1.0000 0.1204676716
H   H77       1.0  0.40770  0.19310  0.71170  1.0000 0.1204676716
H   H78       1.0  0.59230  0.69310  0.78830  1.0000 0.1204676716
H   H79       1.0  0.59230  0.80690  0.28830  1.0000 0.1204676716
H   H80       1.0  0.40770  0.30690  0.21170  1.0000 0.1204676716
H   H81       1.0  0.47310  0.19180  0.65820  1.0000 0.1204676716
H   H82       1.0  0.52690  0.69180  0.84180  1.0000 0.1204676716
H   H83       1.0  0.52690  0.80820  0.34180  1.0000 0.1204676716
H   H84       1.0  0.47310  0.30820  0.15820  1.0000 0.1204676716
H   H85       1.0  0.76580  0.99140  0.38180  1.0000 0.1298089929
H   H86       1.0  0.23420  0.49140  0.11820  1.0000 0.1298089929
H   H87       1.0  0.23420  0.00860  0.61820  1.0000 0.1298089929
H   H88       1.0  0.76580  0.50860  0.88180  1.0000 0.1298089929
H   H89       1.0  0.74850  0.95370  0.45960  1.0000 0.1298089929
H   H90       1.0  0.25150  0.45370  0.04040  1.0000 0.1298089929
H   H91       1.0  0.25150  0.04630  0.54040  1.0000 0.1298089929
H   H92       1.0  0.74850  0.54630  0.95960  1.0000 0.1298089929
H   H93       1.0  0.68080  0.29390  0.52320  1.0000 0.1121188649
H   H94       1.0  0.31920  0.79390  0.97680  1.0000 0.1121188649
H   H95       1.0  0.31920  0.70610  0.47680  1.0000 0.1121188649
H   H96       1.0  0.68080  0.20610  0.02320  1.0000 0.1121188649
H   H97       1.0  0.68090  0.07430  0.51620  1.0000 0.1298089929
H   H98       1.0  0.31910  0.57430  0.98380  1.0000 0.1298089929
H   H99       1.0  0.31910  0.92570  0.48380  1.0000 0.1298089929
H   H100      1.0  0.68090  0.42570  0.01620  1.0000 0.1298089929
H   H101      1.0  0.79120  0.45370  0.54600  1.0000 0.1487553081
H   H102      1.0  0.20880  0.95370  0.95400  1.0000 0.1487553081
H   H103      1.0  0.20880  0.54630  0.45400  1.0000 0.1487553081
H   H104      1.0  0.79120  0.04630  0.04600  1.0000 0.1487553081
H   H105      1.0  0.84860  0.31960  0.54050  1.0000 0.1487553081
H   H106      1.0  0.15140  0.81960  0.95950  1.0000 0.1487553081
H   H107      1.0  0.15140  0.68040  0.45950  1.0000 0.1487553081
H   H108      1.0  0.84860  0.18040  0.04050  1.0000 0.1487553081
H   H109      1.0  0.68040  0.48000  0.45290  1.0000 0.1298089929
H   H110      1.0  0.31960  0.98000  0.04710  1.0000 0.1298089929
H   H111      1.0  0.31960  0.52000  0.54710  1.0000 0.1298089929
H   H112      1.0  0.68040  0.02000  0.95290  1.0000 0.1298089929
H   H113      1.0  0.69660  0.51980  0.37470  1.0000 0.1204676716
H   H114      1.0  0.30340  0.01980  0.12530  1.0000 0.1204676716
H   H115      1.0  0.30340  0.48020  0.62530  1.0000 0.1204676716
H   H116      1.0  0.69660  0.98020  0.87470  1.0000 0.1204676716
H   H117      1.0  0.74990  0.45440  0.27690  1.0000 0.3755817188
H   H118      1.0  0.25010  0.95440  0.22310  1.0000 0.3755817188
H   H119      1.0  0.25010  0.54560  0.72310  1.0000 0.3755817188
H   H120      1.0  0.74990  0.04560  0.77690  1.0000 0.3755817188
H   H121      1.0  0.90860  0.00170  0.76550  1.0000 0.3260471074
H   H122      1.0  0.09140  0.50170  0.73450  1.0000 0.3260471074
H   H123      1.0  0.09140  0.99830  0.23450  1.0000 0.3260471074
H   H124      1.0  0.90860  0.49830  0.26550  1.0000 0.3260471074
H   H125      1.0  0.89690  0.16690  0.73730  1.0000 0.3684496729
H   H126      1.0  0.10310  0.66690  0.76270  1.0000 0.3684496729
H   H127      1.0  0.10310  0.83310  0.26270  1.0000 0.3684496729
H   H128      1.0  0.89690  0.33310  0.23730  1.0000 0.3684496729
H   H129      1.0  0.67910  0.07840  0.09490  1.0000 0.3066749423
H   H130      1.0  0.32090  0.57840  0.40510  1.0000 0.3066749423
H   H131      1.0  0.32090  0.92160  0.90510  1.0000 0.3066749423
H   H132      1.0  0.67910  0.42160  0.59490  1.0000 0.3066749423
H   H133      1.0  0.63500  0.98030  0.11440  1.0000 0.2960088102
H   H134      1.0  0.36500  0.48030  0.38560  1.0000 0.2960088102
H   H135      1.0  0.36500  0.01970  0.88560  1.0000 0.2960088102
H   H136      1.0  0.63500  0.51970  0.61440  1.0000 0.2960088102
C   C1        1.0  0.90210  0.80860  0.32080  1.0000 -0.4064218552
C   C2        1.0  0.09790  0.30860  0.17920  1.0000 -0.4064218552
C   C3        1.0  0.09790  0.19140  0.67920  1.0000 -0.4064218552
C   C4        1.0  0.90210  0.69140  0.82080  1.0000 -0.4064218552
C   C5        1.0  0.94290  0.51830  0.37279  1.0000 -0.1499771067
C   C6        1.0  0.05710  0.01830  0.12721  1.0000 -0.1499771067
C   C7        1.0  0.05710  0.48170  0.62721  1.0000 -0.1499771067
C   C8        1.0  0.94290  0.98170  0.87279  1.0000 -0.1499771067
C   C9        1.0  0.93470  0.61000  0.41946  1.0000 0.1204676716
C   C10       1.0  0.06530  0.11000  0.08054  1.0000 0.1204676716
C   C11       1.0  0.06530  0.39000  0.58054  1.0000 0.1204676716
C   C12       1.0  0.93470  0.89000  0.91946  1.0000 0.1204676716
C   C13       1.0  0.87360  0.60690  0.42840  1.0000 -0.1667822154
C   C14       1.0  0.12640  0.10690  0.07160  1.0000 -0.1667822154
C   C15       1.0  0.12640  0.39310  0.57160  1.0000 -0.1667822154
C   C16       1.0  0.87360  0.89310  0.92840  1.0000 -0.1667822154
C   C17       1.0  0.86570  0.68620  0.47250  1.0000 -0.1213970111
C   C18       1.0  0.13430  0.18620  0.02750  1.0000 -0.1213970111
C   C19       1.0  0.13430  0.31380  0.52750  1.0000 -0.1213970111
C   C20       1.0  0.86570  0.81380  0.97250  1.0000 -0.1213970111
C   C21       1.0  0.91940  0.76690  0.50781  1.0000 -0.0242582822
C   C22       1.0  0.08060  0.26690  0.99219  1.0000 -0.0242582822
C   C23       1.0  0.08060  0.23310  0.49219  1.0000 -0.0242582822
C   C24       1.0  0.91940  0.73310  0.00781  1.0000 -0.0242582822
C   C25       1.0  0.98120  0.76720  0.49910  1.0000 -0.0929886005
C   C26       1.0  0.01880  0.26720  0.00090  1.0000 -0.0929886005
C   C27       1.0  0.01880  0.23280  0.50090  1.0000 -0.0929886005
C   C28       1.0  0.98120  0.73280  0.99910  1.0000 -0.0929886005
C   C29       1.0  0.98880  0.69300  0.45510  1.0000 -0.1213970111
C   C30       1.0  0.01120  0.19300  0.04490  1.0000 -0.1213970111
C   C31       1.0  0.01120  0.30700  0.54490  1.0000 -0.1213970111
C   C32       1.0  0.98880  0.80700  0.95510  1.0000 -0.1213970111
C   C33       1.0  0.91220  0.84480  0.55660  1.0000 0.5516112445
C   C34       1.0  0.08780  0.34480  0.94340  1.0000 0.5516112445
C   C35       1.0  0.08780  0.15520  0.44340  1.0000 0.5516112445
C   C36       1.0  0.91220  0.65520  0.05660  1.0000 0.5516112445
C   C37       1.0  0.66410  0.92600  0.63870  1.0000 -0.4329689892
C   C38       1.0  0.33590  0.42600  0.86130  1.0000 -0.4329689892
C   C39       1.0  0.33590  0.07400  0.36130  1.0000 -0.4329689892
C   C40       1.0  0.66410  0.57400  0.13870  1.0000 -0.4329689892
C   C41       1.0  0.54260  0.91730  0.63240  1.0000 -0.1300737095
C   C42       1.0  0.45740  0.41730  0.86760  1.0000 -0.1300737095
C   C43       1.0  0.45740  0.08270  0.36760  1.0000 -0.1300737095
C   C44       1.0  0.54260  0.58270  0.13240  1.0000 -0.1300737095
C   C45       1.0  0.49360  0.91390  0.66310  1.0000 0.1027096471
C   C46       1.0  0.50640  0.41390  0.83690  1.0000 0.1027096471
C   C47       1.0  0.50640  0.08610  0.33690  1.0000 0.1027096471
C   C48       1.0  0.49360  0.58610  0.16310  1.0000 0.1027096471
C   C49       1.0  0.47780  0.74750  0.68230  1.0000 -0.1631067235
C   C50       1.0  0.52220  0.24750  0.81770  1.0000 -0.1631067235
C   C51       1.0  0.52220  0.25250  0.31770  1.0000 -0.1631067235
C   C52       1.0  0.47780  0.75250  0.18230  1.0000 -0.1631067235
C   C53       1.0  0.43880  0.74950  0.71460  1.0000 -0.0929886005
C   C54       1.0  0.56120  0.24950  0.78540  1.0000 -0.0929886005
C   C55       1.0  0.56120  0.25050  0.28540  1.0000 -0.0929886005
C   C56       1.0  0.43880  0.75050  0.21460  1.0000 -0.0929886005
C   C57       1.0  0.41500  0.91540  0.72820  1.0000 -0.0368845315
C   C58       1.0  0.58500  0.41540  0.77180  1.0000 -0.0368845315
C   C59       1.0  0.58500  0.08460  0.27180  1.0000 -0.0368845315
C   C60       1.0  0.41500  0.58460  0.22820  1.0000 -0.0368845315
C   C61       1.0  0.42650  0.08060  0.70530  1.0000 -0.09562438
C   C62       1.0  0.57350  0.58060  0.79470  1.0000 -0.09562438
C   C63       1.0  0.57350  0.91940  0.29470  1.0000 -0.09562438
C   C64       1.0  0.42650  0.41940  0.20530  1.0000 -0.09562438
C   C65       1.0  0.46560  0.08000  0.67320  1.0000 -0.1631067235
C   C66       1.0  0.53440  0.58000  0.82680  1.0000 -0.1631067235
C   C67       1.0  0.53440  0.92000  0.32680  1.0000 -0.1631067235
C   C68       1.0  0.46560  0.42000  0.17320  1.0000 -0.1631067235
C   C69       1.0  0.37700  0.91810  0.76590  1.0000 0.5516112445
C   C70       1.0  0.62300  0.41810  0.73410  1.0000 0.5516112445
C   C71       1.0  0.62300  0.08190  0.23410  1.0000 0.5516112445
C   C72       1.0  0.37700  0.58190  0.26590  1.0000 0.5516112445
C   C73       1.0  0.74510  0.27810  0.32060  1.0000 0.571352288
C   C74       1.0  0.25490  0.77810  0.17940  1.0000 0.571352288
C   C75       1.0  0.25490  0.72190  0.67940  1.0000 0.571352288
C   C76       1.0  0.74510  0.22190  0.82060  1.0000 0.571352288
C   C77       1.0  0.73350  0.25950  0.37100  1.0000 -0.0368845315
C   C78       1.0  0.26650  0.75950  0.12900  1.0000 -0.0368845315
C   C79       1.0  0.26650  0.74050  0.62900  1.0000 -0.0368845315
C   C80       1.0  0.73350  0.24050  0.87100  1.0000 -0.0368845315
C   C81       1.0  0.74880  0.09060  0.39610  1.0000 -0.0792612882
C   C82       1.0  0.25120  0.59060  0.10390  1.0000 -0.0792612882
C   C83       1.0  0.25120  0.90940  0.60390  1.0000 -0.0792612882
C   C84       1.0  0.74880  0.40940  0.89610  1.0000 -0.0792612882
C   C85       1.0  0.73870  0.06840  0.44280  1.0000 -0.1499771067
C   C86       1.0  0.26130  0.56840  0.05720  1.0000 -0.1499771067
C   C87       1.0  0.26130  0.93160  0.55720  1.0000 -0.1499771067
C   C88       1.0  0.73870  0.43160  0.94280  1.0000 -0.1499771067
C   C89       1.0  0.71430  0.21550  0.46430  1.0000 0.1027096471
C   C90       1.0  0.28570  0.71550  0.03570  1.0000 0.1027096471
C   C91       1.0  0.28570  0.78450  0.53570  1.0000 0.1027096471
C   C92       1.0  0.71430  0.28450  0.96430  1.0000 0.1027096471
C   C93       1.0  0.70610  0.18890  0.51590  1.0000 -0.1421676131
C   C94       1.0  0.29390  0.68890  0.98410  1.0000 -0.1421676131
C   C95       1.0  0.29390  0.81110  0.48410  1.0000 -0.1421676131
C   C96       1.0  0.70610  0.31110  0.01590  1.0000 -0.1421676131
C   C97       1.0  0.81740  0.34230  0.55951  1.0000 -0.399516076
C   C98       1.0  0.18260  0.84230  0.94049  1.0000 -0.399516076
C   C99       1.0  0.18260  0.65770  0.44049  1.0000 -0.399516076
C   C100      1.0  0.81740  0.15770  0.05951  1.0000 -0.399516076
C   C101      1.0  0.69810  0.38180  0.43870  1.0000 -0.1631067235
C   C102      1.0  0.30190  0.88180  0.06130  1.0000 -0.1631067235
C   C103      1.0  0.30190  0.61820  0.56130  1.0000 -0.1631067235
C   C104      1.0  0.69810  0.11820  0.93870  1.0000 -0.1631067235
C   C105      1.0  0.70760  0.40600  0.39180  1.0000 -0.0929886005
C   C106      1.0  0.29240  0.90600  0.10820  1.0000 -0.0929886005
C   C107      1.0  0.29240  0.59400  0.60820  1.0000 -0.0929886005
C   C108      1.0  0.70760  0.09400  0.89180  1.0000 -0.0929886005
N   N1        1.0  0.95420  0.65710  0.33531  1.0000 -0.230918795
N   N2        1.0  0.04580  0.15710  0.16469  1.0000 -0.230918795
N   N3        1.0  0.04580  0.34290  0.66469  1.0000 -0.230918795
N   N4        1.0  0.95420  0.84290  0.83531  1.0000 -0.230918795
N   N5        1.0  0.61380  0.91730  0.66723  1.0000 -0.1300737095
N   N6        1.0  0.38620  0.41730  0.83277  1.0000 -0.1300737095
N   N7        1.0  0.38620  0.08270  0.33277  1.0000 -0.1300737095
N   N8        1.0  0.61380  0.58270  0.16723  1.0000 -0.1300737095
N   N9        1.0  0.77240  0.17700  0.55555  1.0000 -0.1421676131
N   N10       1.0  0.22760  0.67700  0.94445  1.0000 -0.1421676131
N   N11       1.0  0.22760  0.82300  0.44445  1.0000 -0.1421676131
N   N12       1.0  0.77240  0.32300  0.05555  1.0000 -0.1421676131
O   O1        1.0  0.96320  0.87490  0.59235  1.0000 -0.5931094439
O   O2        1.0  0.03680  0.37490  0.90765  1.0000 -0.5931094439
O   O3        1.0  0.03680  0.12510  0.40765  1.0000 -0.5931094439
O   O4        1.0  0.96320  0.62510  0.09235  1.0000 -0.5931094439
O   O5        1.0  0.85320  0.86970  0.55941  1.0000 -0.6265366451
O   O6        1.0  0.14680  0.36970  0.94059  1.0000 -0.6265366451
O   O7        1.0  0.14680  0.13030  0.44059  1.0000 -0.6265366451
O   O8        1.0  0.85320  0.63030  0.05941  1.0000 -0.6265366451
O   O9        1.0  0.97982  0.07210  0.29831  1.0000 -0.8618933411
O   O10       1.0  0.02018  0.57210  0.20169  1.0000 -0.8618933411
O   O11       1.0  0.02018  0.92790  0.70169  1.0000 -0.8618933411
O   O12       1.0  0.97982  0.42790  0.79831  1.0000 -0.8618933411
O   O13       1.0  0.85711  0.08730  0.25612  1.0000 -0.8805005329
O   O14       1.0  0.14289  0.58730  0.24388  1.0000 -0.8805005329
O   O15       1.0  0.14289  0.91270  0.74388  1.0000 -0.8805005329
O   O16       1.0  0.85711  0.41270  0.75612  1.0000 -0.8805005329
O   O17       1.0  0.92860  0.82930  0.23316  1.0000 -0.871842757
O   O18       1.0  0.07140  0.32930  0.26684  1.0000 -0.871842757
O   O19       1.0  0.07140  0.17070  0.76684  1.0000 -0.871842757
O   O20       1.0  0.92860  0.67070  0.73316  1.0000 -0.871842757
O   O21       1.0  0.79301  0.92720  0.64453  1.0000 -0.9094948547
O   O22       1.0  0.20699  0.42720  0.85547  1.0000 -0.9094948547
O   O23       1.0  0.20699  0.07280  0.35547  1.0000 -0.9094948547
O   O24       1.0  0.79301  0.57280  0.14453  1.0000 -0.9094948547
O   O25       1.0  0.75900  0.73170  0.70866  1.0000 -0.9094948547
O   O26       1.0  0.24100  0.23170  0.79134  1.0000 -0.9094948547
O   O27       1.0  0.24100  0.26830  0.29134  1.0000 -0.9094948547
O   O28       1.0  0.75900  0.76830  0.20866  1.0000 -0.9094948547
O   O29       1.0  0.75891  0.08120  0.71516  1.0000 -0.8961595447
O   O30       1.0  0.24109  0.58120  0.78484  1.0000 -0.8961595447
O   O31       1.0  0.24109  0.91880  0.28484  1.0000 -0.8961595447
O   O32       1.0  0.75891  0.41880  0.21516  1.0000 -0.8961595447
O   O33       1.0  0.36310  0.76610  0.78355  1.0000 -0.6265366451
O   O34       1.0  0.63690  0.26610  0.71645  1.0000 -0.6265366451
O   O35       1.0  0.63690  0.23390  0.21645  1.0000 -0.6265366451
O   O36       1.0  0.36310  0.73390  0.28355  1.0000 -0.6265366451
O   O37       1.0  0.35520  0.07290  0.77702  1.0000 -0.6456607731
O   O38       1.0  0.64480  0.57290  0.72298  1.0000 -0.6456607731
O   O39       1.0  0.64480  0.92710  0.22298  1.0000 -0.6456607731
O   O40       1.0  0.35520  0.42710  0.27702  1.0000 -0.6456607731
O   O41       1.0  0.74540  0.45340  0.30518  1.0000 -0.4565670045
O   O42       1.0  0.25460  0.95340  0.19482  1.0000 -0.4565670045
O   O43       1.0  0.25460  0.54660  0.69482  1.0000 -0.4565670045
O   O44       1.0  0.74540  0.04660  0.80518  1.0000 -0.4565670045
O   O45       1.0  0.75270  0.14110  0.29697  1.0000 -0.5609446467
O   O46       1.0  0.24730  0.64110  0.20303  1.0000 -0.5609446467
O   O47       1.0  0.24730  0.85890  0.70303  1.0000 -0.5609446467
O   O48       1.0  0.75270  0.35890  0.79697  1.0000 -0.5609446467
O   O49       1.0  0.90150  0.56060  0.63005  1.0000 -0.8805005329
O   O50       1.0  0.09850  0.06060  0.86995  1.0000 -0.8805005329
O   O51       1.0  0.09850  0.43940  0.36995  1.0000 -0.8805005329
O   O52       1.0  0.90150  0.93940  0.13005  1.0000 -0.8805005329
O   O53       1.0  0.90931  0.20760  0.64170  1.0000 -0.871842757
O   O54       1.0  0.09069  0.70760  0.85830  1.0000 -0.871842757
O   O55       1.0  0.09069  0.79240  0.35830  1.0000 -0.871842757
O   O56       1.0  0.90931  0.29240  0.14170  1.0000 -0.871842757
O   O57       1.0  0.80615  0.38090  0.64913  1.0000 -0.9209100158
O   O58       1.0  0.19385  0.88090  0.85087  1.0000 -0.9209100158
O   O59       1.0  0.19385  0.61910  0.35087  1.0000 -0.9209100158
O   O60       1.0  0.80615  0.11910  0.14913  1.0000 -0.9209100158
O   O61       1.0  0.92130  0.06890  0.74477  1.0000 -0.7178951354
O   O62       1.0  0.07870  0.56890  0.75523  1.0000 -0.7178951354
O   O63       1.0  0.07870  0.93110  0.25523  1.0000 -0.7178951354
O   O64       1.0  0.92130  0.43110  0.24477  1.0000 -0.7178951354
O   O65       1.0  0.65870  0.07960  0.11713  1.0000 -0.7637829931
O   O66       1.0  0.34130  0.57960  0.38287  1.0000 -0.7637829931
O   O67       1.0  0.34130  0.92040  0.88287  1.0000 -0.7637829931
O   O68       1.0  0.65870  0.42040  0.61713  1.0000 -0.7637829931
