# DDEC6 charges by PACMAN v1.1 (https://github.com/mtap-research/PACMAN-charge/)
data_2009[Gd][nan]3[FSR]1
_chemical_formula_sum              "Gd2 H24 C24 N6 O24"
_cell_length_a       7.9626
_cell_length_b       12.1331
_cell_length_c       13.3182
_cell_angle_alpha    111.951
_cell_angle_beta     104.938
_cell_angle_gamma    91.576

_symmetry_space_group_name_H-M    "P 1"
_symmetry_Int_Tables_number       1

loop_
  _symmetry_equiv_pos_as_xyz
  'x, y, z'

loop_
  _atom_site_type_symbol
  _atom_site_label
  _atom_site_symmetry_multiplicity
  _atom_site_fract_x
  _atom_site_fract_y
  _atom_site_fract_z
  _atom_site_occupancy
  _atom_site_charge
Gd  Gd1       1.0  0.25130  0.01872  0.98942  1.0000 1.9915652951
Gd  Gd2       1.0  0.74870  0.98128  0.01058  1.0000 1.9915652951
H   H1        1.0  0.92350  0.84710  0.58430  1.0000 0.1118376037
H   H2        1.0  0.07650  0.15290  0.41570  1.0000 0.1118376037
H   H3        1.0  0.93210  0.72480  0.59870  1.0000 0.1194455331
H   H4        1.0  0.06790  0.27520  0.40130  1.0000 0.1194455331
H   H5        1.0  0.70850  0.88770  0.68520  1.0000 0.1587848284
H   H6        1.0  0.29150  0.11230  0.31480  1.0000 0.1587848284
H   H7        1.0  0.74400  0.77210  0.70960  1.0000 0.1587848284
H   H8        1.0  0.25600  0.22790  0.29040  1.0000 0.1587848284
H   H9        1.0  0.41370  0.89050  0.32650  1.0000 0.1194455331
H   H10       1.0  0.58630  0.10950  0.67350  1.0000 0.1194455331
H   H11       1.0  0.30990  0.77400  0.22360  1.0000 0.1118376037
H   H12       1.0  0.69010  0.22600  0.77640  1.0000 0.1118376037
H   H13       1.0  0.64730  0.87980  0.24860  1.0000 0.1587848284
H   H14       1.0  0.35270  0.12020  0.75140  1.0000 0.1587848284
H   H15       1.0  0.55180  0.75920  0.14820  1.0000 0.1587848284
H   H16       1.0  0.44820  0.24080  0.85180  1.0000 0.1587848284
H   H17       1.0  0.38610  0.39860  0.22970  1.0000 0.1029734691
H   H18       1.0  0.61390  0.60140  0.77030  1.0000 0.1029734691
H   H19       1.0  0.49670  0.38920  0.34160  1.0000 0.1118376037
H   H20       1.0  0.50330  0.61080  0.65840  1.0000 0.1118376037
H   H21       1.0  0.65240  0.40850  0.17990  1.0000 0.1587848284
H   H22       1.0  0.34760  0.59150  0.82010  1.0000 0.1587848284
H   H23       1.0  0.74910  0.38280  0.28550  1.0000 0.1587848284
H   H24       1.0  0.25090  0.61720  0.71450  1.0000 0.1587848284
C   C1        1.0  0.66380  0.60320  0.44480  1.0000 0.5426039776
C   C2        1.0  0.33620  0.39680  0.55520  1.0000 0.5426039776
C   C3        1.0  0.63600  0.79820  0.43300  1.0000 0.5426039776
C   C4        1.0  0.36400  0.20180  0.56700  1.0000 0.5426039776
C   C5        1.0  0.46710  0.61830  0.27750  1.0000 0.5426039776
C   C6        1.0  0.53290  0.38170  0.72250  1.0000 0.5426039776
C   C7        1.0  0.85560  0.78380  0.59080  1.0000 -0.0184084437
C   C8        1.0  0.14440  0.21620  0.40920  1.0000 -0.0184084437
C   C9        1.0  0.79660  0.83630  0.69600  1.0000 -0.3366090128
C   C10       1.0  0.20340  0.16370  0.30400  1.0000 -0.3366090128
C   C11       1.0  0.94920  0.90780  0.79650  1.0000 0.6803166946
C   C12       1.0  0.05080  0.09220  0.20350  1.0000 0.6803166946
C   C13       1.0  0.42620  0.81420  0.27150  1.0000 -0.0184084437
C   C14       1.0  0.57380  0.18580  0.72850  1.0000 -0.0184084437
C   C15       1.0  0.53330  0.83580  0.19990  1.0000 -0.3307978878
C   C16       1.0  0.46670  0.16420  0.80010  1.0000 -0.3307978878
C   C17       1.0  0.44420  0.90530  0.13310  1.0000 0.6992263576
C   C18       1.0  0.55580  0.09470  0.86690  1.0000 0.6992263576
C   C19       1.0  0.50060  0.42110  0.28520  1.0000 -0.0346259451
C   C20       1.0  0.49940  0.57890  0.71480  1.0000 -0.0346259451
C   C21       1.0  0.63790  0.36770  0.22790  1.0000 -0.3366090128
C   C22       1.0  0.36210  0.63230  0.77210  1.0000 -0.3366090128
C   C23       1.0  0.59510  0.23490  0.15740  1.0000 0.6992263576
C   C24       1.0  0.40490  0.76510  0.84260  1.0000 0.6992263576
N   N1        1.0  0.54130  0.55310  0.33990  1.0000 -0.2389061967
N   N2        1.0  0.45870  0.44690  0.66010  1.0000 -0.2389061967
N   N3        1.0  0.70990  0.72650  0.48650  1.0000 -0.2389061967
N   N4        1.0  0.29010  0.27350  0.51350  1.0000 -0.2389061967
N   N5        1.0  0.51070  0.74040  0.33060  1.0000 -0.2510004858
N   N6        1.0  0.48930  0.25960  0.66940  1.0000 -0.2510004858
O   O1        1.0  0.07690  0.95620  0.78540  1.0000 -0.5396538893
O   O2        1.0  0.92310  0.04380  0.21460  1.0000 -0.5396538893
O   O3        1.0  0.94520  0.91320  0.89460  1.0000 -0.766130499
O   O4        1.0  0.05480  0.08680  0.10540  1.0000 -0.766130499
O   O5        1.0  0.44390  0.18450  0.14010  1.0000 -0.6619978467
O   O6        1.0  0.55610  0.81550  0.85990  1.0000 -0.6619978467
O   O7        1.0  0.71520  0.18500  0.12000  1.0000 -0.6263666371
O   O8        1.0  0.28480  0.81500  0.88000  1.0000 -0.6263666371
O   O9        1.0  0.53200  0.94890  0.08620  1.0000 -0.7457150439
O   O10       1.0  0.46800  0.05110  0.91380  1.0000 -0.7457150439
O   O11       1.0  0.28590  0.91720  0.12190  1.0000 -0.5870978156
O   O12       1.0  0.71410  0.08280  0.87810  1.0000 -0.5870978156
O   O13       1.0  0.36730  0.56980  0.18350  1.0000 -0.4693504194
O   O14       1.0  0.63270  0.43020  0.81650  1.0000 -0.4693504194
O   O15       1.0  0.72780  0.54410  0.49610  1.0000 -0.4693504194
O   O16       1.0  0.27220  0.45590  0.50390  1.0000 -0.4693504194
O   O17       1.0  0.67820  0.90590  0.47460  1.0000 -0.45832584
O   O18       1.0  0.32180  0.09410  0.52540  1.0000 -0.45832584
O   O19       1.0  0.15100  0.19290  0.95950  1.0000 -0.260127745
O   O20       1.0  0.84900  0.80710  0.04050  1.0000 -0.260127745
O   O21       1.0  0.00210  0.34310  0.11570  1.0000 -0.2918148557
O   O22       1.0  0.99790  0.65690  0.88430  1.0000 -0.2918148557
O   O23       1.0  0.07400  0.27080  0.00540  1.0000 0.3519696822
O   O24       1.0  0.92600  0.72920  0.99460  1.0000 0.3519696822
