# DDEC6 charges by PACMAN v1.1 (https://github.com/mtap-research/PACMAN-charge/)
data_2009[Gd][pts]3[FSR]1
_chemical_formula_sum              "Gd4 H24 C30 N12 O32"
_cell_length_a       10.577
_cell_length_b       10.577
_cell_length_c       14.7681
_cell_angle_alpha    89.4024
_cell_angle_beta     90.5976
_cell_angle_gamma    74.2457

_symmetry_space_group_name_H-M    "P 1"
_symmetry_Int_Tables_number       1

loop_
  _symmetry_equiv_pos_as_xyz
  'x, y, z'

loop_
  _atom_site_type_symbol
  _atom_site_label
  _atom_site_symmetry_multiplicity
  _atom_site_fract_x
  _atom_site_fract_y
  _atom_site_fract_z
  _atom_site_occupancy
  _atom_site_charge
Gd  Gd1       1.0  0.32477  0.07261  0.94254  1.0000 1.9792164702
Gd  Gd2       1.0  0.07261  0.32477  0.55746  1.0000 1.9792164702
Gd  Gd3       1.0  0.67523  0.92739  0.05746  1.0000 1.9792164702
Gd  Gd4       1.0  0.92739  0.67523  0.44254  1.0000 1.9792164702
H   H1        1.0  0.03910  0.82510  0.15940  1.0000 0.1514623005
H   H2        1.0  0.82510  0.03910  0.34060  1.0000 0.1514623005
H   H3        1.0  0.96090  0.17490  0.84060  1.0000 0.1514623005
H   H4        1.0  0.17490  0.96090  0.65940  1.0000 0.1514623005
H   H5        1.0  0.15540  0.69720  0.16950  1.0000 0.1394103829
H   H6        1.0  0.69720  0.15540  0.33050  1.0000 0.1394103829
H   H7        1.0  0.84460  0.30280  0.83050  1.0000 0.1394103829
H   H8        1.0  0.30280  0.84460  0.66950  1.0000 0.1394103829
H   H9        1.0  0.38550  0.82350  0.25290  1.0000 0.1577552564
H   H10       1.0  0.82350  0.38550  0.24710  1.0000 0.1577552564
H   H11       1.0  0.61450  0.17650  0.74710  1.0000 0.1577552564
H   H12       1.0  0.17650  0.61450  0.75290  1.0000 0.1577552564
H   H13       1.0  0.35940  0.70640  0.19900  1.0000 0.1394103829
H   H14       1.0  0.70640  0.35940  0.30100  1.0000 0.1394103829
H   H15       1.0  0.64060  0.29360  0.80100  1.0000 0.1394103829
H   H16       1.0  0.29360  0.64060  0.69900  1.0000 0.1394103829
H   H17       1.0  0.43820  0.28960  0.21250  1.0000 0.1514623005
H   H18       1.0  0.28960  0.43820  0.28750  1.0000 0.1514623005
H   H19       1.0  0.56180  0.71040  0.78750  1.0000 0.1514623005
H   H20       1.0  0.71040  0.56180  0.71250  1.0000 0.1514623005
H   H21       1.0  0.44680  0.14560  0.24460  1.0000 0.1577552564
H   H22       1.0  0.14560  0.44680  0.25540  1.0000 0.1577552564
H   H23       1.0  0.55320  0.85440  0.75540  1.0000 0.1577552564
H   H24       1.0  0.85440  0.55320  0.74460  1.0000 0.1577552564
C   C1        1.0  0.15430  0.98590  0.23070  1.0000 0.4873831707
C   C2        1.0  0.98590  0.15430  0.26930  1.0000 0.4873831707
C   C3        1.0  0.84570  0.01410  0.76930  1.0000 0.4873831707
C   C4        1.0  0.01410  0.84570  0.73070  1.0000 0.4873831707
C   C5        1.0  0.18580  0.18580  0.25000  1.0000 0.4759016771
C   C6        1.0  0.81420  0.81420  0.75000  1.0000 0.4759016771
C   C7        1.0  0.11070  0.77830  0.19910  1.0000 -0.2336073753
C   C8        1.0  0.77830  0.11070  0.30090  1.0000 -0.2336073753
C   C9        1.0  0.88930  0.22170  0.80090  1.0000 -0.2336073753
C   C10       1.0  0.22170  0.88930  0.69910  1.0000 -0.2336073753
C   C11       1.0  0.05340  0.74440  0.28620  1.0000 0.5789854664
C   C12       1.0  0.74440  0.05340  0.21380  1.0000 0.5789854664
C   C13       1.0  0.94660  0.25560  0.71380  1.0000 0.5789854664
C   C14       1.0  0.25560  0.94660  0.78620  1.0000 0.5789854664
C   C15       1.0  0.34130  0.80130  0.20000  1.0000 -0.2418787454
C   C16       1.0  0.80130  0.34130  0.30000  1.0000 -0.2418787454
C   C17       1.0  0.65870  0.19870  0.80000  1.0000 -0.2418787454
C   C18       1.0  0.19870  0.65870  0.70000  1.0000 -0.2418787454
C   C19       1.0  0.40000  0.84640  0.11540  1.0000 0.7023816246
C   C20       1.0  0.84640  0.40000  0.38460  1.0000 0.7023816246
C   C21       1.0  0.60000  0.15360  0.88460  1.0000 0.7023816246
C   C22       1.0  0.15360  0.60000  0.61540  1.0000 0.7023816246
C   C23       1.0  0.39430  0.22030  0.21000  1.0000 -0.2336073753
C   C24       1.0  0.22030  0.39430  0.29000  1.0000 -0.2336073753
C   C25       1.0  0.60570  0.77970  0.79000  1.0000 -0.2336073753
C   C26       1.0  0.77970  0.60570  0.71000  1.0000 -0.2336073753
C   C27       1.0  0.38370  0.18050  0.11160  1.0000 0.6483120013
C   C28       1.0  0.18050  0.38370  0.38840  1.0000 0.6483120013
C   C29       1.0  0.61630  0.81950  0.88840  1.0000 0.6483120013
C   C30       1.0  0.81950  0.61630  0.61160  1.0000 0.6483120013
N   N1        1.0  0.02670  0.02670  0.25000  1.0000 -0.5066018861
N   N2        1.0  0.97330  0.97330  0.75000  1.0000 -0.5066018861
N   N3        1.0  0.24090  0.05910  0.23120  1.0000 -0.5197501045
N   N4        1.0  0.05910  0.24090  0.26880  1.0000 -0.5197501045
N   N5        1.0  0.75910  0.94090  0.76880  1.0000 -0.5197501045
N   N6        1.0  0.94090  0.75910  0.73120  1.0000 -0.5197501045
N   N7        1.0  0.20140  0.85700  0.20960  1.0000 -0.0764060926
N   N8        1.0  0.85700  0.20140  0.29040  1.0000 -0.0764060926
N   N9        1.0  0.79860  0.14300  0.79040  1.0000 -0.0764060926
N   N10       1.0  0.14300  0.79860  0.70960  1.0000 -0.0764060926
N   N11       1.0  0.26560  0.26560  0.25000  1.0000 -0.060131538
N   N12       1.0  0.73440  0.73440  0.75000  1.0000 -0.060131538
O   O1        1.0  0.95050  0.70430  0.28010  1.0000 -0.5343718838
O   O2        1.0  0.70430  0.95050  0.21990  1.0000 -0.5343718838
O   O3        1.0  0.04950  0.29570  0.71990  1.0000 -0.5343718838
O   O4        1.0  0.29570  0.04950  0.78010  1.0000 -0.5343718838
O   O5        1.0  0.10510  0.74910  0.36150  1.0000 -0.5658898216
O   O6        1.0  0.74910  0.10510  0.13850  1.0000 -0.5658898216
O   O7        1.0  0.89490  0.25090  0.63850  1.0000 -0.5658898216
O   O8        1.0  0.25090  0.89490  0.86150  1.0000 -0.5658898216
O   O9        1.0  0.32420  0.90740  0.05420  1.0000 -0.5827314319
O   O10       1.0  0.90740  0.32420  0.44580  1.0000 -0.5827314319
O   O11       1.0  0.67580  0.09260  0.94580  1.0000 -0.5827314319
O   O12       1.0  0.09260  0.67580  0.55420  1.0000 -0.5855076175
O   O13       1.0  0.52450  0.81770  0.11510  1.0000 -0.6378407937
O   O14       1.0  0.81770  0.52450  0.38490  1.0000 -0.6378407937
O   O15       1.0  0.47550  0.18230  0.88490  1.0000 -0.6378407937
O   O16       1.0  0.18230  0.47550  0.61510  1.0000 -0.6378407937
O   O17       1.0  0.28610  0.23630  0.06400  1.0000 -0.5426957172
O   O18       1.0  0.23630  0.28610  0.43600  1.0000 -0.5426957172
O   O19       1.0  0.71390  0.76370  0.93600  1.0000 -0.5426957172
O   O20       1.0  0.76370  0.71390  0.56400  1.0000 -0.5426957172
O   O21       1.0  0.47600  0.09020  0.07900  1.0000 -0.7170376938
O   O22       1.0  0.09020  0.47600  0.42100  1.0000 -0.7170376938
O   O23       1.0  0.52400  0.90980  0.92100  1.0000 -0.7170376938
O   O24       1.0  0.90980  0.52400  0.57900  1.0000 -0.7170376938
O   O25       1.0  0.18190  0.27510  0.88000  1.0000 -0.1916666638
O   O26       1.0  0.27510  0.18190  0.62000  1.0000 -0.1916666638
O   O27       1.0  0.81810  0.72490  0.12000  1.0000 -0.1916666638
O   O28       1.0  0.72490  0.81810  0.38000  1.0000 -0.1916666638
O   O29       1.0  0.10090  0.08330  0.99580  1.0000 -0.1699409943
O   O30       1.0  0.08330  0.10090  0.50420  1.0000 -0.1699409943
O   O31       1.0  0.89910  0.91670  0.00420  1.0000 -0.1699409943
O   O32       1.0  0.91670  0.89910  0.49580  1.0000 -0.1699409943
