# DDEC6 charges by PACMAN v1.1 (https://github.com/mtap-research/PACMAN-charge/)
data_2009[Cd][nan]3[FSR]6
_chemical_formula_sum              "Cd4 H40 C40 N24 O8"
_cell_length_a       12.0905
_cell_length_b       12.0905
_cell_length_c       19.3208
_cell_angle_alpha    66.7637
_cell_angle_beta     113.236
_cell_angle_gamma    142.84

_symmetry_space_group_name_H-M    "P 1"
_symmetry_Int_Tables_number       1

loop_
  _symmetry_equiv_pos_as_xyz
  'x, y, z'

loop_
  _atom_site_type_symbol
  _atom_site_label
  _atom_site_symmetry_multiplicity
  _atom_site_fract_x
  _atom_site_fract_y
  _atom_site_fract_z
  _atom_site_occupancy
  _atom_site_charge
Cd  Cd1       1.0  0.46822  0.96338  0.72751  1.0000 0.769058288
Cd  Cd2       1.0  0.96338  0.46822  0.77249  1.0000 0.769058288
Cd  Cd3       1.0  0.53178  0.03662  0.27249  1.0000 0.769058288
Cd  Cd4       1.0  0.03662  0.53178  0.22751  1.0000 0.769058288
H   H1        1.0  0.38840  0.88400  0.89020  1.0000 0.0998578452
H   H2        1.0  0.88400  0.38840  0.60980  1.0000 0.0998578452
H   H3        1.0  0.61160  0.11600  0.10980  1.0000 0.0998578452
H   H4        1.0  0.11600  0.61160  0.39020  1.0000 0.0998578452
H   H5        1.0  0.79580  0.30240  0.01510  1.0000 0.1189479464
H   H6        1.0  0.30240  0.79580  0.48490  1.0000 0.1189479464
H   H7        1.0  0.20420  0.69760  0.98490  1.0000 0.1189479464
H   H8        1.0  0.69760  0.20420  0.51510  1.0000 0.1189479464
H   H9        1.0  0.38640  0.15020  0.56090  1.0000 0.1189479464
H   H10       1.0  0.15020  0.38640  0.93910  1.0000 0.1189479464
H   H11       1.0  0.61360  0.84980  0.43910  1.0000 0.1189479464
H   H12       1.0  0.84980  0.61360  0.06090  1.0000 0.1189479464
H   H13       1.0  0.85500  0.65580  0.61060  1.0000 0.1189479464
H   H14       1.0  0.65580  0.85500  0.88940  1.0000 0.1189479464
H   H15       1.0  0.14500  0.34420  0.38940  1.0000 0.1189479464
H   H16       1.0  0.34420  0.14500  0.11060  1.0000 0.1189479464
H   H17       1.0  0.67050  0.62970  0.47270  1.0000 0.0998578452
H   H18       1.0  0.62970  0.67050  0.02730  1.0000 0.0998578452
H   H19       1.0  0.32950  0.37030  0.52730  1.0000 0.0998578452
H   H20       1.0  0.37030  0.32950  0.97270  1.0000 0.0998578452
H   H21       1.0  0.48700  0.42660  0.45080  1.0000 0.0998578452
H   H22       1.0  0.42660  0.48700  0.04920  1.0000 0.0998578452
H   H23       1.0  0.51300  0.57340  0.54920  1.0000 0.0998578452
H   H24       1.0  0.57340  0.51300  0.95080  1.0000 0.0998578452
H   H25       1.0  0.67180  0.88940  0.70370  1.0000 0.1189479464
H   H26       1.0  0.88940  0.67180  0.79630  1.0000 0.1189479464
H   H27       1.0  0.32820  0.11060  0.29630  1.0000 0.1189479464
H   H28       1.0  0.11060  0.32820  0.20370  1.0000 0.1189479464
H   H29       1.0  0.16720  0.38660  0.74950  1.0000 0.1189479464
H   H30       1.0  0.38660  0.16720  0.75050  1.0000 0.1189479464
H   H31       1.0  0.83280  0.61340  0.25050  1.0000 0.1189479464
H   H32       1.0  0.61340  0.83280  0.24950  1.0000 0.1189479464
H   H33       1.0  0.94020  0.98860  0.68020  1.0000 0.0998578452
H   H34       1.0  0.98860  0.94020  0.81980  1.0000 0.0998578452
H   H35       1.0  0.05980  0.01140  0.31980  1.0000 0.0998578452
H   H36       1.0  0.01140  0.05980  0.18020  1.0000 0.0998578452
H   H37       1.0  0.13920  0.19900  0.68510  1.0000 0.0998578452
H   H38       1.0  0.19900  0.13920  0.81490  1.0000 0.0998578452
H   H39       1.0  0.86080  0.80100  0.31490  1.0000 0.0998578452
H   H40       1.0  0.80100  0.86080  0.18510  1.0000 0.0998578452
C   C1        1.0  0.73071  0.23329  0.88164  1.0000 0.5288510331
C   C2        1.0  0.23329  0.73071  0.61836  1.0000 0.5288510331
C   C3        1.0  0.26929  0.76671  0.11836  1.0000 0.5288510331
C   C4        1.0  0.76671  0.26929  0.38164  1.0000 0.5288510331
C   C5        1.0  0.61138  0.11282  0.94270  1.0000 -0.0296566869
C   C6        1.0  0.11282  0.61138  0.55730  1.0000 -0.0296566869
C   C7        1.0  0.38862  0.88718  0.05730  1.0000 -0.0296566869
C   C8        1.0  0.88718  0.38862  0.44270  1.0000 -0.0296566869
C   C9        1.0  0.43380  0.93120  0.93480  1.0000 -0.1466781042
C   C10       1.0  0.93120  0.43380  0.56520  1.0000 -0.1466781042
C   C11       1.0  0.56620  0.06880  0.06520  1.0000 -0.1466781042
C   C12       1.0  0.06880  0.56620  0.43480  1.0000 -0.1466781042
C   C13       1.0  0.67640  0.18040  0.00875  1.0000 -0.1406004905
C   C14       1.0  0.18040  0.67640  0.49125  1.0000 -0.1406004905
C   C15       1.0  0.32360  0.81960  0.99125  1.0000 -0.1406004905
C   C16       1.0  0.81960  0.32360  0.50875  1.0000 -0.1406004905
C   C17       1.0  0.50047  0.25033  0.58640  1.0000 0.0435273843
C   C18       1.0  0.25033  0.50047  0.91360  1.0000 0.0435273843
C   C19       1.0  0.49953  0.74967  0.41360  1.0000 0.0435273843
C   C20       1.0  0.74967  0.49953  0.08640  1.0000 0.0435273843
C   C21       1.0  0.75610  0.52630  0.61350  1.0000 0.0329187819
C   C22       1.0  0.52630  0.75610  0.88650  1.0000 0.0329187819
C   C23       1.0  0.24390  0.47370  0.38650  1.0000 0.0329187819
C   C24       1.0  0.47370  0.24390  0.11350  1.0000 0.0329187819
C   C25       1.0  0.55730  0.50230  0.49090  1.0000 -0.1564367908
C   C26       1.0  0.50230  0.55730  0.00910  1.0000 -0.1564367908
C   C27       1.0  0.44270  0.49770  0.50910  1.0000 -0.1564367908
C   C28       1.0  0.49770  0.44270  0.99090  1.0000 -0.1564367908
C   C29       1.0  0.76860  0.00820  0.71770  1.0000 0.0505457101
C   C30       1.0  0.00820  0.76860  0.78230  1.0000 0.0505457101
C   C31       1.0  0.23140  0.99180  0.28230  1.0000 0.0505457101
C   C32       1.0  0.99180  0.23140  0.21770  1.0000 0.0505457101
C   C33       1.0  0.03802  0.27878  0.74250  1.0000 0.0505457101
C   C34       1.0  0.27878  0.03802  0.75750  1.0000 0.0505457101
C   C35       1.0  0.96198  0.72122  0.25750  1.0000 0.0505457101
C   C36       1.0  0.72122  0.96198  0.24250  1.0000 0.0505457101
C   C37       1.0  0.03110  0.08790  0.71150  1.0000 -0.1564367908
C   C38       1.0  0.08790  0.03110  0.78850  1.0000 -0.1564367908
C   C39       1.0  0.96890  0.91210  0.28850  1.0000 -0.1564367908
C   C40       1.0  0.91210  0.96890  0.21150  1.0000 -0.1564367908
N   N1        1.0  0.58117  0.23683  0.65176  1.0000 -0.2009743406
N   N2        1.0  0.23683  0.58117  0.84824  1.0000 -0.2009743406
N   N3        1.0  0.41883  0.76317  0.34824  1.0000 -0.2009743406
N   N4        1.0  0.76317  0.41883  0.15176  1.0000 -0.2009743406
N   N5        1.0  0.74471  0.41349  0.66923  1.0000 -0.2052365831
N   N6        1.0  0.41349  0.74471  0.83077  1.0000 -0.2052365831
N   N7        1.0  0.25529  0.58651  0.33077  1.0000 -0.2052365831
N   N8        1.0  0.58651  0.25529  0.16923  1.0000 -0.2052365831
N   N9        1.0  0.60493  0.42967  0.56055  1.0000 0.0073781299
N   N10       1.0  0.42967  0.60493  0.93945  1.0000 0.0073781299
N   N11       1.0  0.39507  0.57033  0.43945  1.0000 0.0073781299
N   N12       1.0  0.57033  0.39507  0.06055  1.0000 0.0073781299
N   N13       1.0  0.74659  0.08301  0.73489  1.0000 -0.2009743406
N   N14       1.0  0.08301  0.74659  0.76511  1.0000 -0.2009743406
N   N15       1.0  0.25341  0.91699  0.26511  1.0000 -0.2009743406
N   N16       1.0  0.91699  0.25341  0.23489  1.0000 -0.2009743406
N   N17       1.0  0.91979  0.25721  0.75070  1.0000 -0.2009743406
N   N18       1.0  0.25721  0.91979  0.74930  1.0000 -0.2009743406
N   N19       1.0  0.08021  0.74279  0.24930  1.0000 -0.2009743406
N   N20       1.0  0.74279  0.08021  0.25070  1.0000 -0.2009743406
N   N21       1.0  0.95021  0.12559  0.72270  1.0000 0.0073781299
N   N22       1.0  0.12559  0.95021  0.77730  1.0000 0.0073781299
N   N23       1.0  0.04979  0.87441  0.27730  1.0000 0.0073781299
N   N24       1.0  0.87441  0.04979  0.22270  1.0000 0.0073781299
O   O1        1.0  0.67040  0.16940  0.82224  1.0000 -0.5897843382
O   O2        1.0  0.16940  0.67040  0.67776  1.0000 -0.5897843382
O   O3        1.0  0.32960  0.83060  0.17776  1.0000 -0.5897843382
O   O4        1.0  0.83060  0.32960  0.32224  1.0000 -0.5897843382
O   O5        1.0  0.88655  0.39505  0.88985  1.0000 -0.5564793191
O   O6        1.0  0.39505  0.88655  0.61015  1.0000 -0.5564793191
O   O7        1.0  0.11345  0.60495  0.11015  1.0000 -0.5564793191
O   O8        1.0  0.60495  0.11345  0.38985  1.0000 -0.5564793191
