# DDEC6 charges by PACMAN v1.1 (https://github.com/mtap-research/PACMAN-charge/)
data_2009[AgDy][nan]3[FSR]1
_chemical_formula_sum              "Dy4 Ag4 H32 C56 N8 O32"
_cell_length_a       9.1262
_cell_length_b       22.2733
_cell_length_c       9.6798
_cell_angle_alpha    90
_cell_angle_beta     117.872
_cell_angle_gamma    90

_symmetry_space_group_name_H-M    "P 1"
_symmetry_Int_Tables_number       1

loop_
  _symmetry_equiv_pos_as_xyz
  'x, y, z'

loop_
  _atom_site_type_symbol
  _atom_site_label
  _atom_site_symmetry_multiplicity
  _atom_site_fract_x
  _atom_site_fract_y
  _atom_site_fract_z
  _atom_site_occupancy
  _atom_site_charge
Dy  Dy1       1.0  0.61898  0.00833  0.35499  1.0000 2.0574413983
Dy  Dy2       1.0  0.88102  0.50833  0.64501  1.0000 2.0574413983
Dy  Dy3       1.0  0.38102  0.99167  0.64501  1.0000 2.0574413983
Dy  Dy4       1.0  0.11898  0.49167  0.35499  1.0000 2.0574413983
Ag  Ag1       1.0  0.01259  0.85187  0.68019  1.0000 0.3344907907
Ag  Ag2       1.0  0.48741  0.35187  0.31981  1.0000 0.3344907907
Ag  Ag3       1.0  0.98741  0.14813  0.31981  1.0000 0.3344907907
Ag  Ag4       1.0  0.51259  0.64813  0.68019  1.0000 0.3344907907
H   H1        1.0  0.94470  0.92830  0.22650  1.0000 0.1296147354
H   H2        1.0  0.55530  0.42830  0.77350  1.0000 0.1296147354
H   H3        1.0  0.05530  0.07170  0.77350  1.0000 0.1296147354
H   H4        1.0  0.44470  0.57170  0.22650  1.0000 0.1296147354
H   H5        1.0  0.74500  0.86830  0.03670  1.0000 0.144753441
H   H6        1.0  0.75500  0.36830  0.96330  1.0000 0.144753441
H   H7        1.0  0.25500  0.13170  0.96330  1.0000 0.144753441
H   H8        1.0  0.24500  0.63170  0.03670  1.0000 0.144753441
H   H9        1.0  0.77640  0.84050  0.82360  1.0000 0.0980464925
H   H10       1.0  0.72360  0.34050  0.17640  1.0000 0.0980464925
H   H11       1.0  0.22360  0.15950  0.17640  1.0000 0.0980464925
H   H12       1.0  0.27640  0.65950  0.82360  1.0000 0.0980464925
H   H13       1.0  0.18330  0.93430  0.97210  1.0000 0.1296147354
H   H14       1.0  0.31670  0.43430  0.02790  1.0000 0.1296147354
H   H15       1.0  0.81670  0.06570  0.02790  1.0000 0.1296147354
H   H16       1.0  0.68330  0.56570  0.97210  1.0000 0.1296147354
H   H17       1.0  0.98700  0.71650  0.63940  1.0000 0.1078730596
H   H18       1.0  0.51300  0.21650  0.36060  1.0000 0.1078730596
H   H19       1.0  0.01300  0.28350  0.36060  1.0000 0.1078730596
H   H20       1.0  0.48700  0.78350  0.63940  1.0000 0.1078730596
H   H21       1.0  0.10180  0.66000  0.30970  1.0000 0.1501160858
H   H22       1.0  0.39820  0.16000  0.69030  1.0000 0.1501160858
H   H23       1.0  0.89820  0.34000  0.69030  1.0000 0.1501160858
H   H24       1.0  0.60180  0.84000  0.30970  1.0000 0.1501160858
H   H25       1.0  0.13830  0.75990  0.26330  1.0000 0.1296147354
H   H26       1.0  0.36170  0.25990  0.73670  1.0000 0.1296147354
H   H27       1.0  0.86170  0.24010  0.73670  1.0000 0.1296147354
H   H28       1.0  0.63830  0.74010  0.26330  1.0000 0.1296147354
H   H29       1.0  0.10970  0.83370  0.41290  1.0000 0.1175522057
H   H30       1.0  0.39030  0.33370  0.58710  1.0000 0.1175522057
H   H31       1.0  0.89030  0.16630  0.58710  1.0000 0.1175522057
H   H32       1.0  0.60970  0.66630  0.41290  1.0000 0.1175522057
C   C1        1.0  0.22390  0.97420  0.24520  1.0000 0.6298103181
C   C2        1.0  0.27610  0.47420  0.75480  1.0000 0.6298103181
C   C3        1.0  0.77610  0.02580  0.75480  1.0000 0.6298103181
C   C4        1.0  0.72390  0.52580  0.24520  1.0000 0.6298103181
C   C5        1.0  0.08750  0.93750  0.11930  1.0000 -0.0601670707
C   C6        1.0  0.41250  0.43750  0.88070  1.0000 -0.0601670707
C   C7        1.0  0.91250  0.06250  0.88070  1.0000 -0.0601670707
C   C8        1.0  0.58750  0.56250  0.11930  1.0000 -0.0601670707
C   C9        1.0  0.95410  0.91750  0.13820  1.0000 -0.0601670707
C   C10       1.0  0.54590  0.41750  0.86180  1.0000 -0.0601670707
C   C11       1.0  0.04590  0.08250  0.86180  1.0000 -0.0601670707
C   C12       1.0  0.45410  0.58250  0.13820  1.0000 -0.0601670707
C   C13       1.0  0.83600  0.88160  0.02630  1.0000 -0.1130976978
C   C14       1.0  0.66400  0.38160  0.97370  1.0000 -0.1130976978
C   C15       1.0  0.16400  0.11840  0.97370  1.0000 -0.1130976978
C   C16       1.0  0.33600  0.61840  0.02630  1.0000 -0.1130976978
C   C17       1.0  0.85500  0.86560  0.89830  1.0000 0.0692265106
C   C18       1.0  0.64500  0.36560  0.10170  1.0000 0.0692265106
C   C19       1.0  0.14500  0.13440  0.10170  1.0000 0.0692265106
C   C20       1.0  0.35500  0.63440  0.89830  1.0000 0.0692265106
C   C21       1.0  0.09540  0.92050  0.98660  1.0000 0.0484503058
C   C22       1.0  0.40460  0.42050  0.01340  1.0000 0.0484503058
C   C23       1.0  0.90460  0.07950  0.01340  1.0000 0.0484503058
C   C24       1.0  0.59540  0.57950  0.98660  1.0000 0.0484503058
C   C25       1.0  0.01930  0.72500  0.56350  1.0000 0.0286898164
C   C26       1.0  0.48070  0.22500  0.43650  1.0000 0.0286898164
C   C27       1.0  0.98070  0.27500  0.43650  1.0000 0.0286898164
C   C28       1.0  0.51930  0.77500  0.56350  1.0000 0.0286898164
C   C29       1.0  0.03970  0.67750  0.48110  1.0000 -0.0791807773
C   C30       1.0  0.46030  0.17750  0.51890  1.0000 -0.0791807773
C   C31       1.0  0.96030  0.32250  0.51890  1.0000 -0.0791807773
C   C32       1.0  0.53970  0.82250  0.48110  1.0000 -0.0791807773
C   C33       1.0  0.08640  0.69050  0.36710  1.0000 -0.0455281215
C   C34       1.0  0.41360  0.19050  0.63290  1.0000 -0.0455281215
C   C35       1.0  0.91360  0.30950  0.63290  1.0000 -0.0455281215
C   C36       1.0  0.58640  0.80950  0.36710  1.0000 -0.0455281215
C   C37       1.0  0.10960  0.74990  0.34080  1.0000 -0.1464559289
C   C38       1.0  0.39040  0.24990  0.65920  1.0000 -0.1464559289
C   C39       1.0  0.89040  0.25010  0.65920  1.0000 -0.1464559289
C   C40       1.0  0.60960  0.75010  0.34080  1.0000 -0.1464559289
C   C41       1.0  0.09010  0.79410  0.42950  1.0000 0.0692265106
C   C42       1.0  0.40990  0.29410  0.57050  1.0000 0.0692265106
C   C43       1.0  0.90990  0.20590  0.57050  1.0000 0.0692265106
C   C44       1.0  0.59010  0.70590  0.42950  1.0000 0.0692265106
C   C45       1.0  0.00980  0.61490  0.51710  1.0000 0.6120449451
C   C46       1.0  0.49020  0.11490  0.48290  1.0000 0.6120449451
C   C47       1.0  0.99020  0.38510  0.48290  1.0000 0.6120449451
C   C48       1.0  0.50980  0.88510  0.51710  1.0000 0.6120449451
C   C49       1.0  0.50850  0.96550  0.00820  1.0000 0.4807202963
C   C50       1.0  0.99150  0.46550  0.99180  1.0000 0.4807202963
C   C51       1.0  0.49150  0.03450  0.99180  1.0000 0.4807202963
C   C52       1.0  0.00850  0.53450  0.00820  1.0000 0.4807202963
C   C53       1.0  0.99840  0.96680  0.52090  1.0000 0.4807202963
C   C54       1.0  0.50160  0.46680  0.47910  1.0000 0.4807202963
C   C55       1.0  0.00160  0.03320  0.47910  1.0000 0.4807202963
C   C56       1.0  0.49840  0.53320  0.52090  1.0000 0.4807202963
N   N1        1.0  0.98150  0.88467  0.87650  1.0000 -0.1840767173
N   N2        1.0  0.51850  0.38467  0.12350  1.0000 -0.1840767173
N   N3        1.0  0.01850  0.11533  0.12350  1.0000 -0.1840767173
N   N4        1.0  0.48150  0.61533  0.87650  1.0000 -0.1840767173
N   N5        1.0  0.04380  0.78229  0.53940  1.0000 -0.1840767173
N   N6        1.0  0.45620  0.28229  0.46060  1.0000 -0.1840767173
N   N7        1.0  0.95620  0.21771  0.46060  1.0000 -0.1840767173
N   N8        1.0  0.54380  0.71771  0.53940  1.0000 -0.1840767173
O   O1        1.0  0.32710  0.99864  0.21200  1.0000 -0.6494064482
O   O2        1.0  0.17290  0.49864  0.78800  1.0000 -0.6494064482
O   O3        1.0  0.67290  0.00136  0.78800  1.0000 -0.6494064482
O   O4        1.0  0.82710  0.50136  0.21200  1.0000 -0.6494064482
O   O5        1.0  0.22240  0.97555  0.37310  1.0000 -0.6494064482
O   O6        1.0  0.27760  0.47555  0.62690  1.0000 -0.6494064482
O   O7        1.0  0.77760  0.02445  0.62690  1.0000 -0.6494064482
O   O8        1.0  0.72240  0.52445  0.37310  1.0000 -0.6494064482
O   O9        1.0  0.94820  0.60749  0.60790  1.0000 -0.621863574
O   O10       1.0  0.55180  0.10749  0.39210  1.0000 -0.621863574
O   O11       1.0  0.05180  0.39251  0.39210  1.0000 -0.621863574
O   O12       1.0  0.44820  0.89251  0.60790  1.0000 -0.621863574
O   O13       1.0  0.04780  0.57281  0.45370  1.0000 -0.6831934007
O   O14       1.0  0.45220  0.07281  0.54630  1.0000 -0.6831934007
O   O15       1.0  0.95220  0.42719  0.54630  1.0000 -0.6831934007
O   O16       1.0  0.54780  0.92719  0.45370  1.0000 -0.6831934007
O   O17       1.0  0.13370  0.94360  0.61560  1.0000 -0.575987384
O   O18       1.0  0.36630  0.44360  0.38440  1.0000 -0.575987384
O   O19       1.0  0.86630  0.05640  0.38440  1.0000 -0.575987384
O   O20       1.0  0.63370  0.55640  0.61560  1.0000 -0.575987384
O   O21       1.0  0.86070  0.94094  0.45750  1.0000 -0.5725177082
O   O22       1.0  0.63930  0.44094  0.54250  1.0000 -0.5725177082
O   O23       1.0  0.13930  0.05906  0.54250  1.0000 -0.5725177082
O   O24       1.0  0.36070  0.55906  0.45750  1.0000 -0.5725177082
O   O25       1.0  0.57850  0.94446  0.14350  1.0000 -0.6033269914
O   O26       1.0  0.92150  0.44446  0.85650  1.0000 -0.6033269914
O   O27       1.0  0.42150  0.05554  0.85650  1.0000 -0.6033269914
O   O28       1.0  0.07850  0.55554  0.14350  1.0000 -0.6033269914
O   O29       1.0  0.45050  0.93628  0.88270  1.0000 -0.589554623
O   O30       1.0  0.04950  0.43628  0.11730  1.0000 -0.589554623
O   O31       1.0  0.54950  0.06372  0.11730  1.0000 -0.589554623
O   O32       1.0  0.95050  0.56372  0.88270  1.0000 -0.589554623
