# DDEC6 charges by PACMAN v1.1 (https://github.com/mtap-research/PACMAN-charge/)
data_2009[TbAg][nan]3[FSR]1
_chemical_formula_sum              "Tb4 Ag4 H32 C56 N8 O32"
_cell_length_a       9.099
_cell_length_b       22.299
_cell_length_c       9.6732
_cell_angle_alpha    90
_cell_angle_beta     117.874
_cell_angle_gamma    90

_symmetry_space_group_name_H-M    "P 1"
_symmetry_Int_Tables_number       1

loop_
  _symmetry_equiv_pos_as_xyz
  'x, y, z'

loop_
  _atom_site_type_symbol
  _atom_site_label
  _atom_site_symmetry_multiplicity
  _atom_site_fract_x
  _atom_site_fract_y
  _atom_site_fract_z
  _atom_site_occupancy
  _atom_site_charge
Tb  Tb1       1.0  0.35588  0.00853  0.11751  1.0000 2.0330082792
Tb  Tb2       1.0  0.64412  0.50853  0.38249  1.0000 2.0330082792
Tb  Tb3       1.0  0.64412  0.99147  0.88249  1.0000 2.0330082792
Tb  Tb4       1.0  0.35588  0.49147  0.61751  1.0000 2.0330082792
Ag  Ag1       1.0  0.32053  0.35157  0.98093  1.0000 0.3186619077
Ag  Ag2       1.0  0.67947  0.85157  0.51907  1.0000 0.3186619077
Ag  Ag3       1.0  0.67947  0.64843  0.01907  1.0000 0.3186619077
Ag  Ag4       1.0  0.32053  0.14843  0.48093  1.0000 0.3186619077
H   H1        1.0  0.59880  0.33200  0.89530  1.0000 0.1125115994
H   H2        1.0  0.40120  0.83200  0.60470  1.0000 0.1125115994
H   H3        1.0  0.40120  0.66800  0.10470  1.0000 0.1125115994
H   H4        1.0  0.59880  0.16800  0.39530  1.0000 0.1125115994
H   H5        1.0  0.74970  0.25680  0.86840  1.0000 0.1339602042
H   H6        1.0  0.25030  0.75680  0.63160  1.0000 0.1339602042
H   H7        1.0  0.25030  0.74320  0.13160  1.0000 0.1339602042
H   H8        1.0  0.74970  0.24320  0.36840  1.0000 0.1339602042
H   H9        1.0  0.69400  0.15850  0.89910  1.0000 0.1468421686
H   H10       1.0  0.30600  0.65850  0.60090  1.0000 0.1468421686
H   H11       1.0  0.30600  0.84150  0.10090  1.0000 0.1468421686
H   H12       1.0  0.69400  0.34150  0.39910  1.0000 0.1468421686
H   H13       1.0  0.35910  0.21760  0.01230  1.0000 0.1125115994
H   H14       1.0  0.64090  0.71760  0.48770  1.0000 0.1125115994
H   H15       1.0  0.64090  0.78240  0.98770  1.0000 0.1125115994
H   H16       1.0  0.35910  0.28240  0.51230  1.0000 0.1125115994
H   H17       1.0  0.81660  0.83740  0.28560  1.0000 0.1006400008
H   H18       1.0  0.18340  0.33740  0.21440  1.0000 0.1006400008
H   H19       1.0  0.18340  0.16260  0.71440  1.0000 0.1006400008
H   H20       1.0  0.81660  0.66260  0.78560  1.0000 0.1006400008
H   H21       1.0  0.03270  0.86750  0.24830  1.0000 0.139485063
H   H22       1.0  0.96730  0.36750  0.25170  1.0000 0.139485063
H   H23       1.0  0.96730  0.13250  0.75170  1.0000 0.139485063
H   H24       1.0  0.03270  0.63250  0.74830  1.0000 0.139485063
H   H25       1.0  0.22910  0.92790  0.44440  1.0000 0.1223290209
H   H26       1.0  0.77090  0.42790  0.05560  1.0000 0.1223290209
H   H27       1.0  0.77090  0.07210  0.55560  1.0000 0.1223290209
H   H28       1.0  0.22910  0.57210  0.94440  1.0000 0.1223290209
H   H29       1.0  0.96670  0.93280  0.67750  1.0000 0.1223290209
H   H30       1.0  0.03330  0.43280  0.82250  1.0000 0.1223290209
H   H31       1.0  0.03330  0.06720  0.32250  1.0000 0.1223290209
H   H32       1.0  0.96670  0.56720  0.17750  1.0000 0.1223290209
C   C1        1.0  0.57810  0.29270  0.91320  1.0000 0.084493624
C   C2        1.0  0.42190  0.79270  0.58680  1.0000 0.084493624
C   C3        1.0  0.42190  0.70730  0.08680  1.0000 0.084493624
C   C4        1.0  0.57810  0.20730  0.41320  1.0000 0.084493624
C   C5        1.0  0.66667  0.24790  0.89540  1.0000 -0.1739137676
C   C6        1.0  0.33340  0.74790  0.60460  1.0000 -0.1739137676
C   C7        1.0  0.33340  0.75210  0.10460  1.0000 -0.1739137676
C   C8        1.0  0.66667  0.25210  0.39540  1.0000 -0.1739137676
C   C9        1.0  0.63600  0.18940  0.91660  1.0000 -0.0598409809
C   C10       1.0  0.36400  0.68940  0.58340  1.0000 -0.0598409809
C   C11       1.0  0.36400  0.81060  0.08340  1.0000 -0.0598409809
C   C12       1.0  0.63600  0.31060  0.41660  1.0000 -0.0598409809
C   C13       1.0  0.52130  0.17720  0.96300  1.0000 -0.0598409809
C   C14       1.0  0.47870  0.67720  0.53700  1.0000 -0.0598409809
C   C15       1.0  0.47870  0.82280  0.03700  1.0000 -0.0598409809
C   C16       1.0  0.52130  0.32280  0.46300  1.0000 -0.0598409809
C   C17       1.0  0.43920  0.22510  0.98030  1.0000 -0.0057134199
C   C18       1.0  0.56080  0.72510  0.51970  1.0000 -0.0057134199
C   C19       1.0  0.56080  0.77490  0.01970  1.0000 -0.0057134199
C   C20       1.0  0.43920  0.27490  0.48030  1.0000 -0.0057134199
C   C21       1.0  0.48170  0.11480  0.99220  1.0000 0.60721636
C   C22       1.0  0.51830  0.61480  0.50780  1.0000 0.60721636
C   C23       1.0  0.51830  0.88520  0.00780  1.0000 0.60721636
C   C24       1.0  0.48170  0.38520  0.49220  1.0000 0.60721636
C   C25       1.0  0.89610  0.86300  0.35790  1.0000 0.016124112
C   C26       1.0  0.10390  0.36300  0.14210  1.0000 0.016124112
C   C27       1.0  0.10390  0.13700  0.64210  1.0000 0.016124112
C   C28       1.0  0.89610  0.63700  0.85790  1.0000 0.016124112
C   C29       1.0  0.02140  0.87930  0.33500  1.0000 -0.1042183619
C   C30       1.0  0.97860  0.37930  0.16500  1.0000 -0.1042183619
C   C31       1.0  0.97860  0.12070  0.66500  1.0000 -0.1042183619
C   C32       1.0  0.02140  0.62070  0.83500  1.0000 -0.1042183619
C   C33       1.0  0.13540  0.91580  0.45200  1.0000 -0.0797528466
C   C34       1.0  0.86460  0.41580  0.04800  1.0000 -0.0797528466
C   C35       1.0  0.86460  0.08420  0.54800  1.0000 -0.0797528466
C   C36       1.0  0.13540  0.58420  0.95200  1.0000 -0.0797528466
C   C37       1.0  0.11730  0.93580  0.58480  1.0000 -0.0797528466
C   C38       1.0  0.88270  0.43580  0.91520  1.0000 -0.0797528466
C   C39       1.0  0.88270  0.06420  0.41520  1.0000 -0.0797528466
C   C40       1.0  0.11730  0.56420  0.08480  1.0000 -0.0797528466
C   C41       1.0  0.98520  0.91930  0.59600  1.0000 0.0515520693
C   C42       1.0  0.01480  0.41930  0.90400  1.0000 0.0515520693
C   C43       1.0  0.01480  0.08070  0.40400  1.0000 0.0515520693
C   C44       1.0  0.98520  0.58070  0.09600  1.0000 0.0515520693
C   C45       1.0  0.24310  0.97320  0.71970  1.0000 0.6298716683
C   C46       1.0  0.75690  0.47320  0.78030  1.0000 0.6298716683
C   C47       1.0  0.75690  0.02680  0.28030  1.0000 0.6298716683
C   C48       1.0  0.24310  0.52680  0.21970  1.0000 0.6298716683
C   C49       1.0  0.48010  0.03320  0.50330  1.0000 0.4964782614
C   C50       1.0  0.51990  0.53320  0.99670  1.0000 0.4964782614
C   C51       1.0  0.51990  0.96680  0.49670  1.0000 0.4964782614
C   C52       1.0  0.48010  0.46680  0.00330  1.0000 0.4964782614
C   C53       1.0  0.99180  0.03460  0.99220  1.0000 0.4593450296
C   C54       1.0  0.00820  0.53460  0.50780  1.0000 0.4593450296
C   C55       1.0  0.00820  0.96540  0.00780  1.0000 0.4593450296
C   C56       1.0  0.99180  0.46540  0.49220  1.0000 0.4593450296
N   N1        1.0  0.46470  0.28210  0.95480  1.0000 -0.1780677755
N   N2        1.0  0.53530  0.78210  0.54520  1.0000 -0.1780677755
N   N3        1.0  0.53530  0.71790  0.04520  1.0000 -0.1780677755
N   N4        1.0  0.46470  0.21790  0.45480  1.0000 -0.1780677755
N   N5        1.0  0.87650  0.88210  0.48500  1.0000 -0.1780677755
N   N6        1.0  0.12350  0.38210  0.01500  1.0000 -0.1780677755
N   N7        1.0  0.12350  0.11790  0.51500  1.0000 -0.1780677755
N   N8        1.0  0.87650  0.61790  0.98500  1.0000 -0.1780677755
O   O1        1.0  0.54140  0.07209  0.95490  1.0000 -0.6597620379
O   O2        1.0  0.45860  0.57209  0.54510  1.0000 -0.6597620379
O   O3        1.0  0.45860  0.92791  0.04510  1.0000 -0.6597620379
O   O4        1.0  0.54140  0.42791  0.45490  1.0000 -0.6597620379
O   O5        1.0  0.39110  0.10909  0.05440  1.0000 -0.5887275916
O   O6        1.0  0.60890  0.60909  0.44560  1.0000 -0.5887275916
O   O7        1.0  0.60890  0.89091  0.94560  1.0000 -0.5887275916
O   O8        1.0  0.39110  0.39091  0.55440  1.0000 -0.5887275916
O   O9        1.0  0.21090  0.99849  0.82320  1.0000 -0.6691535395
O   O10       1.0  0.78910  0.49849  0.67680  1.0000 -0.6691535395
O   O11       1.0  0.78910  0.00151  0.17680  1.0000 -0.6691535395
O   O12       1.0  0.21090  0.50151  0.32320  1.0000 -0.6691535395
O   O13       1.0  0.37060  0.97500  0.71780  1.0000 -0.5887275916
O   O14       1.0  0.62940  0.47500  0.78220  1.0000 -0.5887275916
O   O15       1.0  0.62940  0.02500  0.28220  1.0000 -0.5887275916
O   O16       1.0  0.37060  0.52500  0.21780  1.0000 -0.5887275916
O   O17       1.0  0.38350  0.05648  0.36570  1.0000 -0.6302159559
O   O18       1.0  0.61650  0.55648  0.13430  1.0000 -0.6302159559
O   O19       1.0  0.61650  0.94352  0.63430  1.0000 -0.6302159559
O   O20       1.0  0.38350  0.44352  0.86570  1.0000 -0.6302159559
O   O21       1.0  0.54270  0.05910  0.63900  1.0000 -0.6190214139
O   O22       1.0  0.45730  0.55910  0.86100  1.0000 -0.6190214139
O   O23       1.0  0.45730  0.94090  0.36100  1.0000 -0.6190214139
O   O24       1.0  0.54270  0.44090  0.13900  1.0000 -0.6190214139
O   O25       1.0  0.11710  0.06369  0.04840  1.0000 -0.4988597613
O   O26       1.0  0.88290  0.56369  0.45160  1.0000 -0.4988597613
O   O27       1.0  0.88290  0.93631  0.95160  1.0000 -0.4988597613
O   O28       1.0  0.11710  0.43631  0.54840  1.0000 -0.4988597613
O   O29       1.0  0.85640  0.05591  0.92360  1.0000 -0.5137233418
O   O30       1.0  0.14360  0.55591  0.57640  1.0000 -0.5137233418
O   O31       1.0  0.14360  0.94409  0.07640  1.0000 -0.5137233418
O   O32       1.0  0.85640  0.44409  0.42360  1.0000 -0.5137233418
