# DDEC6 charges by PACMAN v1.1 (https://github.com/mtap-research/PACMAN-charge/)
data_2009[Mn][nan]3[FSR]2
_chemical_formula_sum              "Mn6 H24 C28 N4 O24"
_cell_length_a       10.3142
_cell_length_b       10.3142
_cell_length_c       11.418
_cell_angle_alpha    84.9945
_cell_angle_beta     95.0055
_cell_angle_gamma    114.344

_symmetry_space_group_name_H-M    "P 1"
_symmetry_Int_Tables_number       1

loop_
  _symmetry_equiv_pos_as_xyz
  'x, y, z'

loop_
  _atom_site_type_symbol
  _atom_site_label
  _atom_site_symmetry_multiplicity
  _atom_site_fract_x
  _atom_site_fract_y
  _atom_site_fract_z
  _atom_site_occupancy
  _atom_site_charge
Mn  Mn1       1.0  0.37026  0.37026  0.25000  1.0000 1.0412025129
Mn  Mn2       1.0  0.62974  0.62974  0.75000  1.0000 1.0412025129
Mn  Mn3       1.0  0.63671  0.45911  0.51489  1.0000 1.0035889422
Mn  Mn4       1.0  0.45911  0.63671  0.98511  1.0000 1.0035889422
Mn  Mn5       1.0  0.36329  0.54089  0.48511  1.0000 1.0035889422
Mn  Mn6       1.0  0.54089  0.36329  0.01489  1.0000 1.0035889422
H   H1        1.0  0.29900  0.37900  0.03900  1.0000 0.3648640564
H   H2        1.0  0.37900  0.29900  0.46100  1.0000 0.3648640564
H   H3        1.0  0.70100  0.62100  0.96100  1.0000 0.3648640564
H   H4        1.0  0.62100  0.70100  0.53900  1.0000 0.3648640564
H   H5        1.0  0.90430  0.35970  0.49200  1.0000 0.1285157859
H   H6        1.0  0.35970  0.90430  0.00800  1.0000 0.1285157859
H   H7        1.0  0.09570  0.64030  0.50800  1.0000 0.1285157859
H   H8        1.0  0.64030  0.09570  0.99200  1.0000 0.1285157859
H   H9        1.0  0.53240  0.08760  0.37500  1.0000 0.1285157859
H   H10       1.0  0.08760  0.53240  0.12500  1.0000 0.1285157859
H   H11       1.0  0.46760  0.91240  0.62500  1.0000 0.1285157859
H   H12       1.0  0.91240  0.46760  0.87500  1.0000 0.1285157859
H   H13       1.0  0.63040  0.02960  0.21300  1.0000 0.1285157859
H   H14       1.0  0.02960  0.63040  0.28700  1.0000 0.1285157859
H   H15       1.0  0.36960  0.97040  0.78700  1.0000 0.1285157859
H   H16       1.0  0.97040  0.36960  0.71300  1.0000 0.1285157859
H   H17       1.0  0.88620  0.14780  0.20000  1.0000 0.1285157859
H   H18       1.0  0.14780  0.88620  0.30000  1.0000 0.1285157859
H   H19       1.0  0.11380  0.85220  0.80000  1.0000 0.1285157859
H   H20       1.0  0.85220  0.11380  0.70000  1.0000 0.1285157859
H   H21       1.0  0.55400  0.79200  0.31000  1.0000 0.0618653571
H   H22       1.0  0.79200  0.55400  0.19000  1.0000 0.0618653571
H   H23       1.0  0.44600  0.20800  0.69000  1.0000 0.0618653571
H   H24       1.0  0.20800  0.44600  0.81000  1.0000 0.0618653571
C   C1        1.0  0.08184  0.34036  0.34210  1.0000 0.5734232342
C   C2        1.0  0.34036  0.08184  0.15790  1.0000 0.5734232342
C   C3        1.0  0.91816  0.65964  0.65790  1.0000 0.5734232342
C   C4        1.0  0.65964  0.91816  0.84210  1.0000 0.5734232342
C   C5        1.0  0.92104  0.26436  0.34350  1.0000 -0.0501586502
C   C6        1.0  0.26436  0.92104  0.15650  1.0000 -0.0501586502
C   C7        1.0  0.07896  0.73564  0.65650  1.0000 -0.0501586502
C   C8        1.0  0.73564  0.07896  0.84350  1.0000 -0.0501586502
C   C9        1.0  0.85358  0.29202  0.43180  1.0000 -0.0727236966
C   C10       1.0  0.29202  0.85358  0.06820  1.0000 -0.0727236966
C   C11       1.0  0.14642  0.70798  0.56820  1.0000 -0.0727236966
C   C12       1.0  0.70798  0.14642  0.93180  1.0000 -0.0727236966
C   C13       1.0  0.63050  0.12850  0.36030  1.0000 -0.0501586502
C   C14       1.0  0.12850  0.63050  0.13970  1.0000 -0.0501586502
C   C15       1.0  0.36950  0.87150  0.63970  1.0000 -0.0501586502
C   C16       1.0  0.87150  0.36950  0.86030  1.0000 -0.0501586502
C   C17       1.0  0.69340  0.10000  0.27090  1.0000 -0.1153062234
C   C18       1.0  0.10000  0.69340  0.22910  1.0000 -0.1153062234
C   C19       1.0  0.30660  0.90000  0.72910  1.0000 -0.1153062234
C   C20       1.0  0.90000  0.30660  0.77090  1.0000 -0.1153062234
C   C21       1.0  0.83870  0.16750  0.26150  1.0000 -0.0873789588
C   C22       1.0  0.16750  0.83870  0.23850  1.0000 -0.0873789588
C   C23       1.0  0.16130  0.83250  0.73850  1.0000 -0.0873789588
C   C24       1.0  0.83250  0.16130  0.76150  1.0000 -0.0873789588
C   C25       1.0  0.50150  0.71230  0.25460  1.0000 0.4759583151
C   C26       1.0  0.71230  0.50150  0.24540  1.0000 0.4759583151
C   C27       1.0  0.49850  0.28770  0.74540  1.0000 0.4759583151
C   C28       1.0  0.28770  0.49850  0.75460  1.0000 0.4759583151
N   N1        1.0  0.71096  0.22504  0.43880  1.0000 0.3202755427
N   N2        1.0  0.22504  0.71096  0.06120  1.0000 0.3202755427
N   N3        1.0  0.28904  0.77496  0.56120  1.0000 0.3202755427
N   N4        1.0  0.77496  0.28904  0.93880  1.0000 0.3202755427
O   O1        1.0  0.64818  0.25322  0.52490  1.0000 -0.548254388
O   O2        1.0  0.25322  0.64818  0.97510  1.0000 -0.548254388
O   O3        1.0  0.35182  0.74678  0.47510  1.0000 -0.548254388
O   O4        1.0  0.74678  0.35182  0.02490  1.0000 -0.548254388
O   O5        1.0  0.14222  0.42818  0.41996  1.0000 -0.559820565
O   O6        1.0  0.42818  0.14222  0.08004  1.0000 -0.559820565
O   O7        1.0  0.85778  0.57182  0.58004  1.0000 -0.559820565
O   O8        1.0  0.57182  0.85778  0.91996  1.0000 -0.559820565
O   O9        1.0  0.14187  0.31033  0.26362  1.0000 -0.5665634001
O   O10       1.0  0.31033  0.14187  0.23638  1.0000 -0.5665634001
O   O11       1.0  0.85813  0.68967  0.73638  1.0000 -0.5665634001
O   O12       1.0  0.68967  0.85813  0.76362  1.0000 -0.5665634001
O   O13       1.0  0.53755  0.74305  0.15071  1.0000 -0.5030272329
O   O14       1.0  0.74305  0.53755  0.34929  1.0000 -0.5030272329
O   O15       1.0  0.46245  0.25695  0.84929  1.0000 -0.5030272329
O   O16       1.0  0.25695  0.46245  0.65071  1.0000 -0.5030272329
O   O17       1.0  0.36937  0.41923  0.06035  1.0000 -0.7591766143
O   O18       1.0  0.41923  0.36937  0.43965  1.0000 -0.7591766143
O   O19       1.0  0.63063  0.58077  0.93965  1.0000 -0.7591766143
O   O20       1.0  0.58077  0.63063  0.56035  1.0000 -0.7591766143
O   O21       1.0  0.42290  0.59420  0.29669  1.0000 -0.5220714682
O   O22       1.0  0.59420  0.42290  0.20331  1.0000 -0.5220714682
O   O23       1.0  0.57710  0.40580  0.70331  1.0000 -0.5220714682
O   O24       1.0  0.40580  0.57710  0.79669  1.0000 -0.5220714682
