# DDEC6 charges by PACMAN v1.1 (https://github.com/mtap-research/PACMAN-charge/)
data_2009[Co][pcu]3[FSR]2
_chemical_formula_sum              "Co2 H6 C6 O12"
_cell_length_a       8.38254
_cell_length_b       8.38254
_cell_length_c       8.38254
_cell_angle_alpha    120.595
_cell_angle_beta     117.814
_cell_angle_gamma    91.3999

_symmetry_space_group_name_H-M    "P 1"
_symmetry_Int_Tables_number       1

loop_
  _symmetry_equiv_pos_as_xyz
  'x, y, z'

loop_
  _atom_site_type_symbol
  _atom_site_label
  _atom_site_symmetry_multiplicity
  _atom_site_fract_x
  _atom_site_fract_y
  _atom_site_fract_z
  _atom_site_occupancy
  _atom_site_charge
Co  Co1       1.0  0.00000  0.00000  0.00000  1.0000 0.9859040723
Co  Co2       1.0  0.50000  0.50000  0.00000  1.0000 0.9859040723
H   H1        1.0  0.25000  0.20100  0.95100  1.0000 0.1089405017
H   H2        1.0  0.75000  0.79900  0.04900  1.0000 0.1089405017
H   H3        1.0  0.29820  0.29820  0.50000  1.0000 0.135976945
H   H4        1.0  0.20180  0.70180  0.00000  1.0000 0.135976945
H   H5        1.0  0.70180  0.70180  0.50000  1.0000 0.135976945
H   H6        1.0  0.79820  0.29820  0.00000  1.0000 0.135976945
C   C1        1.0  0.25000  0.31290  0.06290  1.0000 0.5135185566
C   C2        1.0  0.75000  0.68710  0.93710  1.0000 0.5135185566
C   C3        1.0  0.21880  0.21880  0.50000  1.0000 0.5135185566
C   C4        1.0  0.28120  0.78120  0.00000  1.0000 0.5135185566
C   C5        1.0  0.78120  0.78120  0.50000  1.0000 0.5135185566
C   C6        1.0  0.71880  0.21880  0.00000  1.0000 0.5135185566
O   O1        1.0  0.15620  0.28880  0.13260  1.0000 -0.5198838665
O   O2        1.0  0.34380  0.47640  0.13260  1.0000 -0.5198838665
O   O3        1.0  0.65620  0.52360  0.86740  1.0000 -0.5198838665
O   O4        1.0  0.84380  0.71120  0.86740  1.0000 -0.5198838665
O   O5        1.0  0.09370  0.08170  0.31660  1.0000 -0.4668966002
O   O6        1.0  0.40630  0.72290  0.98800  1.0000 -0.4668966002
O   O7        1.0  0.26510  0.27710  0.68340  1.0000 -0.4668966002
O   O8        1.0  0.23490  0.91830  0.01200  1.0000 -0.4668966002
O   O9        1.0  0.90630  0.91830  0.68340  1.0000 -0.4668966002
O   O10       1.0  0.59370  0.27710  0.01200  1.0000 -0.4668966002
O   O11       1.0  0.73490  0.72290  0.31660  1.0000 -0.4668966002
O   O12       1.0  0.76510  0.08170  0.98800  1.0000 -0.4668966002
