# DDEC6 charges by PACMAN v1.1 (https://github.com/mtap-research/PACMAN-charge/)
data_2009[Zn][nan]3[FSR]1
_chemical_formula_sum              "Zn4 H52 C80 N4 O16"
_cell_length_a       13.4972
_cell_length_b       13.4972
_cell_length_c       25.0235
_cell_angle_alpha    74.6018
_cell_angle_beta     105.398
_cell_angle_gamma    151.055

_symmetry_space_group_name_H-M    "P 1"
_symmetry_Int_Tables_number       1

loop_
  _symmetry_equiv_pos_as_xyz
  'x, y, z'

loop_
  _atom_site_type_symbol
  _atom_site_label
  _atom_site_symmetry_multiplicity
  _atom_site_fract_x
  _atom_site_fract_y
  _atom_site_fract_z
  _atom_site_occupancy
  _atom_site_charge
Zn  Zn1       1.0  0.17948  0.04942  0.03424  1.0000 0.8281232844
Zn  Zn2       1.0  0.04942  0.17948  0.46576  1.0000 0.8281232844
Zn  Zn3       1.0  0.82052  0.95058  0.96576  1.0000 0.8281232844
Zn  Zn4       1.0  0.95058  0.82052  0.53424  1.0000 0.8281232844
H   H1        1.0  0.77960  0.56600  0.16930  1.0000 0.1199886353
H   H2        1.0  0.56600  0.77960  0.33070  1.0000 0.1199886353
H   H3        1.0  0.22040  0.43400  0.83070  1.0000 0.1199886353
H   H4        1.0  0.43400  0.22040  0.66930  1.0000 0.1199886353
H   H5        1.0  0.59710  0.38850  0.24620  1.0000 0.1199886353
H   H6        1.0  0.38850  0.59710  0.25380  1.0000 0.1199886353
H   H7        1.0  0.40290  0.61150  0.75380  1.0000 0.1199886353
H   H8        1.0  0.61150  0.40290  0.74620  1.0000 0.1199886353
H   H9        1.0  0.03760  0.91800  0.31360  1.0000 0.1112108335
H   H10       1.0  0.91800  0.03760  0.18640  1.0000 0.1112108335
H   H11       1.0  0.96240  0.08200  0.68640  1.0000 0.1112108335
H   H12       1.0  0.08200  0.96240  0.81360  1.0000 0.1112108335
H   H13       1.0  0.22380  0.09380  0.23760  1.0000 0.1199886353
H   H14       1.0  0.09380  0.22380  0.26240  1.0000 0.1199886353
H   H15       1.0  0.77620  0.90620  0.76240  1.0000 0.1199886353
H   H16       1.0  0.90620  0.77620  0.73760  1.0000 0.1199886353
H   H17       1.0  0.52060  0.25700  0.33650  1.0000 0.1199886353
H   H18       1.0  0.25700  0.52060  0.16350  1.0000 0.1199886353
H   H19       1.0  0.47940  0.74300  0.66350  1.0000 0.1199886353
H   H20       1.0  0.74300  0.47940  0.83650  1.0000 0.1199886353
H   H21       1.0  0.30120  0.07060  0.40400  1.0000 0.1112108335
H   H22       1.0  0.07060  0.30120  0.09600  1.0000 0.1112108335
H   H23       1.0  0.69880  0.92940  0.59600  1.0000 0.1112108335
H   H24       1.0  0.92940  0.69880  0.90400  1.0000 0.1112108335
H   H25       1.0  0.55510  0.55370  0.42040  1.0000 0.1299429852
H   H26       1.0  0.55370  0.55510  0.07960  1.0000 0.1299429852
H   H27       1.0  0.44490  0.44630  0.57960  1.0000 0.1299429852
H   H28       1.0  0.44630  0.44490  0.92040  1.0000 0.1299429852
H   H29       1.0  0.77770  0.74130  0.35470  1.0000 0.1199886353
H   H30       1.0  0.74130  0.77770  0.14530  1.0000 0.1199886353
H   H31       1.0  0.22230  0.25870  0.64530  1.0000 0.1199886353
H   H32       1.0  0.25870  0.22230  0.85470  1.0000 0.1199886353
H   H33       1.0  0.32080  0.02580  0.97460  1.0000 0.1112108335
H   H34       1.0  0.02580  0.32080  0.52540  1.0000 0.1112108335
H   H35       1.0  0.67920  0.97420  0.02540  1.0000 0.1112108335
H   H36       1.0  0.97420  0.67920  0.47460  1.0000 0.1112108335
H   H37       1.0  0.60760  0.18700  0.96660  1.0000 0.1299429852
H   H38       1.0  0.18700  0.60760  0.53340  1.0000 0.1299429852
H   H39       1.0  0.39240  0.81300  0.03340  1.0000 0.1299429852
H   H40       1.0  0.81300  0.39240  0.46660  1.0000 0.1299429852
H   H41       1.0  0.91260  0.58680  0.07260  1.0000 0.145822076
H   H42       1.0  0.58680  0.91260  0.42740  1.0000 0.145822076
H   H43       1.0  0.08740  0.41320  0.92740  1.0000 0.145822076
H   H44       1.0  0.41320  0.08740  0.57260  1.0000 0.145822076
H   H45       1.0  0.61830  0.41530  0.07770  1.0000 0.1199886353
H   H46       1.0  0.41530  0.61830  0.42230  1.0000 0.1199886353
H   H47       1.0  0.38170  0.58470  0.92230  1.0000 0.1199886353
H   H48       1.0  0.58470  0.38170  0.57770  1.0000 0.1199886353
H   H49       1.0  0.09930  0.62550  0.03950  1.0000 0.1199886353
H   H50       1.0  0.62550  0.09930  0.46050  1.0000 0.1199886353
H   H51       1.0  0.90070  0.37450  0.96050  1.0000 0.1199886353
H   H52       1.0  0.37450  0.90070  0.53950  1.0000 0.1199886353
C   C1        1.0  0.01969  0.84851  0.19480  1.0000 -0.0259676856
C   C2        1.0  0.84851  0.01969  0.30520  1.0000 -0.0259676856
C   C3        1.0  0.98031  0.15149  0.80520  1.0000 -0.0259676856
C   C4        1.0  0.15149  0.98031  0.69480  1.0000 -0.0259676856
C   C5        1.0  0.83254  0.63766  0.19842  1.0000 -0.0919197743
C   C6        1.0  0.63766  0.83254  0.30158  1.0000 -0.0919197743
C   C7        1.0  0.16746  0.36234  0.80158  1.0000 -0.0919197743
C   C8        1.0  0.36234  0.16746  0.69842  1.0000 -0.0919197743
C   C9        1.0  0.72228  0.53112  0.24446  1.0000 -0.1391897289
C   C10       1.0  0.53112  0.72228  0.25554  1.0000 -0.1391897289
C   C11       1.0  0.27772  0.46888  0.75554  1.0000 -0.1391897289
C   C12       1.0  0.46888  0.27772  0.74446  1.0000 -0.1391897289
C   C13       1.0  0.79396  0.63204  0.28830  1.0000 0.073086826
C   C14       1.0  0.63204  0.79396  0.21170  1.0000 0.073086826
C   C15       1.0  0.20604  0.36796  0.71170  1.0000 0.073086826
C   C16       1.0  0.36796  0.20604  0.78830  1.0000 0.073086826
C   C17       1.0  0.98469  0.84571  0.28470  1.0000 -0.1467761029
C   C18       1.0  0.84571  0.98469  0.21530  1.0000 -0.1467761029
C   C19       1.0  0.01531  0.15429  0.71530  1.0000 -0.1467761029
C   C20       1.0  0.15429  0.01531  0.78470  1.0000 -0.1467761029
C   C21       1.0  0.09584  0.95136  0.23888  1.0000 -0.1064095963
C   C22       1.0  0.95136  0.09584  0.26112  1.0000 -0.1064095963
C   C23       1.0  0.90416  0.04864  0.76112  1.0000 -0.1064095963
C   C24       1.0  0.04864  0.90416  0.73888  1.0000 -0.1064095963
C   C25       1.0  0.13417  0.96663  0.14310  1.0000 0.5468341838
C   C26       1.0  0.96663  0.13417  0.35690  1.0000 0.5468341838
C   C27       1.0  0.86583  0.03337  0.85690  1.0000 0.5468341838
C   C28       1.0  0.03337  0.86583  0.64310  1.0000 0.5468341838
C   C29       1.0  0.66655  0.51685  0.33592  1.0000 0.0802877814
C   C30       1.0  0.51685  0.66655  0.16408  1.0000 0.0802877814
C   C31       1.0  0.33345  0.48315  0.66408  1.0000 0.0802877814
C   C32       1.0  0.48315  0.33345  0.83592  1.0000 0.0802877814
C   C33       1.0  0.52616  0.31644  0.35269  1.0000 -0.1635812094
C   C34       1.0  0.31644  0.52616  0.14731  1.0000 -0.1635812094
C   C35       1.0  0.47384  0.68356  0.64731  1.0000 -0.1635812094
C   C36       1.0  0.68356  0.47384  0.85269  1.0000 -0.1635812094
C   C37       1.0  0.39458  0.20462  0.39324  1.0000 -0.1064095963
C   C38       1.0  0.20462  0.39458  0.10676  1.0000 -0.1064095963
C   C39       1.0  0.60542  0.79538  0.60676  1.0000 -0.1064095963
C   C40       1.0  0.79538  0.60542  0.89324  1.0000 -0.1064095963
C   C41       1.0  0.40022  0.28998  0.41811  1.0000 -0.0452904721
C   C42       1.0  0.28998  0.40022  0.08189  1.0000 -0.0452904721
C   C43       1.0  0.59978  0.71002  0.58189  1.0000 -0.0452904721
C   C44       1.0  0.71002  0.59978  0.91811  1.0000 -0.0452904721
C   C45       1.0  0.54641  0.49279  0.40328  1.0000 -0.0769020562
C   C46       1.0  0.49279  0.54641  0.09672  1.0000 -0.0769020562
C   C47       1.0  0.45359  0.50721  0.59672  1.0000 -0.0769020562
C   C48       1.0  0.50721  0.45359  0.90328  1.0000 -0.0769020562
C   C49       1.0  0.67837  0.60443  0.36349  1.0000 -0.1391897289
C   C50       1.0  0.60443  0.67837  0.13651  1.0000 -0.1391897289
C   C51       1.0  0.32163  0.39557  0.63651  1.0000 -0.1391897289
C   C52       1.0  0.39557  0.32163  0.86349  1.0000 -0.1391897289
C   C53       1.0  0.24864  0.16516  0.45843  1.0000 0.575350372
C   C54       1.0  0.16516  0.24864  0.04157  1.0000 0.575350372
C   C55       1.0  0.75136  0.83484  0.54157  1.0000 0.575350372
C   C56       1.0  0.83484  0.75136  0.95843  1.0000 0.575350372
C   C57       1.0  0.44154  0.13946  0.99481  1.0000 0.0802877814
C   C58       1.0  0.13946  0.44154  0.50519  1.0000 0.0802877814
C   C59       1.0  0.55846  0.86054  0.00519  1.0000 0.0802877814
C   C60       1.0  0.86054  0.55846  0.49481  1.0000 0.0802877814
C   C61       1.0  0.61311  0.23549  0.98982  1.0000 -0.20458694
C   C62       1.0  0.23549  0.61311  0.51018  1.0000 -0.20458694
C   C63       1.0  0.38689  0.76451  0.01018  1.0000 -0.20458694
C   C64       1.0  0.76451  0.38689  0.48982  1.0000 -0.20458694
C   C65       1.0  0.79518  0.40522  0.01948  1.0000 0.1609852145
C   C66       1.0  0.40522  0.79518  0.48052  1.0000 0.1609852145
C   C67       1.0  0.20482  0.59478  0.98052  1.0000 0.1609852145
C   C68       1.0  0.59478  0.20482  0.51948  1.0000 0.1609852145
C   C69       1.0  0.79332  0.47188  0.05254  1.0000 -0.1861723308
C   C70       1.0  0.47188  0.79332  0.44746  1.0000 -0.1861723308
C   C71       1.0  0.20668  0.52812  0.94746  1.0000 -0.1861723308
C   C72       1.0  0.52812  0.20668  0.55254  1.0000 -0.1861723308
C   C73       1.0  0.61619  0.36821  0.05540  1.0000 0.1023937668
C   C74       1.0  0.36821  0.61619  0.44460  1.0000 0.1023937668
C   C75       1.0  0.38381  0.63179  0.94460  1.0000 0.1023937668
C   C76       1.0  0.63179  0.38381  0.55540  1.0000 0.1023937668
C   C77       1.0  0.98699  0.51861  0.01640  1.0000 -0.1391897289
C   C78       1.0  0.51861  0.98699  0.48360  1.0000 -0.1467761029
C   C79       1.0  0.01301  0.48139  0.98360  1.0000 -0.1391897289
C   C80       1.0  0.48139  0.01301  0.51640  1.0000 -0.1391897289
N   N1        1.0  0.43993  0.20207  0.02760  1.0000 -0.242009299
N   N2        1.0  0.20207  0.43993  0.47240  1.0000 -0.242009299
N   N3        1.0  0.56007  0.79793  0.97240  1.0000 -0.242009299
N   N4        1.0  0.79793  0.56007  0.52760  1.0000 -0.242009299
O   O1        1.0  0.02786  0.86674  0.09941  1.0000 -0.5641390552
O   O2        1.0  0.86674  0.02786  0.40059  1.0000 -0.5641390552
O   O3        1.0  0.97214  0.13326  0.90059  1.0000 -0.5641390552
O   O4        1.0  0.13326  0.97214  0.59941  1.0000 -0.5641390552
O   O5        1.0  0.31686  0.14774  0.14411  1.0000 -0.5438739528
O   O6        1.0  0.14774  0.31686  0.35589  1.0000 -0.5438739528
O   O7        1.0  0.68314  0.85226  0.85589  1.0000 -0.5438739528
O   O8        1.0  0.85226  0.68314  0.64411  1.0000 -0.5438739528
O   O9        1.0  0.25162  0.24478  0.47806  1.0000 -0.5515531768
O   O10       1.0  0.24478  0.25162  0.02194  1.0000 -0.5515531768
O   O11       1.0  0.74838  0.75522  0.52194  1.0000 -0.5515531768
O   O12       1.0  0.75522  0.74838  0.97806  1.0000 -0.5515531768
O   O13       1.0  0.12424  0.98356  0.47166  1.0000 -0.5515531768
O   O14       1.0  0.98356  0.12424  0.02834  1.0000 -0.5515531768
O   O15       1.0  0.87576  0.01644  0.52834  1.0000 -0.5515531768
O   O16       1.0  0.01644  0.87576  0.97166  1.0000 -0.5515531768
