# DDEC6 charges by PACMAN v1.1 (https://github.com/mtap-research/PACMAN-charge/)
data_2009[In][nan]3[FSR]1
_chemical_formula_sum              "In6 H36 C48 N6 O30"
_cell_length_a       17.1946
_cell_length_b       17.1946
_cell_length_c       17.1946
_cell_angle_alpha    117.572
_cell_angle_beta     117.572
_cell_angle_gamma    117.572

_symmetry_space_group_name_H-M    "P 1"
_symmetry_Int_Tables_number       1

loop_
  _symmetry_equiv_pos_as_xyz
  'x, y, z'

loop_
  _atom_site_type_symbol
  _atom_site_label
  _atom_site_symmetry_multiplicity
  _atom_site_fract_x
  _atom_site_fract_y
  _atom_site_fract_z
  _atom_site_occupancy
  _atom_site_charge
In  In1       1.0  0.92405  0.65536  0.22404  1.0000 1.4668088715
In  In2       1.0  0.65536  0.22404  0.92405  1.0000 1.4668088715
In  In3       1.0  0.22404  0.92405  0.65536  1.0000 1.4668088715
In  In4       1.0  0.07595  0.34464  0.77596  1.0000 1.4668088715
In  In5       1.0  0.34464  0.77596  0.07595  1.0000 1.4668088715
In  In6       1.0  0.77596  0.07595  0.34464  1.0000 1.4668088715
H   H1        1.0  0.05620  0.19330  0.78470  1.0000 0.2902905752
H   H2        1.0  0.19330  0.78470  0.05620  1.0000 0.2902905752
H   H3        1.0  0.78470  0.05620  0.19330  1.0000 0.2902905752
H   H4        1.0  0.94380  0.80670  0.21530  1.0000 0.2902905752
H   H5        1.0  0.80670  0.21530  0.94380  1.0000 0.2902905752
H   H6        1.0  0.21530  0.94380  0.80670  1.0000 0.2902905752
H   H7        1.0  0.90090  0.10290  0.70220  1.0000 0.3098799001
H   H8        1.0  0.10290  0.70220  0.90090  1.0000 0.3098799001
H   H9        1.0  0.70220  0.90090  0.10290  1.0000 0.3098799001
H   H10       1.0  0.09910  0.89710  0.29780  1.0000 0.3098799001
H   H11       1.0  0.89710  0.29780  0.09910  1.0000 0.3098799001
H   H12       1.0  0.29780  0.09910  0.89710  1.0000 0.3098799001
H   H13       1.0  0.24850  0.88180  0.51030  1.0000 0.3841695448
H   H14       1.0  0.88180  0.51030  0.24850  1.0000 0.3841695448
H   H15       1.0  0.51030  0.24850  0.88180  1.0000 0.3841695448
H   H16       1.0  0.75150  0.11820  0.48970  1.0000 0.3841695448
H   H17       1.0  0.11820  0.48970  0.75150  1.0000 0.3841695448
H   H18       1.0  0.48970  0.75150  0.11820  1.0000 0.3841695448
H   H19       1.0  0.62250  0.58960  0.17300  1.0000 0.1401738373
H   H20       1.0  0.58960  0.17300  0.62250  1.0000 0.1401738373
H   H21       1.0  0.17300  0.62250  0.58960  1.0000 0.1401738373
H   H22       1.0  0.37750  0.41040  0.82700  1.0000 0.1401738373
H   H23       1.0  0.41040  0.82700  0.37750  1.0000 0.1401738373
H   H24       1.0  0.82700  0.37750  0.41040  1.0000 0.1401738373
H   H25       1.0  0.63350  0.84700  0.37740  1.0000 0.1401738373
H   H26       1.0  0.84700  0.37740  0.63350  1.0000 0.1401738373
H   H27       1.0  0.37740  0.63350  0.84700  1.0000 0.1401738373
H   H28       1.0  0.36650  0.15300  0.62260  1.0000 0.1401738373
H   H29       1.0  0.15300  0.62260  0.36650  1.0000 0.1401738373
H   H30       1.0  0.62260  0.36650  0.15300  1.0000 0.1401738373
H   H31       1.0  0.06580  0.07410  0.68280  1.0000 0.1473802289
H   H32       1.0  0.07410  0.68280  0.06580  1.0000 0.1473802289
H   H33       1.0  0.68280  0.06580  0.07410  1.0000 0.1473802289
H   H34       1.0  0.93420  0.92590  0.31720  1.0000 0.1473802289
H   H35       1.0  0.92590  0.31720  0.93420  1.0000 0.1473802289
H   H36       1.0  0.31720  0.93420  0.92590  1.0000 0.1473802289
C   C1        1.0  0.94978  0.82770  0.44792  1.0000 0.6117958387
C   C2        1.0  0.82770  0.44792  0.94978  1.0000 0.6117958387
C   C3        1.0  0.44792  0.94978  0.82770  1.0000 0.6117958387
C   C4        1.0  0.05022  0.17230  0.55208  1.0000 0.6117958387
C   C5        1.0  0.17230  0.55208  0.05022  1.0000 0.6117958387
C   C6        1.0  0.55208  0.05022  0.17230  1.0000 0.6117958387
C   C7        1.0  0.85806  0.83180  0.42874  1.0000 -0.0193381312
C   C8        1.0  0.83180  0.42874  0.85806  1.0000 -0.0193381312
C   C9        1.0  0.42874  0.85806  0.83180  1.0000 -0.0193381312
C   C10       1.0  0.14194  0.16820  0.57126  1.0000 -0.0193381312
C   C11       1.0  0.16820  0.57126  0.14194  1.0000 -0.0193381312
C   C12       1.0  0.57126  0.14194  0.16820  1.0000 -0.0193381312
C   C13       1.0  0.68315  0.68875  0.26820  1.0000 -0.1291887477
C   C14       1.0  0.68875  0.26820  0.68315  1.0000 -0.1291887477
C   C15       1.0  0.26820  0.68315  0.68875  1.0000 -0.1291887477
C   C16       1.0  0.31685  0.31125  0.73180  1.0000 -0.1291887477
C   C17       1.0  0.31125  0.73180  0.31685  1.0000 -0.1291887477
C   C18       1.0  0.73180  0.31685  0.31125  1.0000 -0.1291887477
C   C19       1.0  0.59717  0.69143  0.24740  1.0000 -0.0048717849
C   C20       1.0  0.69143  0.24740  0.59717  1.0000 -0.0048717849
C   C21       1.0  0.24740  0.59717  0.69143  1.0000 -0.0048717849
C   C22       1.0  0.40283  0.30857  0.75260  1.0000 -0.0048717849
C   C23       1.0  0.30857  0.75260  0.40283  1.0000 -0.0048717849
C   C24       1.0  0.75260  0.40283  0.30857  1.0000 -0.0048717849
C   C25       1.0  0.40430  0.53050  0.07290  1.0000 0.5729378422
C   C26       1.0  0.53050  0.07290  0.40430  1.0000 0.5729378422
C   C27       1.0  0.07290  0.40430  0.53050  1.0000 0.5729378422
C   C28       1.0  0.59570  0.46950  0.92710  1.0000 0.5729378422
C   C29       1.0  0.46950  0.92710  0.59570  1.0000 0.5729378422
C   C30       1.0  0.92710  0.59570  0.46950  1.0000 0.5729378422
C   C31       1.0  0.68907  0.84203  0.39100  1.0000 -0.202436091
C   C32       1.0  0.84203  0.39100  0.68907  1.0000 -0.202436091
C   C33       1.0  0.39100  0.68907  0.84203  1.0000 -0.202436091
C   C34       1.0  0.31093  0.15797  0.60900  1.0000 -0.202436091
C   C35       1.0  0.15797  0.60900  0.31093  1.0000 -0.202436091
C   C36       1.0  0.60900  0.31093  0.15797  1.0000 -0.202436091
C   C37       1.0  0.86320  0.98249  0.55251  1.0000 0.2438843807
C   C38       1.0  0.98249  0.55251  0.86320  1.0000 0.2438843807
C   C39       1.0  0.55251  0.86320  0.98249  1.0000 0.2438843807
C   C40       1.0  0.13680  0.01751  0.44749  1.0000 0.2438843807
C   C41       1.0  0.01751  0.44749  0.13680  1.0000 0.2438843807
C   C42       1.0  0.44749  0.13680  0.01751  1.0000 0.2438843807
C   C43       1.0  0.94884  0.97916  0.57340  1.0000 -0.202436091
C   C44       1.0  0.97916  0.57340  0.94884  1.0000 -0.202436091
C   C45       1.0  0.57340  0.94884  0.97916  1.0000 -0.202436091
C   C46       1.0  0.05116  0.02084  0.42660  1.0000 -0.202436091
C   C47       1.0  0.02084  0.42660  0.05116  1.0000 -0.202436091
C   C48       1.0  0.42660  0.05116  0.02084  1.0000 -0.202436091
N   N1        1.0  0.95846  0.13680  0.70314  1.0000 -0.603309536
N   N2        1.0  0.13680  0.70314  0.95846  1.0000 -0.603309536
N   N3        1.0  0.70314  0.95846  0.13680  1.0000 -0.603309536
N   N4        1.0  0.04154  0.86320  0.29686  1.0000 -0.603309536
N   N5        1.0  0.86320  0.29686  0.04154  1.0000 -0.603309536
N   N6        1.0  0.29686  0.04154  0.86320  1.0000 -0.603309536
O   O1        1.0  0.86950  0.70542  0.31088  1.0000 -0.5695327957
O   O2        1.0  0.70542  0.31088  0.86950  1.0000 -0.5695327957
O   O3        1.0  0.31088  0.86950  0.70542  1.0000 -0.5695327957
O   O4        1.0  0.13050  0.29458  0.68912  1.0000 -0.5695327957
O   O5        1.0  0.29458  0.68912  0.13050  1.0000 -0.5695327957
O   O6        1.0  0.68912  0.13050  0.29458  1.0000 -0.5695327957
O   O7        1.0  0.10113  0.94529  0.59988  1.0000 -0.5695327957
O   O8        1.0  0.94529  0.59988  0.10113  1.0000 -0.5695327957
O   O9        1.0  0.59988  0.10113  0.94529  1.0000 -0.5695327957
O   O10       1.0  0.89887  0.05471  0.40012  1.0000 -0.5695327957
O   O11       1.0  0.05471  0.40012  0.89887  1.0000 -0.5695327957
O   O12       1.0  0.40012  0.89887  0.05471  1.0000 -0.5695327957
O   O13       1.0  0.34446  0.55068  0.02766  1.0000 -0.5948820154
O   O14       1.0  0.55068  0.02766  0.34446  1.0000 -0.5948820154
O   O15       1.0  0.02766  0.34446  0.55068  1.0000 -0.5948820154
O   O16       1.0  0.65554  0.44932  0.97234  1.0000 -0.5948820154
O   O17       1.0  0.44932  0.97234  0.65554  1.0000 -0.5948820154
O   O18       1.0  0.97234  0.65554  0.44932  1.0000 -0.5948820154
O   O19       1.0  0.31534  0.38976  0.98340  1.0000 -0.532109801
O   O20       1.0  0.38976  0.98340  0.31534  1.0000 -0.532109801
O   O21       1.0  0.98340  0.31534  0.38976  1.0000 -0.532109801
O   O22       1.0  0.68466  0.61024  0.01660  1.0000 -0.532109801
O   O23       1.0  0.61024  0.01660  0.68466  1.0000 -0.532109801
O   O24       1.0  0.01660  0.68466  0.61024  1.0000 -0.532109801
O   O25       1.0  0.16755  0.84652  0.47623  1.0000 -0.8798570672
O   O26       1.0  0.84652  0.47623  0.16755  1.0000 -0.8798570672
O   O27       1.0  0.47623  0.16755  0.84652  1.0000 -0.8798570672
O   O28       1.0  0.83245  0.15348  0.52377  1.0000 -0.8798570672
O   O29       1.0  0.15348  0.52377  0.83245  1.0000 -0.8798570672
O   O30       1.0  0.52377  0.83245  0.15348  1.0000 -0.8798570672
