# DDEC6 charges by PACMAN v1.1 (https://github.com/mtap-research/PACMAN-charge/)
data_2009[Mn][nan]3[FSR]1
_chemical_formula_sum              "Mn4 H48 C56 N8 O20"
_cell_length_a       11.8326
_cell_length_b       11.8326
_cell_length_c       16.444
_cell_angle_alpha    73.1583
_cell_angle_beta     106.842
_cell_angle_gamma    101.132

_symmetry_space_group_name_H-M    "P 1"
_symmetry_Int_Tables_number       1

loop_
  _symmetry_equiv_pos_as_xyz
  'x, y, z'

loop_
  _atom_site_type_symbol
  _atom_site_label
  _atom_site_symmetry_multiplicity
  _atom_site_fract_x
  _atom_site_fract_y
  _atom_site_fract_z
  _atom_site_occupancy
  _atom_site_charge
Mn  Mn1       1.0  0.61985  0.16389  0.95586  1.0000 0.9314266525
Mn  Mn2       1.0  0.16389  0.61985  0.54414  1.0000 0.9314266525
Mn  Mn3       1.0  0.38015  0.83611  0.04414  1.0000 0.9314266525
Mn  Mn4       1.0  0.83611  0.38015  0.45586  1.0000 0.9314266525
H   H1        1.0  0.81350  0.33550  0.72690  1.0000 0.1199517774
H   H2        1.0  0.33550  0.81350  0.77310  1.0000 0.1199517774
H   H3        1.0  0.18650  0.66450  0.27310  1.0000 0.1199517774
H   H4        1.0  0.66450  0.18650  0.22690  1.0000 0.1199517774
H   H5        1.0  0.16650  0.54810  0.96180  1.0000 0.2592713616
H   H6        1.0  0.54810  0.16650  0.53820  1.0000 0.2592713616
H   H7        1.0  0.83350  0.45190  0.03820  1.0000 0.2592713616
H   H8        1.0  0.45190  0.83350  0.46180  1.0000 0.2592713616
H   H9        1.0  0.98130  0.42770  0.95220  1.0000 0.1199517774
H   H10       1.0  0.42770  0.98130  0.54780  1.0000 0.1199517774
H   H11       1.0  0.01870  0.57230  0.04780  1.0000 0.1199517774
H   H12       1.0  0.57230  0.01870  0.45220  1.0000 0.1199517774
H   H13       1.0  0.26780  0.62580  0.82750  1.0000 0.1199517774
H   H14       1.0  0.62580  0.26780  0.67250  1.0000 0.1199517774
H   H15       1.0  0.73220  0.37420  0.17250  1.0000 0.1199517774
H   H16       1.0  0.37420  0.73220  0.32750  1.0000 0.1199517774
H   H17       1.0  0.32990  0.63830  0.92300  1.0000 0.1199517774
H   H18       1.0  0.63830  0.32990  0.57700  1.0000 0.1199517774
H   H19       1.0  0.67010  0.36170  0.07700  1.0000 0.1199517774
H   H20       1.0  0.36170  0.67010  0.42300  1.0000 0.1199517774
H   H21       1.0  0.14000  0.51540  0.75280  1.0000 0.1307349187
H   H22       1.0  0.51540  0.14000  0.74720  1.0000 0.1307349187
H   H23       1.0  0.86000  0.48460  0.24720  1.0000 0.1307349187
H   H24       1.0  0.48460  0.86000  0.25280  1.0000 0.1307349187
H   H25       1.0  0.28860  0.36100  0.99020  1.0000 0.1307349187
H   H26       1.0  0.36100  0.28860  0.50980  1.0000 0.1307349187
H   H27       1.0  0.71140  0.63900  0.00980  1.0000 0.1307349187
H   H28       1.0  0.63900  0.71140  0.49020  1.0000 0.1307349187
H   H29       1.0  0.46320  0.57820  0.82270  1.0000 0.1403632693
H   H30       1.0  0.57820  0.46320  0.67730  1.0000 0.1403632693
H   H31       1.0  0.53680  0.42180  0.17730  1.0000 0.1403632693
H   H32       1.0  0.42180  0.53680  0.32270  1.0000 0.1403632693
H   H33       1.0  0.41600  0.22540  0.01580  1.0000 0.1087197445
H   H34       1.0  0.22540  0.41600  0.48420  1.0000 0.1087197445
H   H35       1.0  0.58400  0.77460  0.98420  1.0000 0.1087197445
H   H36       1.0  0.77460  0.58400  0.51580  1.0000 0.1087197445
H   H37       1.0  0.58330  0.43510  0.85080  1.0000 0.1000191725
H   H38       1.0  0.43510  0.58330  0.64920  1.0000 0.1000191725
H   H39       1.0  0.41670  0.56490  0.14920  1.0000 0.1000191725
H   H40       1.0  0.56490  0.41670  0.35080  1.0000 0.1000191725
H   H41       1.0  0.76700  0.97900  0.03200  1.0000 0.4044364028
H   H42       1.0  0.97900  0.76700  0.46800  1.0000 0.4044364028
H   H43       1.0  0.23300  0.02100  0.96800  1.0000 0.4044364028
H   H44       1.0  0.02100  0.23300  0.53200  1.0000 0.4044364028
H   H45       1.0  0.79300  0.09300  0.96700  1.0000 0.3779517792
H   H46       1.0  0.09300  0.79300  0.53300  1.0000 0.3779517792
H   H47       1.0  0.20700  0.90700  0.03300  1.0000 0.3779517792
H   H48       1.0  0.90700  0.20700  0.46700  1.0000 0.3779517792
C   C1        1.0  0.97370  0.42930  0.72540  1.0000 -0.0182589314
C   C2        1.0  0.42930  0.97370  0.77460  1.0000 -0.0182589314
C   C3        1.0  0.02630  0.57070  0.27460  1.0000 -0.0182589314
C   C4        1.0  0.57070  0.02630  0.22540  1.0000 -0.0182589314
C   C5        1.0  0.07770  0.48430  0.86180  1.0000 0.2263132266
C   C6        1.0  0.48430  0.07770  0.63820  1.0000 0.2263132266
C   C7        1.0  0.92230  0.51570  0.13820  1.0000 0.2263132266
C   C8        1.0  0.51570  0.92230  0.36180  1.0000 0.2263132266
C   C9        1.0  0.88260  0.37120  0.84660  1.0000 -0.0182589314
C   C10       1.0  0.37120  0.88260  0.65340  1.0000 -0.0182589314
C   C11       1.0  0.11740  0.62880  0.15340  1.0000 -0.0182589314
C   C12       1.0  0.62880  0.11740  0.34660  1.0000 -0.0182589314
C   C13       1.0  0.87940  0.37280  0.76040  1.0000 -0.150352034
C   C14       1.0  0.37280  0.87940  0.73960  1.0000 -0.150352034
C   C15       1.0  0.12060  0.62720  0.23960  1.0000 -0.150352034
C   C16       1.0  0.62720  0.12060  0.26040  1.0000 -0.150352034
C   C17       1.0  0.97270  0.43030  0.63330  1.0000 0.5807139657
C   C18       1.0  0.43030  0.97270  0.86670  1.0000 0.5807139657
C   C19       1.0  0.02730  0.56970  0.36670  1.0000 0.5807139657
C   C20       1.0  0.56970  0.02730  0.13330  1.0000 0.5807139657
C   C21       1.0  0.78270  0.30650  0.88540  1.0000 0.5277079128
C   C22       1.0  0.30650  0.78270  0.61460  1.0000 0.5277079128
C   C23       1.0  0.21730  0.69350  0.11460  1.0000 0.5277079128
C   C24       1.0  0.69350  0.21730  0.38540  1.0000 0.5277079128
C   C25       1.0  0.35980  0.48700  0.90170  1.0000 0.1307349187
C   C26       1.0  0.48700  0.35980  0.59830  1.0000 0.1307349187
C   C27       1.0  0.64020  0.51300  0.09830  1.0000 0.1307349187
C   C28       1.0  0.51300  0.64020  0.40170  1.0000 0.1307349187
C   C29       1.0  0.98040  0.42760  0.89550  1.0000 -0.2129770734
C   C30       1.0  0.42760  0.98040  0.60450  1.0000 -0.2129770734
C   C31       1.0  0.01960  0.57240  0.10450  1.0000 -0.2129770734
C   C32       1.0  0.57240  0.01960  0.39550  1.0000 -0.2129770734
C   C33       1.0  0.28460  0.58260  0.88880  1.0000 -0.1254198786
C   C34       1.0  0.58260  0.28460  0.61120  1.0000 -0.1254198786
C   C35       1.0  0.71540  0.41740  0.11120  1.0000 -0.1254198786
C   C36       1.0  0.41740  0.71540  0.38880  1.0000 -0.1254198786
C   C37       1.0  0.07460  0.48180  0.77580  1.0000 -0.1946206384
C   C38       1.0  0.48180  0.07460  0.72420  1.0000 -0.1946206384
C   C39       1.0  0.92540  0.51820  0.22420  1.0000 -0.1946206384
C   C40       1.0  0.51820  0.92540  0.27580  1.0000 -0.1946206384
C   C41       1.0  0.34760  0.37880  0.95990  1.0000 -0.1946206384
C   C42       1.0  0.37880  0.34760  0.54010  1.0000 -0.1946206384
C   C43       1.0  0.65240  0.62120  0.04010  1.0000 -0.1946206384
C   C44       1.0  0.62120  0.65240  0.45990  1.0000 -0.1946206384
C   C45       1.0  0.44950  0.50550  0.86170  1.0000 -0.2193417467
C   C46       1.0  0.50550  0.44950  0.63830  1.0000 -0.2193417467
C   C47       1.0  0.55050  0.49450  0.13830  1.0000 -0.2193417467
C   C48       1.0  0.49450  0.55050  0.36170  1.0000 -0.2193417467
C   C49       1.0  0.42340  0.29620  0.97340  1.0000 0.0534670435
C   C50       1.0  0.29620  0.42340  0.52660  1.0000 0.0534670435
C   C51       1.0  0.57660  0.70380  0.02660  1.0000 0.0534670435
C   C52       1.0  0.70380  0.57660  0.47340  1.0000 0.0534670435
C   C53       1.0  0.52120  0.41740  0.87810  1.0000 0.0819311373
C   C54       1.0  0.41740  0.52120  0.62190  1.0000 0.0819311373
C   C55       1.0  0.47880  0.58260  0.12190  1.0000 0.0819311373
C   C56       1.0  0.58260  0.47880  0.37810  1.0000 0.0819311373
N   N1        1.0  0.50690  0.31130  0.92950  1.0000 -0.2473916292
N   N2        1.0  0.31130  0.50690  0.57050  1.0000 -0.2473916292
N   N3        1.0  0.49310  0.68870  0.07050  1.0000 -0.2473916292
N   N4        1.0  0.68870  0.49310  0.42950  1.0000 -0.2473916292
N   N5        1.0  0.17330  0.53930  0.91340  1.0000 -0.3139328279
N   N6        1.0  0.53930  0.17330  0.58660  1.0000 -0.3139328279
N   N7        1.0  0.82670  0.46070  0.08660  1.0000 -0.3139328279
N   N8        1.0  0.46070  0.82670  0.41340  1.0000 -0.3139328279
O   O1        1.0  0.69290  0.25570  0.83930  1.0000 -0.5600625791
O   O2        1.0  0.25570  0.69290  0.66070  1.0000 -0.5600625791
O   O3        1.0  0.30710  0.74430  0.16070  1.0000 -0.5600625791
O   O4        1.0  0.74430  0.30710  0.33930  1.0000 -0.5600625791
O   O5        1.0  0.78810  0.30050  0.96490  1.0000 -0.5848332562
O   O6        1.0  0.30050  0.78810  0.53510  1.0000 -0.5848332562
O   O7        1.0  0.21190  0.69950  0.03510  1.0000 -0.5848332562
O   O8        1.0  0.69950  0.21190  0.46490  1.0000 -0.5848332562
O   O9        1.0  0.87770  0.38430  0.58910  1.0000 -0.56854432
O   O10       1.0  0.38430  0.87770  0.91090  1.0000 -0.56854432
O   O11       1.0  0.12230  0.61570  0.41090  1.0000 -0.56854432
O   O12       1.0  0.61570  0.12230  0.08910  1.0000 -0.56854432
O   O13       1.0  0.06470  0.47090  0.60710  1.0000 -0.5600625791
O   O14       1.0  0.47090  0.06470  0.89290  1.0000 -0.5600625791
O   O15       1.0  0.93530  0.52910  0.39290  1.0000 -0.5600625791
O   O16       1.0  0.52910  0.93530  0.10710  1.0000 -0.5600625791
O   O17       1.0  0.73520  0.02840  0.97990  1.0000 -0.6956564703
O   O18       1.0  0.02840  0.73520  0.52010  1.0000 -0.6956564703
O   O19       1.0  0.26480  0.97160  0.02010  1.0000 -0.6956564703
O   O20       1.0  0.97160  0.26480  0.47990  1.0000 -0.6956564703
