# DDEC6 charges by PACMAN v1.1 (https://github.com/mtap-research/PACMAN-charge/)
data_2009[Cu][dia]3[FSR]1
_chemical_formula_sum              "Cu6 H72 C84 N12 O20"
_cell_length_a       15.0482
_cell_length_b       15.0482
_cell_length_c       12.877
_cell_angle_alpha    74.9418
_cell_angle_beta     105.058
_cell_angle_gamma    82.2322

_symmetry_space_group_name_H-M    "P 1"
_symmetry_Int_Tables_number       1

loop_
  _symmetry_equiv_pos_as_xyz
  'x, y, z'

loop_
  _atom_site_type_symbol
  _atom_site_label
  _atom_site_symmetry_multiplicity
  _atom_site_fract_x
  _atom_site_fract_y
  _atom_site_fract_z
  _atom_site_occupancy
  _atom_site_charge
Cu  Cu1       1.0  0.74329  0.73441  0.45202  1.0000 0.7918810512
Cu  Cu2       1.0  0.73441  0.74329  0.04798  1.0000 0.7918810512
Cu  Cu3       1.0  0.25671  0.26559  0.54798  1.0000 0.7918810512
Cu  Cu4       1.0  0.26559  0.25671  0.95202  1.0000 0.7918810512
Cu  Cu5       1.0  0.63788  0.63788  0.25000  1.0000 0.7918810512
Cu  Cu6       1.0  0.36212  0.36212  0.75000  1.0000 0.7918810512
H   H1        1.0  0.75050  0.54410  0.61980  1.0000 0.1102446525
H   H2        1.0  0.54410  0.75050  0.88020  1.0000 0.1102446525
H   H3        1.0  0.24950  0.45590  0.38020  1.0000 0.1102446525
H   H4        1.0  0.45590  0.24950  0.11980  1.0000 0.1102446525
H   H5        1.0  0.85570  0.44310  0.78710  1.0000 0.1213802961
H   H6        1.0  0.44310  0.85570  0.71290  1.0000 0.1213802961
H   H7        1.0  0.14430  0.55690  0.21290  1.0000 0.1213802961
H   H8        1.0  0.55690  0.14430  0.28710  1.0000 0.1213802961
H   H9        1.0  0.99670  0.48050  0.86290  1.0000 0.1213802961
H   H10       1.0  0.48050  0.99670  0.63710  1.0000 0.1213802961
H   H11       1.0  0.00330  0.51950  0.13710  1.0000 0.1213802961
H   H12       1.0  0.51950  0.00330  0.36290  1.0000 0.1213802961
H   H13       1.0  0.03330  0.61670  0.76600  1.0000 0.1381014538
H   H14       1.0  0.61670  0.03330  0.73400  1.0000 0.1381014538
H   H15       1.0  0.96670  0.38330  0.23400  1.0000 0.1381014538
H   H16       1.0  0.38330  0.96670  0.26600  1.0000 0.1381014538
H   H17       1.0  0.05960  0.74560  0.65790  1.0000 0.1291650673
H   H18       1.0  0.74560  0.05960  0.84210  1.0000 0.1291650673
H   H19       1.0  0.94040  0.25440  0.34210  1.0000 0.1291650673
H   H20       1.0  0.25440  0.94040  0.15790  1.0000 0.1291650673
H   H21       1.0  0.07510  0.88170  0.53430  1.0000 0.1102446525
H   H22       1.0  0.88170  0.07510  0.96570  1.0000 0.1102446525
H   H23       1.0  0.92490  0.11830  0.46570  1.0000 0.1102446525
H   H24       1.0  0.11830  0.92490  0.03430  1.0000 0.1102446525
H   H25       1.0  0.95240  0.95960  0.36870  1.0000 0.1213802961
H   H26       1.0  0.95960  0.95240  0.13130  1.0000 0.1213802961
H   H27       1.0  0.04760  0.04040  0.63130  1.0000 0.1213802961
H   H28       1.0  0.04040  0.04760  0.86870  1.0000 0.1213802961
H   H29       1.0  0.81770  0.90070  0.33070  1.0000 0.1102446525
H   H30       1.0  0.90070  0.81770  0.16930  1.0000 0.1102446525
H   H31       1.0  0.18230  0.09930  0.66930  1.0000 0.1102446525
H   H32       1.0  0.09930  0.18230  0.83070  1.0000 0.1102446525
H   H33       1.0  0.44860  0.77940  0.13480  1.0000 0.1102446525
H   H34       1.0  0.77940  0.44860  0.36520  1.0000 0.1102446525
H   H35       1.0  0.55140  0.22060  0.86520  1.0000 0.1102446525
H   H36       1.0  0.22060  0.55140  0.63480  1.0000 0.1102446525
H   H37       1.0  0.29050  0.77270  0.09210  1.0000 0.1213802961
H   H38       1.0  0.77270  0.29050  0.40790  1.0000 0.1213802961
H   H39       1.0  0.70950  0.22730  0.90790  1.0000 0.1213802961
H   H40       1.0  0.22730  0.70950  0.59210  1.0000 0.1213802961
H   H41       1.0  0.24970  0.62830  0.13280  1.0000 0.1102446525
H   H42       1.0  0.62830  0.24970  0.36720  1.0000 0.1102446525
H   H43       1.0  0.75030  0.37170  0.86720  1.0000 0.1102446525
H   H44       1.0  0.37170  0.75030  0.63280  1.0000 0.1102446525
H   H45       1.0  0.36760  0.49080  0.21710  1.0000 0.1381014538
H   H46       1.0  0.49080  0.36760  0.28290  1.0000 0.1381014538
H   H47       1.0  0.63240  0.50920  0.78290  1.0000 0.1381014538
H   H48       1.0  0.50920  0.63240  0.71710  1.0000 0.1381014538
H   H49       1.0  0.61110  0.98790  0.15360  1.0000 0.1291650673
H   H50       1.0  0.98790  0.61110  0.34640  1.0000 0.1291650673
H   H51       1.0  0.38890  0.01210  0.84640  1.0000 0.1291650673
H   H52       1.0  0.01210  0.38890  0.65360  1.0000 0.1291650673
H   H53       1.0  0.50440  0.90120  0.01710  1.0000 0.1047524427
H   H54       1.0  0.90120  0.50440  0.48290  1.0000 0.1047524427
H   H55       1.0  0.49560  0.09880  0.98290  1.0000 0.1047524427
H   H56       1.0  0.09880  0.49560  0.51710  1.0000 0.1047524427
H   H57       1.0  0.43160  0.64960  0.43320  1.0000 0.1213802961
H   H58       1.0  0.64960  0.43160  0.06680  1.0000 0.1213802961
H   H59       1.0  0.56840  0.35040  0.56680  1.0000 0.1213802961
H   H60       1.0  0.35040  0.56840  0.93320  1.0000 0.1213802961
H   H61       1.0  0.59480  0.51060  0.51020  1.0000 0.1102446525
H   H62       1.0  0.51060  0.59480  0.98980  1.0000 0.1102446525
H   H63       1.0  0.40520  0.48940  0.48980  1.0000 0.1102446525
H   H64       1.0  0.48940  0.40520  0.01020  1.0000 0.1102446525
H   H65       1.0  0.69400  0.87400  0.53800  1.0000 0.234725601
H   H66       1.0  0.87400  0.69400  0.96200  1.0000 0.2351967161
H   H67       1.0  0.30600  0.12600  0.46200  1.0000 0.234725601
H   H68       1.0  0.12600  0.30600  0.03800  1.0000 0.2351967161
H   H69       1.0  0.62520  0.83540  0.51500  1.0000 0.2790313129
H   H70       1.0  0.83540  0.62520  0.98500  1.0000 0.2790313129
H   H71       1.0  0.37480  0.16460  0.48500  1.0000 0.2790313129
H   H72       1.0  0.16460  0.37480  0.01500  1.0000 0.2790313129
C   C1        1.0  0.80875  0.55875  0.64910  1.0000 0.0809788787
C   C2        1.0  0.55875  0.80875  0.85090  1.0000 0.0809788787
C   C3        1.0  0.19125  0.44125  0.35090  1.0000 0.0809788787
C   C4        1.0  0.44125  0.19125  0.14910  1.0000 0.0809788787
C   C5        1.0  0.87099  0.49861  0.74960  1.0000 -0.1514059203
C   C6        1.0  0.49861  0.87099  0.75040  1.0000 -0.1514059203
C   C7        1.0  0.12901  0.50139  0.25040  1.0000 -0.1514059203
C   C8        1.0  0.50139  0.12901  0.24960  1.0000 -0.1514059203
C   C9        1.0  0.95410  0.52010  0.79370  1.0000 -0.0284321467
C   C10       1.0  0.52010  0.95410  0.70630  1.0000 -0.0284321467
C   C11       1.0  0.04590  0.47990  0.20630  1.0000 -0.0284321467
C   C12       1.0  0.47990  0.04590  0.29370  1.0000 -0.0284321467
C   C13       1.0  0.97580  0.60080  0.73620  1.0000 -0.1608532174
C   C14       1.0  0.60080  0.97580  0.76380  1.0000 -0.1608532174
C   C15       1.0  0.02420  0.39920  0.26380  1.0000 -0.1608532174
C   C16       1.0  0.39920  0.02420  0.23620  1.0000 -0.1608532174
C   C17       1.0  0.91263  0.65835  0.63440  1.0000 0.1534222094
C   C18       1.0  0.65835  0.91263  0.86560  1.0000 0.1534222094
C   C19       1.0  0.08737  0.34165  0.36560  1.0000 0.1534222094
C   C20       1.0  0.34165  0.08737  0.13440  1.0000 0.1534222094
C   C21       1.0  0.92952  0.74416  0.56370  1.0000 0.159986115
C   C22       1.0  0.74416  0.92952  0.93630  1.0000 0.159986115
C   C23       1.0  0.07048  0.25584  0.43630  1.0000 0.159986115
C   C24       1.0  0.25584  0.07048  0.06370  1.0000 0.159986115
C   C25       1.0  0.01075  0.77775  0.59030  1.0000 -0.1815662767
C   C26       1.0  0.77775  0.01075  0.90970  1.0000 -0.1815662767
C   C27       1.0  0.98925  0.22225  0.40970  1.0000 -0.1815662767
C   C28       1.0  0.22225  0.98925  0.09030  1.0000 -0.1815662767
C   C29       1.0  0.01996  0.85836  0.51740  1.0000 -0.0496245167
C   C30       1.0  0.85836  0.01996  0.98260  1.0000 -0.0496245167
C   C31       1.0  0.98004  0.14164  0.48260  1.0000 -0.0496245167
C   C32       1.0  0.14164  0.98004  0.01740  1.0000 -0.0496245167
C   C33       1.0  0.94761  0.90441  0.41970  1.0000 -0.1712319637
C   C34       1.0  0.90441  0.94761  0.08030  1.0000 -0.1712319637
C   C35       1.0  0.05239  0.09559  0.58030  1.0000 -0.1712319637
C   C36       1.0  0.09559  0.05239  0.91970  1.0000 -0.1712319637
C   C37       1.0  0.86760  0.86872  0.39730  1.0000 0.0731608131
C   C38       1.0  0.86872  0.86760  0.10270  1.0000 0.0731608131
C   C39       1.0  0.13240  0.13128  0.60270  1.0000 0.0731608131
C   C40       1.0  0.13128  0.13240  0.89730  1.0000 0.0731608131
C   C41       1.0  0.43195  0.72047  0.15170  1.0000 0.0809788787
C   C42       1.0  0.72047  0.43195  0.34830  1.0000 0.0809788787
C   C43       1.0  0.56805  0.27953  0.84830  1.0000 0.0809788787
C   C44       1.0  0.27953  0.56805  0.65170  1.0000 0.0809788787
C   C45       1.0  0.33741  0.71687  0.12590  1.0000 -0.1514059203
C   C46       1.0  0.71687  0.33741  0.37410  1.0000 -0.1514059203
C   C47       1.0  0.66259  0.28313  0.87410  1.0000 -0.1514059203
C   C48       1.0  0.28313  0.66259  0.62590  1.0000 -0.1514059203
C   C49       1.0  0.31352  0.63172  0.14990  1.0000 -0.0374817672
C   C50       1.0  0.63172  0.31352  0.35010  1.0000 -0.0374817672
C   C51       1.0  0.68648  0.36828  0.85010  1.0000 -0.0374817672
C   C52       1.0  0.36828  0.68648  0.64990  1.0000 -0.0374817672
C   C53       1.0  0.38335  0.55015  0.19970  1.0000 -0.1608532174
C   C54       1.0  0.55015  0.38335  0.30030  1.0000 -0.1608532174
C   C55       1.0  0.61665  0.44985  0.80030  1.0000 -0.1608532174
C   C56       1.0  0.44985  0.61665  0.69970  1.0000 -0.1608532174
C   C57       1.0  0.47695  0.55741  0.22360  1.0000 0.159986115
C   C58       1.0  0.55741  0.47695  0.27640  1.0000 0.159986115
C   C59       1.0  0.52305  0.44259  0.77640  1.0000 0.159986115
C   C60       1.0  0.44259  0.52305  0.72360  1.0000 0.159986115
C   C61       1.0  0.63319  0.84021  0.21410  1.0000 0.6056568091
C   C62       1.0  0.84021  0.63319  0.28590  1.0000 0.6056568091
C   C63       1.0  0.36681  0.15979  0.78590  1.0000 0.6056568091
C   C64       1.0  0.15979  0.36681  0.71410  1.0000 0.6056568091
C   C65       1.0  0.59001  0.93649  0.13450  1.0000 -0.2601446942
C   C66       1.0  0.93649  0.59001  0.36550  1.0000 -0.2601446942
C   C67       1.0  0.40999  0.06351  0.86550  1.0000 -0.2601446942
C   C68       1.0  0.06351  0.40999  0.63450  1.0000 -0.2601446942
C   C69       1.0  0.52303  0.95301  0.03780  1.0000 -0.0892416419
C   C70       1.0  0.95301  0.52303  0.46220  1.0000 -0.084358261
C   C71       1.0  0.47697  0.04699  0.96220  1.0000 -0.0892416419
C   C72       1.0  0.04699  0.47697  0.53780  1.0000 -0.0892416419
C   C73       1.0  0.55780  0.69620  0.44120  1.0000 0.6001966958
C   C74       1.0  0.69620  0.55780  0.05880  1.0000 0.6001966958
C   C75       1.0  0.44220  0.30380  0.55880  1.0000 0.6001966958
C   C76       1.0  0.30380  0.44220  0.94120  1.0000 0.6001966958
C   C77       1.0  0.49696  0.62662  0.45370  1.0000 -0.2601446942
C   C78       1.0  0.62662  0.49696  0.04630  1.0000 -0.2601446942
C   C79       1.0  0.50304  0.37338  0.54630  1.0000 -0.2601446942
C   C80       1.0  0.37338  0.50304  0.95370  1.0000 -0.2601446942
C   C81       1.0  0.52967  0.53373  0.49220  1.0000 -0.0892416419
C   C82       1.0  0.53373  0.52967  0.00780  1.0000 -0.0892416419
C   C83       1.0  0.47033  0.46627  0.50780  1.0000 -0.0892416419
C   C84       1.0  0.46627  0.47033  0.99220  1.0000 -0.0892416419
N   N1        1.0  0.82888  0.63746  0.59210  1.0000 -0.2534077401
N   N2        1.0  0.63746  0.82888  0.90790  1.0000 -0.2534077401
N   N3        1.0  0.17112  0.36254  0.40790  1.0000 -0.2534077401
N   N4        1.0  0.36254  0.17112  0.09210  1.0000 -0.2534077401
N   N5        1.0  0.85854  0.78980  0.46741  1.0000 -0.269724154
N   N6        1.0  0.78980  0.85854  0.03259  1.0000 -0.269724154
N   N7        1.0  0.14146  0.21020  0.53259  1.0000 -0.269724154
N   N8        1.0  0.21020  0.14146  0.96741  1.0000 -0.269724154
N   N9        1.0  0.50015  0.64211  0.20007  1.0000 -0.2601446942
N   N10       1.0  0.64211  0.50015  0.29993  1.0000 -0.2601446942
N   N11       1.0  0.49985  0.35789  0.79993  1.0000 -0.2601446942
N   N12       1.0  0.35789  0.49985  0.70007  1.0000 -0.2601446942
O   O1        1.0  0.67992  0.83530  0.31148  1.0000 -0.5286122496
O   O2        1.0  0.83530  0.67992  0.18852  1.0000 -0.5286122496
O   O3        1.0  0.32008  0.16470  0.68852  1.0000 -0.5286122496
O   O4        1.0  0.16470  0.32008  0.81148  1.0000 -0.5286122496
O   O5        1.0  0.61849  0.77191  0.17650  1.0000 -0.5731387074
O   O6        1.0  0.77191  0.61849  0.32350  1.0000 -0.5731387074
O   O7        1.0  0.38151  0.22809  0.82350  1.0000 -0.5731387074
O   O8        1.0  0.22809  0.38151  0.67650  1.0000 -0.5731387074
O   O9        1.0  0.64103  0.66541  0.44001  1.0000 -0.5957771028
O   O10       1.0  0.66541  0.64103  0.05999  1.0000 -0.5957771028
O   O11       1.0  0.35897  0.33459  0.55999  1.0000 -0.5957771028
O   O12       1.0  0.33459  0.35897  0.94001  1.0000 -0.5957771028
O   O13       1.0  0.52455  0.77893  0.43280  1.0000 -0.559752577
O   O14       1.0  0.77893  0.52455  0.06720  1.0000 -0.559752577
O   O15       1.0  0.47545  0.22107  0.56720  1.0000 -0.559752577
O   O16       1.0  0.22107  0.47545  0.93280  1.0000 -0.559752577
O   O17       1.0  0.68219  0.81967  0.55500  1.0000 -0.692871445
O   O18       1.0  0.81967  0.68219  0.94500  1.0000 -0.692871445
O   O19       1.0  0.31781  0.18033  0.44500  1.0000 -0.692871445
O   O20       1.0  0.18033  0.31781  0.05500  1.0000 -0.692871445
