# DDEC6 charges by PACMAN v1.1 (https://github.com/mtap-research/PACMAN-charge/)
data_2009[Cu][tbo]3[FSR]4
_chemical_formula_sum              "Cu12 H24 C72 O48"
_cell_length_a       18.615
_cell_length_b       18.615
_cell_length_c       18.615
_cell_angle_alpha    60
_cell_angle_beta     60
_cell_angle_gamma    60

_symmetry_space_group_name_H-M    "P 1"
_symmetry_Int_Tables_number       1

loop_
  _symmetry_equiv_pos_as_xyz
  'x, y, z'

loop_
  _atom_site_type_symbol
  _atom_site_label
  _atom_site_symmetry_multiplicity
  _atom_site_fract_x
  _atom_site_fract_y
  _atom_site_fract_z
  _atom_site_occupancy
  _atom_site_charge
Cu  Cu1       1.0  0.00000  0.00000  0.56854  1.0000 0.8423612569
Cu  Cu2       1.0  0.56854  0.00000  0.00000  1.0000 0.8423612569
Cu  Cu3       1.0  0.00000  0.56854  0.00000  1.0000 0.8423612569
Cu  Cu4       1.0  0.00000  0.43146  0.56854  1.0000 0.8423612569
Cu  Cu5       1.0  0.56854  0.00000  0.43146  1.0000 0.8423612569
Cu  Cu6       1.0  0.43146  0.00000  0.56854  1.0000 0.8423612569
Cu  Cu7       1.0  0.56854  0.43146  0.00000  1.0000 0.8423612569
Cu  Cu8       1.0  0.00000  0.56854  0.43146  1.0000 0.8423612569
Cu  Cu9       1.0  0.43146  0.56854  0.00000  1.0000 0.8423612569
Cu  Cu10      1.0  0.00000  0.00000  0.43146  1.0000 0.8423612569
Cu  Cu11      1.0  0.43146  0.00000  0.00000  1.0000 0.8423612569
Cu  Cu12      1.0  0.00000  0.43146  0.00000  1.0000 0.8423612569
H   H1        1.0  0.73473  0.02673  0.73473  1.0000 0.1339651531
H   H2        1.0  0.73473  0.73473  0.02673  1.0000 0.1339651531
H   H3        1.0  0.02673  0.73473  0.73473  1.0000 0.1339651531
H   H4        1.0  0.02673  0.50381  0.73473  1.0000 0.1339651531
H   H5        1.0  0.73473  0.02673  0.50381  1.0000 0.1339651531
H   H6        1.0  0.50381  0.73473  0.73473  1.0000 0.1339651531
H   H7        1.0  0.73473  0.50381  0.73473  1.0000 0.1339651531
H   H8        1.0  0.73473  0.73473  0.50381  1.0000 0.1339651531
H   H9        1.0  0.50381  0.73473  0.02673  1.0000 0.1339651531
H   H10       1.0  0.26527  0.97327  0.49619  1.0000 0.1339651531
H   H11       1.0  0.49619  0.26527  0.97327  1.0000 0.1339651531
H   H12       1.0  0.97327  0.49619  0.26527  1.0000 0.1339651531
H   H13       1.0  0.02673  0.73473  0.50381  1.0000 0.1339651531
H   H14       1.0  0.50381  0.02673  0.73473  1.0000 0.1339651531
H   H15       1.0  0.73473  0.50381  0.02673  1.0000 0.1339651531
H   H16       1.0  0.97327  0.26527  0.26527  1.0000 0.1339651531
H   H17       1.0  0.26527  0.97327  0.26527  1.0000 0.1339651531
H   H18       1.0  0.26527  0.26527  0.97327  1.0000 0.1339651531
H   H19       1.0  0.26527  0.49619  0.26527  1.0000 0.1339651531
H   H20       1.0  0.26527  0.26527  0.49619  1.0000 0.1339651531
H   H21       1.0  0.49619  0.97327  0.26527  1.0000 0.1339651531
H   H22       1.0  0.26527  0.49619  0.97327  1.0000 0.1339651531
H   H23       1.0  0.97327  0.26527  0.49619  1.0000 0.1339651531
H   H24       1.0  0.49619  0.26527  0.26527  1.0000 0.1339651531
C   C1        1.0  0.74316  0.02988  0.61348  1.0000 -0.0192199681
C   C2        1.0  0.61348  0.74316  0.02988  1.0000 -0.0192199681
C   C3        1.0  0.02988  0.61348  0.74316  1.0000 -0.0192199681
C   C4        1.0  0.02988  0.61348  0.61348  1.0000 -0.0192199681
C   C5        1.0  0.61348  0.02988  0.61348  1.0000 -0.0192199681
C   C6        1.0  0.61348  0.74316  0.61348  1.0000 -0.0192199681
C   C7        1.0  0.61348  0.61348  0.74316  1.0000 -0.0192199681
C   C8        1.0  0.74316  0.61348  0.61348  1.0000 -0.0192199681
C   C9        1.0  0.61348  0.61348  0.02988  1.0000 -0.0192199681
C   C10       1.0  0.25684  0.97012  0.38652  1.0000 -0.0192199681
C   C11       1.0  0.38652  0.25684  0.97012  1.0000 -0.0192199681
C   C12       1.0  0.97012  0.38652  0.25684  1.0000 -0.0192199681
C   C13       1.0  0.02988  0.74316  0.61348  1.0000 -0.0192199681
C   C14       1.0  0.61348  0.02988  0.74316  1.0000 -0.0192199681
C   C15       1.0  0.74316  0.61348  0.02988  1.0000 -0.0192199681
C   C16       1.0  0.97012  0.25684  0.38652  1.0000 -0.0192199681
C   C17       1.0  0.38652  0.97012  0.25684  1.0000 -0.0192199681
C   C18       1.0  0.25684  0.38652  0.97012  1.0000 -0.0192199681
C   C19       1.0  0.25684  0.38652  0.38652  1.0000 -0.0192199681
C   C20       1.0  0.38652  0.25684  0.38652  1.0000 -0.0192199681
C   C21       1.0  0.38652  0.97012  0.38652  1.0000 -0.0192199681
C   C22       1.0  0.38652  0.38652  0.97012  1.0000 -0.0192199681
C   C23       1.0  0.97012  0.38652  0.38652  1.0000 -0.0192199681
C   C24       1.0  0.38652  0.38652  0.25684  1.0000 -0.0192199681
C   C25       1.0  0.83894  0.02274  0.56916  1.0000 0.581013685
C   C26       1.0  0.56916  0.83894  0.02274  1.0000 0.581013685
C   C27       1.0  0.02274  0.56916  0.83894  1.0000 0.581013685
C   C28       1.0  0.02274  0.56916  0.56916  1.0000 0.581013685
C   C29       1.0  0.56916  0.02274  0.56916  1.0000 0.581013685
C   C30       1.0  0.56916  0.83894  0.56916  1.0000 0.581013685
C   C31       1.0  0.56916  0.56916  0.83894  1.0000 0.581013685
C   C32       1.0  0.83894  0.56916  0.56916  1.0000 0.581013685
C   C33       1.0  0.56916  0.56916  0.02274  1.0000 0.581013685
C   C34       1.0  0.16106  0.97726  0.43084  1.0000 0.581013685
C   C35       1.0  0.43084  0.16106  0.97726  1.0000 0.581013685
C   C36       1.0  0.97726  0.43084  0.16106  1.0000 0.581013685
C   C37       1.0  0.02274  0.83894  0.56916  1.0000 0.581013685
C   C38       1.0  0.56916  0.02274  0.83894  1.0000 0.581013685
C   C39       1.0  0.83894  0.56916  0.02274  1.0000 0.581013685
C   C40       1.0  0.97726  0.16106  0.43084  1.0000 0.581013685
C   C41       1.0  0.43084  0.97726  0.16106  1.0000 0.581013685
C   C42       1.0  0.16106  0.43084  0.97726  1.0000 0.581013685
C   C43       1.0  0.16106  0.43084  0.43084  1.0000 0.581013685
C   C44       1.0  0.43084  0.16106  0.43084  1.0000 0.581013685
C   C45       1.0  0.43084  0.97726  0.43084  1.0000 0.581013685
C   C46       1.0  0.43084  0.43084  0.97726  1.0000 0.581013685
C   C47       1.0  0.97726  0.43084  0.43084  1.0000 0.581013685
C   C48       1.0  0.43084  0.43084  0.16106  1.0000 0.581013685
C   C49       1.0  0.70058  0.02920  0.70058  1.0000 -0.0895360875
C   C50       1.0  0.70058  0.70058  0.02920  1.0000 -0.0895360875
C   C51       1.0  0.02920  0.70058  0.70058  1.0000 -0.0895360875
C   C52       1.0  0.02920  0.56964  0.70058  1.0000 -0.0895360875
C   C53       1.0  0.70058  0.02920  0.56964  1.0000 -0.0895360875
C   C54       1.0  0.56964  0.70058  0.70058  1.0000 -0.0895360875
C   C55       1.0  0.70058  0.56964  0.70058  1.0000 -0.0895360875
C   C56       1.0  0.70058  0.70058  0.56964  1.0000 -0.0895360875
C   C57       1.0  0.56964  0.70058  0.02920  1.0000 -0.0895360875
C   C58       1.0  0.29942  0.97080  0.43036  1.0000 -0.0895360875
C   C59       1.0  0.43036  0.29942  0.97080  1.0000 -0.0895360875
C   C60       1.0  0.97080  0.43036  0.29942  1.0000 -0.0895360875
C   C61       1.0  0.02920  0.70058  0.56964  1.0000 -0.0895360875
C   C62       1.0  0.56964  0.02920  0.70058  1.0000 -0.0895360875
C   C63       1.0  0.70058  0.56964  0.02920  1.0000 -0.0895360875
C   C64       1.0  0.97080  0.29942  0.29942  1.0000 -0.0895360875
C   C65       1.0  0.29942  0.97080  0.29942  1.0000 -0.0895360875
C   C66       1.0  0.29942  0.29942  0.97080  1.0000 -0.0895360875
C   C67       1.0  0.29942  0.43036  0.29942  1.0000 -0.0895360875
C   C68       1.0  0.29942  0.29942  0.43036  1.0000 -0.0895360875
C   C69       1.0  0.43036  0.97080  0.29942  1.0000 -0.0895360875
C   C70       1.0  0.29942  0.43036  0.97080  1.0000 -0.0895360875
C   C71       1.0  0.97080  0.29942  0.43036  1.0000 -0.0895360875
C   C72       1.0  0.43036  0.29942  0.29942  1.0000 -0.0895360875
O   O1        1.0  0.87411  0.02065  0.61343  1.0000 -0.5136341394
O   O2        1.0  0.61343  0.87411  0.02065  1.0000 -0.5136341394
O   O3        1.0  0.02065  0.61343  0.87411  1.0000 -0.5136341394
O   O4        1.0  0.02065  0.49181  0.61343  1.0000 -0.5136341394
O   O5        1.0  0.61343  0.02065  0.49181  1.0000 -0.5136341394
O   O6        1.0  0.49181  0.87411  0.61343  1.0000 -0.5136341394
O   O7        1.0  0.61343  0.49181  0.87411  1.0000 -0.5136341394
O   O8        1.0  0.87411  0.61343  0.49181  1.0000 -0.5136341394
O   O9        1.0  0.49181  0.61343  0.02065  1.0000 -0.5136341394
O   O10       1.0  0.12589  0.97935  0.50819  1.0000 -0.5136341394
O   O11       1.0  0.50819  0.12589  0.97935  1.0000 -0.5136341394
O   O12       1.0  0.97935  0.50819  0.12589  1.0000 -0.5136341394
O   O13       1.0  0.02065  0.87411  0.49181  1.0000 -0.5136341394
O   O14       1.0  0.49181  0.02065  0.87411  1.0000 -0.5136341394
O   O15       1.0  0.87411  0.49181  0.02065  1.0000 -0.5136341394
O   O16       1.0  0.97935  0.12589  0.38657  1.0000 -0.5152557239
O   O17       1.0  0.38657  0.97935  0.12589  1.0000 -0.5136341394
O   O18       1.0  0.12589  0.38657  0.97935  1.0000 -0.5136341394
O   O19       1.0  0.12589  0.50819  0.38657  1.0000 -0.5136341394
O   O20       1.0  0.38657  0.12589  0.50819  1.0000 -0.5136341394
O   O21       1.0  0.50819  0.97935  0.38657  1.0000 -0.5136341394
O   O22       1.0  0.38657  0.50819  0.97935  1.0000 -0.5136341394
O   O23       1.0  0.97935  0.38657  0.50819  1.0000 -0.5136341394
O   O24       1.0  0.50819  0.38657  0.12589  1.0000 -0.5136341394
O   O25       1.0  0.12589  0.97935  0.38657  1.0000 -0.5136341394
O   O26       1.0  0.38657  0.12589  0.97935  1.0000 -0.5136341394
O   O27       1.0  0.97935  0.38657  0.12589  1.0000 -0.5136341394
O   O28       1.0  0.97935  0.50819  0.38657  1.0000 -0.5136341394
O   O29       1.0  0.38657  0.97935  0.50819  1.0000 -0.5136341394
O   O30       1.0  0.50819  0.12589  0.38657  1.0000 -0.5136341394
O   O31       1.0  0.38657  0.50819  0.12589  1.0000 -0.5136341394
O   O32       1.0  0.12589  0.38657  0.50819  1.0000 -0.5136341394
O   O33       1.0  0.50819  0.38657  0.97935  1.0000 -0.5136341394
O   O34       1.0  0.87411  0.02065  0.49181  1.0000 -0.5136341394
O   O35       1.0  0.49181  0.87411  0.02065  1.0000 -0.5136341394
O   O36       1.0  0.02065  0.49181  0.87411  1.0000 -0.5136341394
O   O37       1.0  0.97935  0.12589  0.50819  1.0000 -0.5136341394
O   O38       1.0  0.50819  0.97935  0.12589  1.0000 -0.5136341394
O   O39       1.0  0.12589  0.50819  0.97935  1.0000 -0.5152557239
O   O40       1.0  0.02065  0.87411  0.61343  1.0000 -0.5136341394
O   O41       1.0  0.61343  0.02065  0.87411  1.0000 -0.5136341394
O   O42       1.0  0.87411  0.61343  0.02065  1.0000 -0.5136341394
O   O43       1.0  0.87411  0.49181  0.61343  1.0000 -0.5136341394
O   O44       1.0  0.61343  0.87411  0.49181  1.0000 -0.5136341394
O   O45       1.0  0.49181  0.02065  0.61343  1.0000 -0.5136341394
O   O46       1.0  0.61343  0.49181  0.02065  1.0000 -0.5136341394
O   O47       1.0  0.02065  0.61343  0.49181  1.0000 -0.5136341394
O   O48       1.0  0.49181  0.61343  0.87411  1.0000 -0.5136341394
