# DDEC6 charges by PACMAN v1.1 (https://github.com/mtap-research/PACMAN-charge/)
data_2009[Ga][bpq]3[FSR]2
_chemical_formula_sum              "Ga8 H32 C64 O40"
_cell_length_a       6.68117
_cell_length_b       15.1642
_cell_length_c       19.2394
_cell_angle_alpha    90
_cell_angle_beta     95.9154
_cell_angle_gamma    90

_symmetry_space_group_name_H-M    "P 1"
_symmetry_Int_Tables_number       1

loop_
  _symmetry_equiv_pos_as_xyz
  'x, y, z'

loop_
  _atom_site_type_symbol
  _atom_site_label
  _atom_site_symmetry_multiplicity
  _atom_site_fract_x
  _atom_site_fract_y
  _atom_site_fract_z
  _atom_site_occupancy
  _atom_site_charge
Ga  Ga1       1.0  0.01928  0.74604  0.50432  1.0000 1.3654881326
Ga  Ga2       1.0  0.48072  0.24604  0.49568  1.0000 1.3654881326
Ga  Ga3       1.0  0.98072  0.25396  0.49568  1.0000 1.3648428527
Ga  Ga4       1.0  0.51928  0.75396  0.50432  1.0000 1.3648428527
Ga  Ga5       1.0  0.00000  0.00000  0.00000  1.0000 1.3381378261
Ga  Ga6       1.0  0.50000  0.50000  0.00000  1.0000 1.3381378261
Ga  Ga7       1.0  0.50000  0.00000  0.00000  1.0000 1.3493685929
Ga  Ga8       1.0  0.00000  0.50000  0.00000  1.0000 1.3493685929
H   H1        1.0  0.05727  0.87526  0.33119  1.0000 0.1384452322
H   H2        1.0  0.44273  0.37526  0.66881  1.0000 0.1384452322
H   H3        1.0  0.94273  0.12474  0.66881  1.0000 0.1384452322
H   H4        1.0  0.55727  0.62474  0.33119  1.0000 0.1384452322
H   H5        1.0  0.44831  0.85727  0.29176  1.0000 0.1274663491
H   H6        1.0  0.05169  0.35727  0.70824  1.0000 0.1274663491
H   H7        1.0  0.55169  0.14273  0.70824  1.0000 0.1274663491
H   H8        1.0  0.94831  0.64273  0.29176  1.0000 0.1274663491
H   H9        1.0  0.08149  0.90628  0.21268  1.0000 0.1274663491
H   H10       1.0  0.41851  0.40628  0.78732  1.0000 0.1274663491
H   H11       1.0  0.91851  0.09372  0.78732  1.0000 0.1274663491
H   H12       1.0  0.58149  0.59372  0.21268  1.0000 0.1274663491
H   H13       1.0  0.47252  0.88829  0.17324  1.0000 0.1384452322
H   H14       1.0  0.02748  0.38829  0.82676  1.0000 0.1384452322
H   H15       1.0  0.52748  0.11171  0.82676  1.0000 0.1384452322
H   H16       1.0  0.97252  0.61171  0.17324  1.0000 0.1384452322
H   H17       1.0  0.02772  0.85637  0.83680  1.0000 0.1384452322
H   H18       1.0  0.47228  0.35637  0.16320  1.0000 0.1384452322
H   H19       1.0  0.97228  0.14363  0.16320  1.0000 0.1384452322
H   H20       1.0  0.52772  0.64363  0.83680  1.0000 0.1384452322
H   H21       1.0  0.44732  0.93188  0.78401  1.0000 0.1243298447
H   H22       1.0  0.05268  0.43188  0.21599  1.0000 0.1243298447
H   H23       1.0  0.55268  0.06812  0.21599  1.0000 0.1243298447
H   H24       1.0  0.94732  0.56812  0.78401  1.0000 0.1243298447
H   H25       1.0  0.06010  0.82311  0.71918  1.0000 0.1274663491
H   H26       1.0  0.43990  0.32311  0.28082  1.0000 0.1274663491
H   H27       1.0  0.93990  0.17689  0.28082  1.0000 0.1274663491
H   H28       1.0  0.56010  0.67689  0.71918  1.0000 0.1274663491
H   H29       1.0  0.47970  0.89861  0.66639  1.0000 0.1384452322
H   H30       1.0  0.02030  0.39861  0.33361  1.0000 0.1384452322
H   H31       1.0  0.52030  0.10139  0.33361  1.0000 0.1384452322
H   H32       1.0  0.97970  0.60139  0.66639  1.0000 0.1384452322
C   C1        1.0  0.73553  0.84416  0.39595  1.0000 0.5970549909
C   C2        1.0  0.76447  0.34416  0.60405  1.0000 0.5970549909
C   C3        1.0  0.26447  0.15584  0.60405  1.0000 0.5970549909
C   C4        1.0  0.23553  0.65584  0.39595  1.0000 0.5970549909
C   C5        1.0  0.75078  0.86369  0.32131  1.0000 -0.0170788779
C   C6        1.0  0.74922  0.36369  0.67869  1.0000 -0.0170788779
C   C7        1.0  0.24922  0.13631  0.67869  1.0000 -0.0170788779
C   C8        1.0  0.25078  0.63631  0.32131  1.0000 -0.0170788779
C   C9        1.0  0.93535  0.87798  0.29826  1.0000 -0.0936541127
C   C10       1.0  0.56465  0.37798  0.70174  1.0000 -0.0936541127
C   C11       1.0  0.06465  0.12202  0.70174  1.0000 -0.0936541127
C   C12       1.0  0.43535  0.62202  0.29826  1.0000 -0.0936541127
C   C13       1.0  0.58033  0.86749  0.27527  1.0000 -0.0971450631
C   C14       1.0  0.91967  0.36749  0.72473  1.0000 -0.0971450631
C   C15       1.0  0.41967  0.13251  0.72473  1.0000 -0.0971450631
C   C16       1.0  0.08033  0.63251  0.27527  1.0000 -0.0971450631
C   C17       1.0  0.94947  0.89606  0.22917  1.0000 -0.0971450631
C   C18       1.0  0.55053  0.39606  0.77083  1.0000 -0.0971450631
C   C19       1.0  0.05053  0.10394  0.77083  1.0000 -0.0971450631
C   C20       1.0  0.44947  0.60394  0.22917  1.0000 -0.0971450631
C   C21       1.0  0.59445  0.88558  0.20618  1.0000 -0.0971450631
C   C22       1.0  0.90555  0.38558  0.79382  1.0000 -0.0971450631
C   C23       1.0  0.40555  0.11442  0.79382  1.0000 -0.0971450631
C   C24       1.0  0.09445  0.61442  0.20618  1.0000 -0.0971450631
C   C25       1.0  0.77902  0.89986  0.18313  1.0000 -0.0170788779
C   C26       1.0  0.72098  0.39986  0.81687  1.0000 -0.0170788779
C   C27       1.0  0.22098  0.10014  0.81687  1.0000 -0.0170788779
C   C28       1.0  0.27902  0.60014  0.18313  1.0000 -0.0170788779
C   C29       1.0  0.79427  0.91940  0.10849  1.0000 0.5892440558
C   C30       1.0  0.70573  0.41940  0.89151  1.0000 0.5892440558
C   C31       1.0  0.20573  0.08060  0.89151  1.0000 0.5892440558
C   C32       1.0  0.29427  0.58060  0.10849  1.0000 0.5970549909
C   C33       1.0  0.71443  0.91783  0.89423  1.0000 0.5892440558
C   C34       1.0  0.78557  0.41783  0.10577  1.0000 0.5892440558
C   C35       1.0  0.28557  0.08217  0.10577  1.0000 0.5892440558
C   C36       1.0  0.21443  0.58217  0.89423  1.0000 0.5892440558
C   C37       1.0  0.73483  0.89688  0.82016  1.0000 -0.0170788779
C   C38       1.0  0.76517  0.39688  0.17984  1.0000 -0.0170788779
C   C39       1.0  0.26517  0.10312  0.17984  1.0000 -0.0170788779
C   C40       1.0  0.23483  0.60312  0.82016  1.0000 -0.0170788779
C   C41       1.0  0.91345  0.86518  0.80127  1.0000 -0.0971450631
C   C42       1.0  0.58655  0.36518  0.19873  1.0000 -0.0971450631
C   C43       1.0  0.08655  0.13482  0.19873  1.0000 -0.0971450631
C   C44       1.0  0.41345  0.63482  0.80127  1.0000 -0.0971450631
C   C45       1.0  0.57509  0.90920  0.77049  1.0000 -0.0971450631
C   C46       1.0  0.92491  0.40920  0.22951  1.0000 -0.0971450631
C   C47       1.0  0.42491  0.09080  0.22951  1.0000 -0.0971450631
C   C48       1.0  0.07509  0.59080  0.77049  1.0000 -0.0971450631
C   C49       1.0  0.93233  0.84579  0.73270  1.0000 -0.0971450631
C   C50       1.0  0.56767  0.34579  0.26730  1.0000 -0.0971450631
C   C51       1.0  0.06767  0.15421  0.26730  1.0000 -0.0971450631
C   C52       1.0  0.43233  0.65421  0.73270  1.0000 -0.0971450631
C   C53       1.0  0.59397  0.88981  0.70192  1.0000 -0.0971450631
C   C54       1.0  0.90603  0.38981  0.29808  1.0000 -0.0971450631
C   C55       1.0  0.40603  0.11019  0.29808  1.0000 -0.0971450631
C   C56       1.0  0.09397  0.61019  0.70192  1.0000 -0.0971450631
C   C57       1.0  0.77259  0.85810  0.68303  1.0000 -0.0139452855
C   C58       1.0  0.72741  0.35810  0.31697  1.0000 -0.0139452855
C   C59       1.0  0.22741  0.14190  0.31697  1.0000 -0.0139452855
C   C60       1.0  0.27259  0.64190  0.68303  1.0000 -0.0139452855
C   C61       1.0  0.79299  0.83715  0.60896  1.0000 0.5892440558
C   C62       1.0  0.70701  0.33715  0.39104  1.0000 0.5892440558
C   C63       1.0  0.20701  0.16285  0.39104  1.0000 0.5892440558
C   C64       1.0  0.29299  0.66285  0.60896  1.0000 0.5892440558
O   O1        1.0  0.27180  0.81100  0.50100  1.0000 -0.7099506053
O   O2        1.0  0.22820  0.31100  0.49900  1.0000 -0.7099506053
O   O3        1.0  0.72820  0.18900  0.49900  1.0000 -0.7099506053
O   O4        1.0  0.77180  0.68900  0.50100  1.0000 -0.7194853815
O   O5        1.0  0.89300  0.84297  0.43897  1.0000 -0.4974492706
O   O6        1.0  0.60700  0.34297  0.56103  1.0000 -0.4974492706
O   O7        1.0  0.10700  0.15703  0.56103  1.0000 -0.4974492706
O   O8        1.0  0.39300  0.65703  0.43897  1.0000 -0.4974492706
O   O9        1.0  0.56497  0.82858  0.41697  1.0000 -0.4974492706
O   O10       1.0  0.93503  0.32858  0.58303  1.0000 -0.4974492706
O   O11       1.0  0.43503  0.17142  0.58303  1.0000 -0.4974492706
O   O12       1.0  0.06497  0.67142  0.41697  1.0000 -0.4974492706
O   O13       1.0  0.95851  0.80769  0.59145  1.0000 -0.4974492706
O   O14       1.0  0.54149  0.30769  0.40855  1.0000 -0.4974492706
O   O15       1.0  0.04149  0.19231  0.40855  1.0000 -0.4974492706
O   O16       1.0  0.45851  0.69231  0.59145  1.0000 -0.4974492706
O   O17       1.0  0.64496  0.84865  0.56290  1.0000 -0.4804831562
O   O18       1.0  0.85504  0.34865  0.43710  1.0000 -0.4804831562
O   O19       1.0  0.35504  0.15135  0.43710  1.0000 -0.4804831562
O   O20       1.0  0.14496  0.65135  0.56290  1.0000 -0.4804831562
O   O21       1.0  0.96508  0.93397  0.08732  1.0000 -0.4804831562
O   O22       1.0  0.53492  0.43397  0.91268  1.0000 -0.4804831562
O   O23       1.0  0.03492  0.06603  0.91268  1.0000 -0.4804831562
O   O24       1.0  0.46508  0.56603  0.08732  1.0000 -0.4804831562
O   O25       1.0  0.63655  0.92158  0.06561  1.0000 -0.4804831562
O   O26       1.0  0.86345  0.42158  0.93439  1.0000 -0.4804831562
O   O27       1.0  0.36345  0.07842  0.93439  1.0000 -0.4804831562
O   O28       1.0  0.13655  0.57842  0.06561  1.0000 -0.4804831562
O   O29       1.0  0.85933  0.90253  0.94074  1.0000 -0.4927562418
O   O30       1.0  0.64067  0.40253  0.05926  1.0000 -0.4927562418
O   O31       1.0  0.14067  0.09747  0.05926  1.0000 -0.4927562418
O   O32       1.0  0.35933  0.59747  0.94074  1.0000 -0.4927562418
O   O33       1.0  0.75350  0.06360  0.99990  1.0000 -0.6881343367
O   O34       1.0  0.74650  0.56360  0.00010  1.0000 -0.6881343367
O   O35       1.0  0.24650  0.93640  0.00010  1.0000 -0.6881343367
O   O36       1.0  0.25350  0.43640  0.99990  1.0000 -0.6881343367
O   O37       1.0  0.55204  0.95110  0.91129  1.0000 -0.4702947828
O   O38       1.0  0.94796  0.45110  0.08871  1.0000 -0.4702947828
O   O39       1.0  0.44796  0.04890  0.08871  1.0000 -0.4702947828
O   O40       1.0  0.05204  0.54890  0.91129  1.0000 -0.4702947828
