# DDEC6 charges by PACMAN v1.1 (https://github.com/mtap-research/PACMAN-charge/)
data_2009[Zn][pcu]3[FSR]5
_chemical_formula_sum              "Zn4 H52 C80 N8 O16"
_cell_length_a       6.889
_cell_length_b       23.851
_cell_length_c       11.606
_cell_angle_alpha    90
_cell_angle_beta     96.082
_cell_angle_gamma    90

_symmetry_space_group_name_H-M    "P 1"
_symmetry_Int_Tables_number       1

loop_
  _symmetry_equiv_pos_as_xyz
  'x, y, z'

loop_
  _atom_site_type_symbol
  _atom_site_label
  _atom_site_symmetry_multiplicity
  _atom_site_fract_x
  _atom_site_fract_y
  _atom_site_fract_z
  _atom_site_occupancy
  _atom_site_charge
Zn  Zn1       1.0  0.13126  0.48184  0.14180  1.0000 0.8486791111
Zn  Zn2       1.0  0.86874  0.98184  0.35820  1.0000 0.8486791111
Zn  Zn3       1.0  0.86874  0.51816  0.85820  1.0000 0.8486791111
Zn  Zn4       1.0  0.13126  0.01816  0.64180  1.0000 0.8486791111
H   H1        1.0  0.52140  0.58550  0.44640  1.0000 0.2963045097
H   H2        1.0  0.47860  0.08550  0.05360  1.0000 0.2963045097
H   H3        1.0  0.47860  0.41450  0.55360  1.0000 0.2963045097
H   H4        1.0  0.52140  0.91450  0.94640  1.0000 0.2963045097
H   H5        1.0  0.84320  0.58660  0.50780  1.0000 0.1172682072
H   H6        1.0  0.15680  0.08660  0.99220  1.0000 0.1172682072
H   H7        1.0  0.15680  0.41340  0.49220  1.0000 0.1172682072
H   H8        1.0  0.84320  0.91340  0.00780  1.0000 0.1172682072
H   H9        1.0  0.14960  0.57320  0.60820  1.0000 0.1172682072
H   H10       1.0  0.85040  0.07320  0.89180  1.0000 0.1172682072
H   H11       1.0  0.85040  0.42680  0.39180  1.0000 0.1172682072
H   H12       1.0  0.14960  0.92680  0.10820  1.0000 0.1172682072
H   H13       1.0  0.56990  0.45000  0.25860  1.0000 0.1446260965
H   H14       1.0  0.43010  0.95000  0.24140  1.0000 0.1446260965
H   H15       1.0  0.43010  0.55000  0.74140  1.0000 0.1446260965
H   H16       1.0  0.56990  0.05000  0.75860  1.0000 0.1446260965
H   H17       1.0  0.22530  0.57720  0.31970  1.0000 0.1172682072
H   H18       1.0  0.77470  0.07720  0.18030  1.0000 0.1172682072
H   H19       1.0  0.77470  0.42280  0.68030  1.0000 0.1172682072
H   H20       1.0  0.22530  0.92280  0.81970  1.0000 0.1172682072
H   H21       1.0  0.63860  0.69940  0.31150  1.0000 0.1172682072
H   H22       1.0  0.36140  0.19940  0.18850  1.0000 0.1172682072
H   H23       1.0  0.36140  0.30060  0.68850  1.0000 0.1172682072
H   H24       1.0  0.63860  0.80060  0.81150  1.0000 0.1172682072
H   H25       1.0  0.84070  0.62730  0.26320  1.0000 0.1121922105
H   H26       1.0  0.15930  0.12730  0.23680  1.0000 0.1121922105
H   H27       1.0  0.15930  0.37270  0.73680  1.0000 0.1121922105
H   H28       1.0  0.84070  0.87270  0.76320  1.0000 0.1121922105
H   H29       1.0  0.44180  0.58230  0.99990  1.0000 0.1312263168
H   H30       1.0  0.55820  0.08230  0.50010  1.0000 0.1312263168
H   H31       1.0  0.55820  0.41770  0.00010  1.0000 0.1312263168
H   H32       1.0  0.44180  0.91770  0.49990  1.0000 0.1312263168
H   H33       1.0  0.23930  0.65490  0.04700  1.0000 0.1172682072
H   H34       1.0  0.76070  0.15490  0.45300  1.0000 0.1172682072
H   H35       1.0  0.76070  0.34510  0.95300  1.0000 0.1172682072
H   H36       1.0  0.23930  0.84510  0.54700  1.0000 0.1172682072
H   H37       1.0  0.51080  0.78290  0.28890  1.0000 0.1172682072
H   H38       1.0  0.48920  0.28290  0.21110  1.0000 0.1172682072
H   H39       1.0  0.48920  0.21710  0.71110  1.0000 0.1172682072
H   H40       1.0  0.51080  0.71710  0.78890  1.0000 0.1172682072
H   H41       1.0  0.31620  0.85830  0.32900  1.0000 0.1172682072
H   H42       1.0  0.68380  0.35830  0.17100  1.0000 0.1172682072
H   H43       1.0  0.68380  0.14170  0.67100  1.0000 0.1172682072
H   H44       1.0  0.31620  0.64170  0.82900  1.0000 0.1172682072
H   H45       1.0  0.83880  0.77630  0.18570  1.0000 0.1121922105
H   H46       1.0  0.16120  0.27630  0.31430  1.0000 0.1121922105
H   H47       1.0  0.16120  0.22370  0.81430  1.0000 0.1121922105
H   H48       1.0  0.83880  0.72370  0.68570  1.0000 0.1121922105
H   H49       1.0  0.03220  0.70100  0.14340  1.0000 0.1121922105
H   H50       1.0  0.96780  0.20100  0.35660  1.0000 0.1121922105
H   H51       1.0  0.96780  0.29900  0.85660  1.0000 0.1121922105
H   H52       1.0  0.03220  0.79900  0.64340  1.0000 0.1121922105
C   C1        1.0  0.81430  0.50803  0.43900  1.0000 0.0467294051
C   C2        1.0  0.18570  0.00803  0.06100  1.0000 0.0467294051
C   C3        1.0  0.18570  0.49197  0.56100  1.0000 0.0467294051
C   C4        1.0  0.81430  0.99197  0.93900  1.0000 0.0467294051
C   C5        1.0  0.90620  0.55130  0.50430  1.0000 -0.1492001656
C   C6        1.0  0.09380  0.05130  0.99570  1.0000 -0.1492001656
C   C7        1.0  0.09380  0.44870  0.49570  1.0000 -0.1492001656
C   C8        1.0  0.90620  0.94870  0.00430  1.0000 -0.1492001656
C   C9        1.0  0.08890  0.54324  0.56410  1.0000 -0.1386945166
C   C10       1.0  0.91110  0.04324  0.93590  1.0000 -0.1386945166
C   C11       1.0  0.91110  0.45676  0.43590  1.0000 -0.1386945166
C   C12       1.0  0.08890  0.95676  0.06410  1.0000 -0.1386945166
C   C13       1.0  0.62100  0.51470  0.37530  1.0000 0.0941441178
C   C14       1.0  0.37900  0.01470  0.12470  1.0000 0.0941441178
C   C15       1.0  0.37900  0.48530  0.62470  1.0000 0.0941441178
C   C16       1.0  0.62100  0.98530  0.87530  1.0000 0.0941441178
C   C17       1.0  0.52210  0.48320  0.29090  1.0000 -0.0698374429
C   C18       1.0  0.47790  0.98320  0.20910  1.0000 -0.0698374429
C   C19       1.0  0.47790  0.51680  0.70910  1.0000 -0.0698374429
C   C20       1.0  0.52210  0.01680  0.79090  1.0000 -0.0698374429
C   C21       1.0  0.33333  0.55226  0.32380  1.0000 0.1583428836
C   C22       1.0  0.66667  0.05226  0.17620  1.0000 0.1583428836
C   C23       1.0  0.66667  0.44774  0.67620  1.0000 0.1583428836
C   C24       1.0  0.33333  0.94774  0.82380  1.0000 0.1583428836
C   C25       1.0  0.41850  0.68570  0.18280  1.0000 0.0761984817
C   C26       1.0  0.58150  0.18570  0.31720  1.0000 0.0761984817
C   C27       1.0  0.58150  0.31430  0.81720  1.0000 0.0761984817
C   C28       1.0  0.41850  0.81430  0.68280  1.0000 0.0761984817
C   C29       1.0  0.59840  0.67605  0.24700  1.0000 -0.1645288014
C   C30       1.0  0.40160  0.17605  0.25300  1.0000 -0.1651345336
C   C31       1.0  0.40160  0.32395  0.75300  1.0000 -0.1651345336
C   C32       1.0  0.59840  0.82395  0.74700  1.0000 -0.1645288014
C   C33       1.0  0.71880  0.63306  0.21830  1.0000 -0.1158776574
C   C34       1.0  0.28120  0.13306  0.28170  1.0000 -0.1158776574
C   C35       1.0  0.28120  0.36694  0.78170  1.0000 -0.1158776574
C   C36       1.0  0.71880  0.86694  0.71830  1.0000 -0.1158776574
C   C37       1.0  0.66410  0.59845  0.12520  1.0000 -0.028601155
C   C38       1.0  0.33590  0.09845  0.37480  1.0000 -0.028601155
C   C39       1.0  0.33590  0.40155  0.87480  1.0000 -0.028601155
C   C40       1.0  0.66410  0.90155  0.62520  1.0000 -0.028601155
C   C41       1.0  0.48310  0.60654  0.06260  1.0000 -0.0901391202
C   C42       1.0  0.51690  0.10654  0.43740  1.0000 -0.0901391202
C   C43       1.0  0.51690  0.39346  0.93740  1.0000 -0.0901391202
C   C44       1.0  0.48310  0.89346  0.56260  1.0000 -0.0901391202
C   C45       1.0  0.36240  0.64976  0.09100  1.0000 -0.1386945166
C   C46       1.0  0.63760  0.14976  0.40900  1.0000 -0.1386945166
C   C47       1.0  0.63760  0.35024  0.90900  1.0000 -0.1386945166
C   C48       1.0  0.36240  0.85024  0.59100  1.0000 -0.1386945166
C   C49       1.0  0.79920  0.55350  0.09110  1.0000 0.5860669917
C   C50       1.0  0.20080  0.05350  0.40890  1.0000 0.5860669917
C   C51       1.0  0.20080  0.44650  0.90890  1.0000 0.5860669917
C   C52       1.0  0.79920  0.94650  0.59110  1.0000 0.5860669917
C   C53       1.0  0.29300  0.73363  0.21040  1.0000 0.0719424865
C   C54       1.0  0.70700  0.23363  0.28960  1.0000 0.0719424865
C   C55       1.0  0.70700  0.26637  0.78960  1.0000 0.0719424865
C   C56       1.0  0.29300  0.76637  0.71040  1.0000 0.0719424865
C   C57       1.0  0.37400  0.78130  0.26700  1.0000 -0.1386945166
C   C58       1.0  0.62600  0.28130  0.23300  1.0000 -0.1386945166
C   C59       1.0  0.62600  0.21870  0.73300  1.0000 -0.1386945166
C   C60       1.0  0.37400  0.71870  0.76700  1.0000 -0.1386945166
C   C61       1.0  0.25770  0.82617  0.29150  1.0000 -0.098133608
C   C62       1.0  0.74230  0.32617  0.20850  1.0000 -0.098133608
C   C63       1.0  0.74230  0.17383  0.70850  1.0000 -0.098133608
C   C64       1.0  0.25770  0.67383  0.79150  1.0000 -0.098133608
C   C65       1.0  0.05700  0.82503  0.26210  1.0000 -0.028601155
C   C66       1.0  0.94300  0.32503  0.23790  1.0000 -0.028601155
C   C67       1.0  0.94300  0.17497  0.73790  1.0000 -0.028601155
C   C68       1.0  0.05700  0.67497  0.76210  1.0000 -0.028601155
C   C69       1.0  0.97580  0.77788  0.20670  1.0000 -0.1056679555
C   C70       1.0  0.02420  0.27788  0.29330  1.0000 -0.1056679555
C   C71       1.0  0.02420  0.22212  0.79330  1.0000 -0.1056679555
C   C72       1.0  0.97580  0.72212  0.70670  1.0000 -0.1056679555
C   C73       1.0  0.09150  0.73293  0.18140  1.0000 -0.1492001656
C   C74       1.0  0.90850  0.23293  0.31860  1.0000 -0.1386945166
C   C75       1.0  0.90850  0.26707  0.81860  1.0000 -0.1386945166
C   C76       1.0  0.09150  0.76707  0.68140  1.0000 -0.1492001656
C   C77       1.0  0.93260  0.87415  0.28950  1.0000 0.5471916354
C   C78       1.0  0.06740  0.37415  0.21050  1.0000 0.5471916354
C   C79       1.0  0.06740  0.12585  0.71050  1.0000 0.5471916354
C   C80       1.0  0.93260  0.62585  0.78950  1.0000 0.5471916354
N   N1        1.0  0.49690  0.55843  0.39540  1.0000 -0.2392785096
N   N2        1.0  0.50310  0.05843  0.10460  1.0000 -0.2392785096
N   N3        1.0  0.50310  0.44157  0.60460  1.0000 -0.2392785096
N   N4        1.0  0.49690  0.94157  0.89540  1.0000 -0.2392785096
N   N5        1.0  0.34200  0.50686  0.25950  1.0000 -0.2923405909
N   N6        1.0  0.65800  0.00686  0.24050  1.0000 -0.2923405909
N   N7        1.0  0.65800  0.49314  0.74050  1.0000 -0.2923405909
N   N8        1.0  0.34200  0.99314  0.75950  1.0000 -0.2923405909
O   O1        1.0  0.95890  0.54723  0.15370  1.0000 -0.5490316295
O   O2        1.0  0.04110  0.04723  0.34630  1.0000 -0.5490316295
O   O3        1.0  0.04110  0.45277  0.84630  1.0000 -0.5490316295
O   O4        1.0  0.95890  0.95277  0.65370  1.0000 -0.5490316295
O   O5        1.0  0.74730  0.52499  0.00138  1.0000 -0.5490316295
O   O6        1.0  0.25270  0.02499  0.49862  1.0000 -0.5490316295
O   O7        1.0  0.25270  0.47501  0.99862  1.0000 -0.5490316295
O   O8        1.0  0.74730  0.97501  0.50138  1.0000 -0.5490316295
O   O9        1.0  0.02390  0.91492  0.34180  1.0000 -0.55915147
O   O10       1.0  0.97610  0.41492  0.15820  1.0000 -0.55915147
O   O11       1.0  0.97610  0.08508  0.65820  1.0000 -0.55915147
O   O12       1.0  0.02390  0.58508  0.84180  1.0000 -0.55915147
O   O13       1.0  0.75340  0.87321  0.26150  1.0000 -0.55915147
O   O14       1.0  0.24660  0.37321  0.23850  1.0000 -0.55915147
O   O15       1.0  0.24660  0.12679  0.73850  1.0000 -0.55915147
O   O16       1.0  0.75340  0.62679  0.76150  1.0000 -0.55915147
