# DDEC6 charges by PACMAN v1.1 (https://github.com/mtap-research/PACMAN-charge/)
data_2009[Cd][dia]3[FSR]1
_chemical_formula_sum              "Cd4 H116 C118 N12 O16"
_cell_length_a       12.6739
_cell_length_b       12.6739
_cell_length_c       23.307
_cell_angle_alpha    83.0025
_cell_angle_beta     96.9975
_cell_angle_gamma    117.194

_symmetry_space_group_name_H-M    "P 1"
_symmetry_Int_Tables_number       1

loop_
  _symmetry_equiv_pos_as_xyz
  'x, y, z'

loop_
  _atom_site_type_symbol
  _atom_site_label
  _atom_site_symmetry_multiplicity
  _atom_site_fract_x
  _atom_site_fract_y
  _atom_site_fract_z
  _atom_site_occupancy
  _atom_site_charge
Cd  Cd1       1.0  0.23228  0.64954  0.14391  1.0000 0.7603516756
Cd  Cd2       1.0  0.64954  0.23228  0.35609  1.0000 0.7603516756
Cd  Cd3       1.0  0.76772  0.35046  0.85609  1.0000 0.7603516756
Cd  Cd4       1.0  0.35046  0.76772  0.64391  1.0000 0.7603516756
H   H1        1.0  0.42950  0.50130  0.28880  1.0000 0.1377025957
H   H2        1.0  0.50130  0.42950  0.21120  1.0000 0.1377025957
H   H3        1.0  0.57050  0.49870  0.71120  1.0000 0.1377025957
H   H4        1.0  0.49870  0.57050  0.78880  1.0000 0.1377025957
H   H5        1.0  0.33270  0.50370  0.32370  1.0000 0.129684668
H   H6        1.0  0.50370  0.33270  0.17630  1.0000 0.129684668
H   H7        1.0  0.66730  0.49630  0.67630  1.0000 0.129684668
H   H8        1.0  0.49630  0.66730  0.82370  1.0000 0.129684668
H   H9        1.0  0.63310  0.61910  0.31860  1.0000 0.129684668
H   H10       1.0  0.61910  0.63310  0.18140  1.0000 0.129684668
H   H11       1.0  0.36690  0.38090  0.68140  1.0000 0.129684668
H   H12       1.0  0.38090  0.36690  0.81860  1.0000 0.129684668
H   H13       1.0  0.77720  0.75980  0.37650  1.0000 0.0995680253
H   H14       1.0  0.75980  0.77720  0.12350  1.0000 0.0995680253
H   H15       1.0  0.22280  0.24020  0.62350  1.0000 0.0995680253
H   H16       1.0  0.24020  0.22280  0.87650  1.0000 0.0995680253
H   H17       1.0  0.72730  0.87030  0.43040  1.0000 0.1115872429
H   H18       1.0  0.87030  0.72730  0.06960  1.0000 0.1115872429
H   H19       1.0  0.27270  0.12970  0.56960  1.0000 0.1115872429
H   H20       1.0  0.12970  0.27270  0.93040  1.0000 0.1115872429
H   H21       1.0  0.38900  0.69900  0.36840  1.0000 0.129684668
H   H22       1.0  0.69900  0.38900  0.13160  1.0000 0.129684668
H   H23       1.0  0.61100  0.30100  0.63160  1.0000 0.129684668
H   H24       1.0  0.30100  0.61100  0.86840  1.0000 0.129684668
H   H25       1.0  0.43680  0.83540  0.44160  1.0000 0.129684668
H   H26       1.0  0.83540  0.43680  0.05840  1.0000 0.129684668
H   H27       1.0  0.56320  0.16460  0.55840  1.0000 0.129684668
H   H28       1.0  0.16460  0.56320  0.94160  1.0000 0.129684668
H   H29       1.0  0.56110  0.87930  0.47700  1.0000 0.1377025957
H   H30       1.0  0.87930  0.56110  0.02300  1.0000 0.1377025957
H   H31       1.0  0.43890  0.12070  0.52300  1.0000 0.1377025957
H   H32       1.0  0.12070  0.43890  0.97700  1.0000 0.1377025957
H   H33       1.0  0.51590  0.84770  0.13220  1.0000 0.1115872429
H   H34       1.0  0.84770  0.51590  0.36780  1.0000 0.1115872429
H   H35       1.0  0.48410  0.15230  0.86780  1.0000 0.1115872429
H   H36       1.0  0.15230  0.48410  0.63220  1.0000 0.1115872429
H   H37       1.0  0.65380  0.93880  0.06440  1.0000 0.1377025957
H   H38       1.0  0.93880  0.65380  0.43560  1.0000 0.129684668
H   H39       1.0  0.34620  0.06120  0.93560  1.0000 0.129684668
H   H40       1.0  0.06120  0.34620  0.56440  1.0000 0.129684668
H   H41       1.0  0.39050  0.81530  0.94040  1.0000 0.1377025957
H   H42       1.0  0.81530  0.39050  0.55960  1.0000 0.1377025957
H   H43       1.0  0.60950  0.18470  0.05960  1.0000 0.1377025957
H   H44       1.0  0.18470  0.60950  0.44040  1.0000 0.1377025957
H   H45       1.0  0.25990  0.72690  0.01130  1.0000 0.1115872429
H   H46       1.0  0.72690  0.25990  0.48870  1.0000 0.1115872429
H   H47       1.0  0.74010  0.27310  0.98870  1.0000 0.1115872429
H   H48       1.0  0.27310  0.74010  0.51130  1.0000 0.1115872429
H   H49       1.0  0.59970  0.97990  0.91750  1.0000 0.117519285
H   H50       1.0  0.97990  0.59970  0.58250  1.0000 0.117519285
H   H51       1.0  0.40030  0.02010  0.08250  1.0000 0.117519285
H   H52       1.0  0.02010  0.40030  0.41750  1.0000 0.117519285
H   H53       1.0  0.70310  0.99230  0.96500  1.0000 0.117519285
H   H54       1.0  0.99230  0.70310  0.53500  1.0000 0.117519285
H   H55       1.0  0.29690  0.00770  0.03500  1.0000 0.117519285
H   H56       1.0  0.00770  0.29690  0.46500  1.0000 0.117519285
H   H57       1.0  0.69180  0.87300  0.89070  1.0000 0.0995680253
H   H58       1.0  0.87300  0.69180  0.60930  1.0000 0.0995680253
H   H59       1.0  0.30820  0.12700  0.10930  1.0000 0.0995680253
H   H60       1.0  0.12700  0.30820  0.39070  1.0000 0.0995680253
H   H61       1.0  0.56330  0.78150  0.90680  1.0000 0.0995680253
H   H62       1.0  0.78150  0.56330  0.59320  1.0000 0.0995680253
H   H63       1.0  0.43670  0.21850  0.09320  1.0000 0.0995680253
H   H64       1.0  0.21850  0.43670  0.40680  1.0000 0.0995680253
H   H65       1.0  0.76800  0.83040  0.98280  1.0000 0.117519285
H   H66       1.0  0.83040  0.76800  0.51720  1.0000 0.117519285
H   H67       1.0  0.23200  0.16960  0.01720  1.0000 0.117519285
H   H68       1.0  0.16960  0.23200  0.48280  1.0000 0.117519285
H   H69       1.0  0.63910  0.73630  0.99740  1.0000 0.1115872429
H   H70       1.0  0.73630  0.63910  0.50260  1.0000 0.1115872429
H   H71       1.0  0.36090  0.26370  0.00260  1.0000 0.1115872429
H   H72       1.0  0.26370  0.36090  0.49740  1.0000 0.1115872429
H   H73       1.0  0.87950  0.77670  0.92140  1.0000 0.1377025957
H   H74       1.0  0.77670  0.87950  0.57860  1.0000 0.1377025957
H   H75       1.0  0.12050  0.22330  0.07860  1.0000 0.1377025957
H   H76       1.0  0.22330  0.12050  0.42140  1.0000 0.1377025957
H   H77       1.0  0.89900  0.63080  0.88240  1.0000 0.1115872429
H   H78       1.0  0.63080  0.89900  0.61760  1.0000 0.1115872429
H   H79       1.0  0.10100  0.36920  0.11760  1.0000 0.1115872429
H   H80       1.0  0.36920  0.10100  0.38240  1.0000 0.1115872429
H   H81       1.0  0.57190  0.40770  0.90540  1.0000 0.0995680253
H   H82       1.0  0.40770  0.57190  0.59460  1.0000 0.0995680253
H   H83       1.0  0.42810  0.59230  0.09460  1.0000 0.0995680253
H   H84       1.0  0.59230  0.42810  0.40540  1.0000 0.0995680253
H   H85       1.0  0.54270  0.54730  0.94570  1.0000 0.1377025957
H   H86       1.0  0.54730  0.54270  0.55430  1.0000 0.1377025957
H   H87       1.0  0.45730  0.45270  0.05430  1.0000 0.1377025957
H   H88       1.0  0.45270  0.45730  0.44570  1.0000 0.1377025957
H   H89       1.0  0.37680  0.86700  0.22410  1.0000 0.117519285
H   H90       1.0  0.86700  0.37680  0.27590  1.0000 0.117519285
H   H91       1.0  0.62320  0.13300  0.77590  1.0000 0.117519285
H   H92       1.0  0.13300  0.62320  0.72410  1.0000 0.117519285
H   H93       1.0  0.38500  0.03480  0.25330  1.0000 0.1616996909
H   H94       1.0  0.03480  0.38500  0.24670  1.0000 0.1616996909
H   H95       1.0  0.61500  0.96520  0.74670  1.0000 0.1616996909
H   H96       1.0  0.96520  0.61500  0.75330  1.0000 0.1616996909
H   H97       1.0  0.06640  0.95140  0.17190  1.0000 0.129684668
H   H98       1.0  0.95140  0.06640  0.32810  1.0000 0.129684668
H   H99       1.0  0.93360  0.04860  0.82810  1.0000 0.129684668
H   H100      1.0  0.04860  0.93360  0.67190  1.0000 0.129684668
H   H101      1.0  0.06810  0.78710  0.14230  1.0000 0.1115872429
H   H102      1.0  0.78710  0.06810  0.35770  1.0000 0.1115872429
H   H103      1.0  0.93190  0.21290  0.85770  1.0000 0.1115872429
H   H104      1.0  0.21290  0.93190  0.64230  1.0000 0.1115872429
H   H105      1.0  0.26080  0.18880  0.20060  1.0000 0.117519285
H   H106      1.0  0.18880  0.26080  0.29940  1.0000 0.117519285
H   H107      1.0  0.73920  0.81120  0.79940  1.0000 0.117519285
H   H108      1.0  0.81120  0.73920  0.70060  1.0000 0.117519285
H   H109      1.0  0.29380  0.15660  0.26500  1.0000 0.129684668
H   H110      1.0  0.15660  0.29380  0.23500  1.0000 0.129684668
H   H111      1.0  0.70620  0.84340  0.73500  1.0000 0.129684668
H   H112      1.0  0.84340  0.70620  0.76500  1.0000 0.129684668
H   H113      1.0  0.06060  0.09340  0.21780  1.0000 0.0896909564
H   H114      1.0  0.09340  0.06060  0.28220  1.0000 0.0896909564
H   H115      1.0  0.93940  0.90660  0.78220  1.0000 0.0896909564
H   H116      1.0  0.90660  0.93940  0.71780  1.0000 0.0896909564
C   C1        1.0  0.35442  0.60458  0.24667  1.0000 0.6176119773
C   C2        1.0  0.60458  0.35442  0.25333  1.0000 0.6176119773
C   C3        1.0  0.64558  0.39542  0.75333  1.0000 0.6176119773
C   C4        1.0  0.39542  0.64558  0.74667  1.0000 0.6176119773
C   C5        1.0  0.39930  0.55270  0.30048  1.0000 -0.4073699286
C   C6        1.0  0.55270  0.39930  0.19952  1.0000 -0.4047785671
C   C7        1.0  0.60070  0.44730  0.69952  1.0000 -0.4073699286
C   C8        1.0  0.44730  0.60070  0.80048  1.0000 -0.4073699286
C   C9        1.0  0.49560  0.64400  0.33753  1.0000 0.1616996909
C   C10       1.0  0.64400  0.49560  0.16247  1.0000 0.1616996909
C   C11       1.0  0.50440  0.35600  0.66247  1.0000 0.1616996909
C   C12       1.0  0.35600  0.50440  0.83753  1.0000 0.1616996909
C   C13       1.0  0.61233  0.66307  0.34016  1.0000 -0.1776339532
C   C14       1.0  0.66307  0.61233  0.15984  1.0000 -0.1776339532
C   C15       1.0  0.38767  0.33693  0.65984  1.0000 -0.1776339532
C   C16       1.0  0.33693  0.38767  0.84016  1.0000 -0.1776339532
C   C17       1.0  0.69870  0.74750  0.37480  1.0000 -0.1008067624
C   C18       1.0  0.74750  0.69870  0.12520  1.0000 -0.1008067624
C   C19       1.0  0.30130  0.25250  0.62520  1.0000 -0.1008067624
C   C20       1.0  0.25250  0.30130  0.87480  1.0000 -0.1008067624
C   C21       1.0  0.66880  0.81400  0.40720  1.0000 -0.1905911294
C   C22       1.0  0.81400  0.66880  0.09280  1.0000 -0.1905911294
C   C23       1.0  0.33120  0.18600  0.59280  1.0000 -0.1905911294
C   C24       1.0  0.18600  0.33120  0.90720  1.0000 -0.1905911294
C   C25       1.0  0.55328  0.79672  0.40483  1.0000 0.1616996909
C   C26       1.0  0.79672  0.55328  0.09517  1.0000 0.1616996909
C   C27       1.0  0.44672  0.20328  0.59517  1.0000 0.1616996909
C   C28       1.0  0.20328  0.44672  0.90483  1.0000 0.1616996909
C   C29       1.0  0.46746  0.71134  0.36999  1.0000 -0.2286123214
C   C30       1.0  0.71134  0.46746  0.13001  1.0000 -0.2286123214
C   C31       1.0  0.53254  0.28866  0.63001  1.0000 -0.2286123214
C   C32       1.0  0.28866  0.53254  0.86999  1.0000 -0.2286123214
C   C33       1.0  0.52200  0.87300  0.43819  1.0000 -0.3904518978
C   C34       1.0  0.87300  0.52200  0.06181  1.0000 -0.3904518978
C   C35       1.0  0.47800  0.12700  0.56181  1.0000 -0.3904518978
C   C36       1.0  0.12700  0.47800  0.93819  1.0000 -0.3904518978
C   C37       1.0  0.56085  0.99715  0.40751  1.0000 0.6031633644
C   C38       1.0  0.99715  0.56085  0.09249  1.0000 0.6031633644
C   C39       1.0  0.43915  0.00285  0.59249  1.0000 0.6031633644
C   C40       1.0  0.00285  0.43915  0.90751  1.0000 0.6031633644
C   C41       1.0  0.49039  0.84001  0.09313  1.0000 0.0619144766
C   C42       1.0  0.84001  0.49039  0.40687  1.0000 0.0619144766
C   C43       1.0  0.50961  0.15999  0.90687  1.0000 0.0619144766
C   C44       1.0  0.15999  0.50961  0.59313  1.0000 0.0619144766
C   C45       1.0  0.57402  0.89518  0.05250  1.0000 -0.2110391761
C   C46       1.0  0.89518  0.57402  0.44750  1.0000 -0.2110391761
C   C47       1.0  0.42598  0.10482  0.94750  1.0000 -0.2110391761
C   C48       1.0  0.10482  0.42598  0.55250  1.0000 -0.2110391761
C   C49       1.0  0.53838  0.88502  0.99401  1.0000 0.1616996909
C   C50       1.0  0.88502  0.53838  0.50599  1.0000 0.1616996909
C   C51       1.0  0.46162  0.11498  0.00599  1.0000 0.1616996909
C   C52       1.0  0.11498  0.46162  0.49401  1.0000 0.1616996909
C   C53       1.0  0.41866  0.82214  0.97915  1.0000 -0.2110391761
C   C54       1.0  0.82214  0.41866  0.52085  1.0000 -0.2110391761
C   C55       1.0  0.58134  0.17786  0.02085  1.0000 -0.2110391761
C   C56       1.0  0.17786  0.58134  0.47915  1.0000 -0.2110391761
C   C57       1.0  0.34050  0.76930  0.02223  1.0000 0.0705200229
C   C58       1.0  0.76930  0.34050  0.47777  1.0000 0.0705200229
C   C59       1.0  0.65950  0.23070  0.97777  1.0000 0.0705200229
C   C60       1.0  0.23070  0.65950  0.52223  1.0000 0.0705200229
C   C61       1.0  0.62657  0.93663  0.94810  1.0000 -0.2592661352
C   C62       1.0  0.93663  0.62657  0.55190  1.0000 -0.2592661352
C   C63       1.0  0.37343  0.06337  0.05190  1.0000 -0.2592661352
C   C64       1.0  0.06337  0.37343  0.44810  1.0000 -0.2592661352
C   C65       1.0  0.64043  0.83817  0.92243  1.0000 -0.1421915165
C   C66       1.0  0.83817  0.64043  0.57757  1.0000 -0.1421915165
C   C67       1.0  0.35957  0.16183  0.07757  1.0000 -0.1421915165
C   C68       1.0  0.16183  0.35957  0.42243  1.0000 -0.1421915165
C   C69       1.0  0.69176  0.77364  0.96627  1.0000 -0.2592661352
C   C70       1.0  0.77364  0.69176  0.53373  1.0000 -0.2592661352
C   C71       1.0  0.30824  0.22636  0.03373  1.0000 -0.2592661352
C   C72       1.0  0.22636  0.30824  0.46627  1.0000 -0.2592661352
C   C73       1.0  0.70846  0.67914  0.93948  1.0000 0.1616996909
C   C74       1.0  0.67914  0.70846  0.56052  1.0000 0.1616996909
C   C75       1.0  0.29154  0.32086  0.06052  1.0000 0.1616996909
C   C76       1.0  0.32086  0.29154  0.43948  1.0000 0.1616996909
C   C77       1.0  0.81510  0.70170  0.91920  1.0000 -0.2110391761
C   C78       1.0  0.70170  0.81510  0.58080  1.0000 -0.2110391761
C   C79       1.0  0.18490  0.29830  0.08080  1.0000 -0.2110391761
C   C80       1.0  0.29830  0.18490  0.41920  1.0000 -0.2110391761
C   C81       1.0  0.82609  0.61311  0.89577  1.0000 0.0705200229
C   C82       1.0  0.61311  0.82609  0.60423  1.0000 0.0705200229
C   C83       1.0  0.17391  0.38689  0.10423  1.0000 0.0705200229
C   C84       1.0  0.38689  0.17391  0.39577  1.0000 0.0705200229
C   C85       1.0  0.63533  0.48287  0.90920  1.0000 0.0705200229
C   C86       1.0  0.48287  0.63533  0.59080  1.0000 0.0705200229
C   C87       1.0  0.36467  0.51713  0.09080  1.0000 0.0705200229
C   C88       1.0  0.51713  0.36467  0.40920  1.0000 0.0705200229
C   C89       1.0  0.61699  0.56681  0.93340  1.0000 -0.2110391761
C   C90       1.0  0.56681  0.61699  0.56660  1.0000 -0.2110391761
C   C91       1.0  0.38301  0.43319  0.06660  1.0000 -0.2110391761
C   C92       1.0  0.43319  0.38301  0.43340  1.0000 -0.2110391761
C   C93       1.0  0.31346  0.88474  0.21260  1.0000 0.0705200229
C   C94       1.0  0.88474  0.31346  0.28740  1.0000 0.0705200229
C   C95       1.0  0.68654  0.11526  0.78740  1.0000 0.0705200229
C   C96       1.0  0.11526  0.68654  0.71260  1.0000 0.0705200229
C   C97       1.0  0.31887  0.98573  0.23063  1.0000 -0.1905911294
C   C98       1.0  0.98573  0.31887  0.26937  1.0000 -0.1905911294
C   C99       1.0  0.68113  0.01427  0.76937  1.0000 -0.1905911294
C   C100      1.0  0.01427  0.68113  0.73063  1.0000 -0.1905911294
C   C101      1.0  0.22704  0.01476  0.21548  1.0000 0.1616996909
C   C102      1.0  0.01476  0.22704  0.28452  1.0000 0.1616996909
C   C103      1.0  0.77296  0.98524  0.78452  1.0000 0.1616996909
C   C104      1.0  0.98524  0.77296  0.71548  1.0000 0.1616996909
C   C105      1.0  0.13200  0.93680  0.18250  1.0000 -0.2221727622
C   C106      1.0  0.93680  0.13200  0.31750  1.0000 -0.2221727622
C   C107      1.0  0.86800  0.06320  0.81750  1.0000 -0.2221727622
C   C108      1.0  0.06320  0.86800  0.68250  1.0000 -0.2221727622
C   C109      1.0  0.13323  0.83737  0.16510  1.0000 0.0817361987
C   C110      1.0  0.83737  0.13323  0.33490  1.0000 0.0817361987
C   C111      1.0  0.86677  0.16263  0.83490  1.0000 0.0817361987
C   C112      1.0  0.16263  0.86677  0.66510  1.0000 0.0817361987
C   C113      1.0  0.23403  0.12897  0.23280  1.0000 -0.2592661352
C   C114      1.0  0.12897  0.23403  0.26720  1.0000 -0.2592661352
C   C115      1.0  0.76597  0.87103  0.76720  1.0000 -0.2592661352
C   C116      1.0  0.87103  0.76597  0.73280  1.0000 -0.2592661352
C   C117      1.0  0.12040  0.12040  0.25000  1.0000 -0.1421915165
C   C118      1.0  0.87960  0.87960  0.75000  1.0000 -0.1421915165
N   N1        1.0  0.37451  0.77609  0.07865  1.0000 -0.244826299
N   N2        1.0  0.77609  0.37451  0.42135  1.0000 -0.244826299
N   N3        1.0  0.62549  0.22391  0.92135  1.0000 -0.244826299
N   N4        1.0  0.22391  0.62549  0.57865  1.0000 -0.244826299
N   N5        1.0  0.73873  0.50407  0.89117  1.0000 -0.2221727622
N   N6        1.0  0.50407  0.73873  0.60883  1.0000 -0.2221727622
N   N7        1.0  0.26127  0.49593  0.10883  1.0000 -0.2221727622
N   N8        1.0  0.49593  0.26127  0.39117  1.0000 -0.2221727622
N   N9        1.0  0.22300  0.80980  0.17943  1.0000 -0.2286123214
N   N10       1.0  0.80980  0.22300  0.32057  1.0000 -0.2286123214
N   N11       1.0  0.77700  0.19020  0.82057  1.0000 -0.2286123214
N   N12       1.0  0.19020  0.77700  0.67943  1.0000 -0.2286123214
O   O1        1.0  0.24396  0.56364  0.23562  1.0000 -0.5611337693
O   O2        1.0  0.56364  0.24396  0.26438  1.0000 -0.5611337693
O   O3        1.0  0.75604  0.43636  0.76438  1.0000 -0.5611337693
O   O4        1.0  0.43636  0.75604  0.73562  1.0000 -0.5611337693
O   O5        1.0  0.42782  0.68378  0.21466  1.0000 -0.5927903921
O   O6        1.0  0.68378  0.42782  0.28534  1.0000 -0.5927903921
O   O7        1.0  0.57218  0.31622  0.78534  1.0000 -0.5927903921
O   O8        1.0  0.31622  0.57218  0.71466  1.0000 -0.5927903921
O   O9        1.0  0.51175  0.00925  0.35961  1.0000 -0.5509498985
O   O10       1.0  0.00925  0.51175  0.14039  1.0000 -0.5509498985
O   O11       1.0  0.48825  0.99075  0.64039  1.0000 -0.5509498985
O   O12       1.0  0.99075  0.48825  0.85961  1.0000 -0.5509498985
O   O13       1.0  0.64302  0.08378  0.43067  1.0000 -0.5771391363
O   O14       1.0  0.08378  0.64302  0.06933  1.0000 -0.5771391363
O   O15       1.0  0.35698  0.91622  0.56933  1.0000 -0.5771391363
O   O16       1.0  0.91622  0.35698  0.93067  1.0000 -0.5771391363
