# DDEC6 charges by PACMAN v1.1 (https://github.com/mtap-research/PACMAN-charge/)
data_2009[U][nan]3[FSR]1
_chemical_formula_sum              "U12 P16 H32 C48 O72"
_cell_length_a       9.8051
_cell_length_b       19.5696
_cell_length_c       19.617
_cell_angle_alpha    90
_cell_angle_beta     117.953
_cell_angle_gamma    90

_symmetry_space_group_name_H-M    "P 1"
_symmetry_Int_Tables_number       1

loop_
  _symmetry_equiv_pos_as_xyz
  'x, y, z'

loop_
  _atom_site_type_symbol
  _atom_site_label
  _atom_site_symmetry_multiplicity
  _atom_site_fract_x
  _atom_site_fract_y
  _atom_site_fract_z
  _atom_site_occupancy
  _atom_site_charge
U   U1        1.0  0.70225  0.25837  0.98803  1.0000 2.5854805334
U   U2        1.0  0.29775  0.75837  0.51197  1.0000 2.5854805334
U   U3        1.0  0.29775  0.74163  0.01197  1.0000 2.5817806585
U   U4        1.0  0.70225  0.24163  0.48803  1.0000 2.5854805334
U   U5        1.0  0.32814  0.23707  0.03594  1.0000 2.5817806585
U   U6        1.0  0.67186  0.73707  0.46406  1.0000 2.5817806585
U   U7        1.0  0.67186  0.76293  0.96406  1.0000 2.5817806585
U   U8        1.0  0.32814  0.26293  0.53594  1.0000 2.5817806585
U   U9        1.0  0.01052  0.36571  0.75765  1.0000 2.6499079092
U   U10       1.0  0.98948  0.86571  0.74235  1.0000 2.6499079092
U   U11       1.0  0.98948  0.63429  0.24235  1.0000 2.6499079092
U   U12       1.0  0.01052  0.13429  0.25765  1.0000 2.6499079092
P   P1        1.0  0.42163  0.35769  0.91313  1.0000 1.3394003732
P   P2        1.0  0.57837  0.85769  0.58687  1.0000 1.3394003732
P   P3        1.0  0.57837  0.64231  0.08687  1.0000 1.3394003732
P   P4        1.0  0.42163  0.14231  0.41313  1.0000 1.3394003732
P   P5        1.0  0.59985  0.13306  0.10465  1.0000 1.3338050766
P   P6        1.0  0.40015  0.63306  0.39535  1.0000 1.3338050766
P   P7        1.0  0.40015  0.86694  0.89535  1.0000 1.3338050766
P   P8        1.0  0.59985  0.36694  0.60465  1.0000 1.3338050766
P   P9        1.0  0.04536  0.14567  0.08366  1.0000 1.3980823381
P   P10       1.0  0.95464  0.64567  0.41634  1.0000 1.3980823381
P   P11       1.0  0.95464  0.85433  0.91634  1.0000 1.3980823381
P   P12       1.0  0.04536  0.35433  0.58366  1.0000 1.3980823381
P   P13       1.0  0.98283  0.34712  0.93703  1.0000 1.392280124
P   P14       1.0  0.01717  0.84712  0.56297  1.0000 1.3980823381
P   P15       1.0  0.01717  0.65288  0.06297  1.0000 1.3980823381
P   P16       1.0  0.98283  0.15288  0.43703  1.0000 1.392280124
H   H1        1.0  0.58880  0.39900  0.07130  1.0000 0.1480578791
H   H2        1.0  0.41120  0.89900  0.42870  1.0000 0.1480578791
H   H3        1.0  0.41120  0.60100  0.92870  1.0000 0.1480578791
H   H4        1.0  0.58880  0.10100  0.57130  1.0000 0.1480578791
H   H5        1.0  0.34720  0.49700  0.86720  1.0000 0.1480578791
H   H6        1.0  0.65280  0.99700  0.63280  1.0000 0.1480578791
H   H7        1.0  0.65280  0.50300  0.13280  1.0000 0.1480578791
H   H8        1.0  0.34720  0.00300  0.36720  1.0000 0.1480578791
H   H9        1.0  0.43590  0.10690  0.93940  1.0000 0.1378932016
H   H10       1.0  0.56410  0.60690  0.56060  1.0000 0.1378932016
H   H11       1.0  0.56410  0.89310  0.06060  1.0000 0.1378932016
H   H12       1.0  0.43590  0.39310  0.43940  1.0000 0.1378932016
H   H13       1.0  0.64280  0.99110  0.13460  1.0000 0.1480578791
H   H14       1.0  0.35720  0.49110  0.36540  1.0000 0.1480578791
H   H15       1.0  0.35720  0.00890  0.86540  1.0000 0.1480578791
H   H16       1.0  0.64280  0.50890  0.63460  1.0000 0.1480578791
H   H17       1.0  0.24090  0.05280  0.05230  1.0000 0.130188085
H   H18       1.0  0.75910  0.55280  0.44770  1.0000 0.130188085
H   H19       1.0  0.75910  0.94720  0.94770  1.0000 0.130188085
H   H20       1.0  0.24090  0.44720  0.55230  1.0000 0.130188085
H   H21       1.0  0.79390  0.05430  0.00690  1.0000 0.130188085
H   H22       1.0  0.20610  0.55430  0.49310  1.0000 0.130188085
H   H23       1.0  0.20610  0.94570  0.99310  1.0000 0.130188085
H   H24       1.0  0.79390  0.44570  0.50690  1.0000 0.130188085
H   H25       1.0  0.21580  0.44880  0.00200  1.0000 0.1227432115
H   H26       1.0  0.78420  0.94880  0.49800  1.0000 0.1227432115
H   H27       1.0  0.78420  0.55120  0.99800  1.0000 0.1227432115
H   H28       1.0  0.21580  0.05120  0.50200  1.0000 0.1227432115
H   H29       1.0  0.77190  0.43730  0.95970  1.0000 0.1378932016
H   H30       1.0  0.22810  0.93730  0.54030  1.0000 0.1378932016
H   H31       1.0  0.22810  0.56270  0.04030  1.0000 0.1378932016
H   H32       1.0  0.77190  0.06270  0.45970  1.0000 0.1378932016
C   C1        1.0  0.45720  0.43740  0.96290  1.0000 -0.1490848215
C   C2        1.0  0.54280  0.93740  0.53710  1.0000 -0.1490848215
C   C3        1.0  0.54280  0.56260  0.03710  1.0000 -0.1490848215
C   C4        1.0  0.45720  0.06260  0.46290  1.0000 -0.1490848215
C   C5        1.0  0.55200  0.44000  0.04250  1.0000 -0.0586798528
C   C6        1.0  0.44800  0.94000  0.45750  1.0000 -0.0586798528
C   C7        1.0  0.44800  0.56000  0.95750  1.0000 -0.0586798528
C   C8        1.0  0.55200  0.06000  0.54250  1.0000 -0.0586798528
C   C9        1.0  0.55040  0.05880  0.04510  1.0000 -0.1490848215
C   C10       1.0  0.44960  0.55880  0.45490  1.0000 -0.1490848215
C   C11       1.0  0.44960  0.94120  0.95490  1.0000 -0.1490848215
C   C12       1.0  0.55040  0.44120  0.54510  1.0000 -0.1490848215
C   C13       1.0  0.40890  0.49850  0.92170  1.0000 -0.0586798528
C   C14       1.0  0.59110  0.99850  0.57830  1.0000 -0.0586798528
C   C15       1.0  0.59110  0.50150  0.07830  1.0000 -0.0586798528
C   C16       1.0  0.40890  0.00150  0.42170  1.0000 -0.0586798528
C   C17       1.0  0.46200  0.06340  0.96360  1.0000 -0.0505051347
C   C18       1.0  0.53800  0.56340  0.53640  1.0000 -0.0505051347
C   C19       1.0  0.53800  0.93660  0.03640  1.0000 -0.0505051347
C   C20       1.0  0.46200  0.43660  0.46360  1.0000 -0.0505051347
C   C21       1.0  0.58550  0.99450  0.08010  1.0000 -0.0675063005
C   C22       1.0  0.41450  0.49450  0.41990  1.0000 -0.0675063005
C   C23       1.0  0.41450  0.00550  0.91990  1.0000 -0.0675063005
C   C24       1.0  0.58550  0.50550  0.58010  1.0000 -0.0675063005
C   C25       1.0  0.01890  0.06600  0.03230  1.0000 -0.1490848215
C   C26       1.0  0.98110  0.56600  0.46770  1.0000 -0.1490848215
C   C27       1.0  0.98110  0.93400  0.96770  1.0000 -0.1490848215
C   C28       1.0  0.01890  0.43400  0.53230  1.0000 -0.1490848215
C   C29       1.0  0.14200  0.03180  0.03030  1.0000 -0.041426426
C   C30       1.0  0.85800  0.53180  0.46970  1.0000 -0.041426426
C   C31       1.0  0.85800  0.96820  0.96970  1.0000 -0.041426426
C   C32       1.0  0.14200  0.46820  0.53030  1.0000 -0.041426426
C   C33       1.0  0.87770  0.03300  0.00360  1.0000 -0.0505051347
C   C34       1.0  0.12230  0.53300  0.49640  1.0000 -0.0505051347
C   C35       1.0  0.12230  0.96700  0.99640  1.0000 -0.0505051347
C   C36       1.0  0.87770  0.46700  0.50360  1.0000 -0.0505051347
C   C37       1.0  0.98880  0.43230  0.97430  1.0000 -0.1490848215
C   C38       1.0  0.01120  0.93230  0.52570  1.0000 -0.1490848215
C   C39       1.0  0.01120  0.56770  0.02570  1.0000 -0.1490848215
C   C40       1.0  0.98880  0.06770  0.47430  1.0000 -0.1490848215
C   C41       1.0  0.12720  0.46980  0.00060  1.0000 -0.029766834
C   C42       1.0  0.87280  0.96980  0.49940  1.0000 -0.029766834
C   C43       1.0  0.87280  0.53020  0.99940  1.0000 -0.029766834
C   C44       1.0  0.12720  0.03020  0.50060  1.0000 -0.029766834
C   C45       1.0  0.86470  0.46250  0.97540  1.0000 -0.0505051347
C   C46       1.0  0.13530  0.96250  0.52460  1.0000 -0.0505051347
C   C47       1.0  0.13530  0.53750  0.02460  1.0000 -0.0505051347
C   C48       1.0  0.86470  0.03750  0.47540  1.0000 -0.0505051347
O   O1        1.0  0.60980  0.20260  0.90780  1.0000 -0.6328576382
O   O2        1.0  0.39020  0.70260  0.59220  1.0000 -0.6328576382
O   O3        1.0  0.39020  0.79740  0.09220  1.0000 -0.6328576382
O   O4        1.0  0.60980  0.29740  0.40780  1.0000 -0.6328576382
O   O5        1.0  0.78350  0.31630  0.06660  1.0000 -0.6481740253
O   O6        1.0  0.21650  0.81630  0.43340  1.0000 -0.6481740253
O   O7        1.0  0.21650  0.68370  0.93340  1.0000 -0.6481740253
O   O8        1.0  0.78350  0.18370  0.56660  1.0000 -0.6481740253
O   O9        1.0  0.42440  0.29250  0.11700  1.0000 -0.6328576382
O   O10       1.0  0.57560  0.79250  0.38300  1.0000 -0.6391602175
O   O11       1.0  0.57560  0.70750  0.88300  1.0000 -0.6391602175
O   O12       1.0  0.42440  0.20750  0.61700  1.0000 -0.6328576382
O   O13       1.0  0.24090  0.18290  0.95580  1.0000 -0.6391602175
O   O14       1.0  0.75910  0.68290  0.54420  1.0000 -0.6391602175
O   O15       1.0  0.75910  0.81710  0.04420  1.0000 -0.6391602175
O   O16       1.0  0.24090  0.31710  0.45580  1.0000 -0.6391602175
O   O17       1.0  0.99630  0.27500  0.74540  1.0000 -0.6391602175
O   O18       1.0  0.00370  0.77500  0.75460  1.0000 -0.6391602175
O   O19       1.0  0.00370  0.72500  0.25460  1.0000 -0.6391602175
O   O20       1.0  0.99630  0.22500  0.24540  1.0000 -0.6391602175
O   O21       1.0  0.02450  0.45630  0.76970  1.0000 -0.6615877526
O   O22       1.0  0.97550  0.95630  0.73030  1.0000 -0.6615877526
O   O23       1.0  0.97550  0.54370  0.23030  1.0000 -0.6615877526
O   O24       1.0  0.02450  0.04370  0.26970  1.0000 -0.6615877526
O   O25       1.0  0.55330  0.34640  0.89330  1.0000 -0.7271752434
O   O26       1.0  0.44670  0.84640  0.60670  1.0000 -0.7271752434
O   O27       1.0  0.44670  0.65360  0.10670  1.0000 -0.7271752434
O   O28       1.0  0.55330  0.15360  0.39330  1.0000 -0.7271752434
O   O29       1.0  0.44190  0.30040  0.97090  1.0000 -0.8604170011
O   O30       1.0  0.55810  0.80040  0.52910  1.0000 -0.8604170011
O   O31       1.0  0.55810  0.69960  0.02910  1.0000 -0.8604170011
O   O32       1.0  0.44190  0.19960  0.47090  1.0000 -0.8604170011
O   O33       1.0  0.26440  0.35840  0.84340  1.0000 -0.7824635085
O   O34       1.0  0.73560  0.85840  0.65660  1.0000 -0.7824635085
O   O35       1.0  0.73560  0.64160  0.15660  1.0000 -0.7824635085
O   O36       1.0  0.26440  0.14160  0.34340  1.0000 -0.7824635085
O   O37       1.0  0.58930  0.19470  0.05330  1.0000 -0.869830765
O   O38       1.0  0.41070  0.69470  0.44670  1.0000 -0.869830765
O   O39       1.0  0.41070  0.80530  0.94670  1.0000 -0.869830765
O   O40       1.0  0.58930  0.30530  0.55330  1.0000 -0.869830765
O   O41       1.0  0.47130  0.14530  0.12670  1.0000 -0.7271752434
O   O42       1.0  0.52870  0.64530  0.37330  1.0000 -0.7271752434
O   O43       1.0  0.52870  0.85470  0.87330  1.0000 -0.7271752434
O   O44       1.0  0.47130  0.35470  0.62670  1.0000 -0.7271752434
O   O45       1.0  0.75820  0.12170  0.17300  1.0000 -0.7824635085
O   O46       1.0  0.24180  0.62170  0.32700  1.0000 -0.7824635085
O   O47       1.0  0.24180  0.87830  0.82700  1.0000 -0.7824635085
O   O48       1.0  0.75820  0.37830  0.67300  1.0000 -0.7824635085
O   O49       1.0  0.16830  0.18950  0.07970  1.0000 -0.7824635085
O   O50       1.0  0.83170  0.68950  0.42030  1.0000 -0.7824635085
O   O51       1.0  0.83170  0.81050  0.92030  1.0000 -0.7824635085
O   O52       1.0  0.16830  0.31050  0.57970  1.0000 -0.7824635085
O   O53       1.0  0.09400  0.12460  0.16770  1.0000 -0.7901641132
O   O54       1.0  0.90600  0.62460  0.33230  1.0000 -0.7901641132
O   O55       1.0  0.90600  0.87540  0.83230  1.0000 -0.7901641132
O   O56       1.0  0.09400  0.37540  0.66770  1.0000 -0.7901641132
O   O57       1.0  0.88980  0.18050  0.04860  1.0000 -0.8082592564
O   O58       1.0  0.11020  0.68050  0.45140  1.0000 -0.8082592564
O   O59       1.0  0.11020  0.81950  0.95140  1.0000 -0.8082592564
O   O60       1.0  0.88980  0.31950  0.54860  1.0000 -0.8082592564
O   O61       1.0  0.94140  0.35640  0.85220  1.0000 -0.7960943209
O   O62       1.0  0.05860  0.85640  0.64780  1.0000 -0.7960943209
O   O63       1.0  0.05860  0.64360  0.14780  1.0000 -0.7960943209
O   O64       1.0  0.94140  0.14360  0.35220  1.0000 -0.7960943209
O   O65       1.0  0.86360  0.30380  0.94450  1.0000 -0.7901641132
O   O66       1.0  0.13640  0.80380  0.55550  1.0000 -0.7901641132
O   O67       1.0  0.13640  0.69620  0.05550  1.0000 -0.7901641132
O   O68       1.0  0.86360  0.19620  0.44450  1.0000 -0.7901641132
O   O69       1.0  0.14330  0.31750  0.98040  1.0000 -0.8082592564
O   O70       1.0  0.85670  0.81750  0.51960  1.0000 -0.8082592564
O   O71       1.0  0.85670  0.68250  0.01960  1.0000 -0.8082592564
O   O72       1.0  0.14330  0.18250  0.48040  1.0000 -0.8082592564
