# DDEC6 charges by PACMAN v1.1 (https://github.com/mtap-research/PACMAN-charge/)
data_2009[Eu][pcu]3[FSR]1
_chemical_formula_sum              "Eu4 H60 C84 O48"
_cell_length_a       8.9532
_cell_length_b       16.466
_cell_length_c       15.1537
_cell_angle_alpha    90
_cell_angle_beta     103.587
_cell_angle_gamma    90

_symmetry_space_group_name_H-M    "P 1"
_symmetry_Int_Tables_number       1

loop_
  _symmetry_equiv_pos_as_xyz
  'x, y, z'

loop_
  _atom_site_type_symbol
  _atom_site_label
  _atom_site_symmetry_multiplicity
  _atom_site_fract_x
  _atom_site_fract_y
  _atom_site_fract_z
  _atom_site_occupancy
  _atom_site_charge
Eu  Eu1       1.0  0.43638  0.89354  0.04332  1.0000 2.0555730726
Eu  Eu2       1.0  0.06362  0.39354  0.95668  1.0000 2.0555730726
Eu  Eu3       1.0  0.56362  0.10646  0.95668  1.0000 2.0547649926
Eu  Eu4       1.0  0.93638  0.60646  0.04332  1.0000 2.0555730726
H   H1        1.0  0.99360  0.98700  0.86100  1.0000 0.1200613128
H   H2        1.0  0.50640  0.48700  0.13900  1.0000 0.1200613128
H   H3        1.0  0.00640  0.01300  0.13900  1.0000 0.1200613128
H   H4        1.0  0.49360  0.51300  0.86100  1.0000 0.1200613128
H   H5        1.0  0.96890  0.06660  0.91220  1.0000 0.1548913112
H   H6        1.0  0.53110  0.56660  0.08780  1.0000 0.1548913112
H   H7        1.0  0.03110  0.93340  0.08780  1.0000 0.1548913112
H   H8        1.0  0.46890  0.43340  0.91220  1.0000 0.1548913112
H   H9        1.0  0.14810  0.94130  0.78180  1.0000 0.1200613128
H   H10       1.0  0.35190  0.44130  0.21820  1.0000 0.1200613128
H   H11       1.0  0.85190  0.05870  0.21820  1.0000 0.1200613128
H   H12       1.0  0.64810  0.55870  0.78180  1.0000 0.1200613128
H   H13       1.0  0.24120  0.89600  0.66060  1.0000 0.1200613128
H   H14       1.0  0.25880  0.39600  0.33940  1.0000 0.1200613128
H   H15       1.0  0.75880  0.10400  0.33940  1.0000 0.1200613128
H   H16       1.0  0.74120  0.60400  0.66060  1.0000 0.1200613128
H   H17       1.0  0.13060  0.10560  0.53140  1.0000 0.1117854035
H   H18       1.0  0.36940  0.60560  0.46860  1.0000 0.1117854035
H   H19       1.0  0.86940  0.89440  0.46860  1.0000 0.1117854035
H   H20       1.0  0.63060  0.39440  0.53140  1.0000 0.1117854035
H   H21       1.0  0.03420  0.15160  0.64970  1.0000 0.1200613128
H   H22       1.0  0.46580  0.65160  0.35030  1.0000 0.1200613128
H   H23       1.0  0.96580  0.84840  0.35030  1.0000 0.1200613128
H   H24       1.0  0.53420  0.34840  0.64970  1.0000 0.1200613128
H   H25       1.0  0.15090  0.04380  0.42180  1.0000 0.1200613128
H   H26       1.0  0.34910  0.54380  0.57820  1.0000 0.1200613128
H   H27       1.0  0.84910  0.95620  0.57820  1.0000 0.1200613128
H   H28       1.0  0.65090  0.45620  0.42180  1.0000 0.1200613128
H   H29       1.0  0.65360  0.75810  0.36020  1.0000 0.129720917
H   H30       1.0  0.84640  0.25810  0.63980  1.0000 0.129720917
H   H31       1.0  0.34640  0.24190  0.63980  1.0000 0.129720917
H   H32       1.0  0.15360  0.74190  0.36020  1.0000 0.129720917
H   H33       1.0  0.57730  0.79060  0.49000  1.0000 0.129720917
H   H34       1.0  0.92270  0.29060  0.51000  1.0000 0.129720917
H   H35       1.0  0.42270  0.20940  0.51000  1.0000 0.129720917
H   H36       1.0  0.07730  0.70940  0.49000  1.0000 0.129720917
H   H37       1.0  0.44580  0.05760  0.26870  1.0000 0.1388353225
H   H38       1.0  0.05420  0.55760  0.73130  1.0000 0.1388353225
H   H39       1.0  0.55420  0.94240  0.73130  1.0000 0.1388353225
H   H40       1.0  0.94580  0.44240  0.26870  1.0000 0.1388353225
H   H41       1.0  0.28130  0.06010  0.20310  1.0000 0.1388353225
H   H42       1.0  0.21870  0.56010  0.79690  1.0000 0.1388353225
H   H43       1.0  0.71870  0.93990  0.79690  1.0000 0.1388353225
H   H44       1.0  0.78130  0.43990  0.20310  1.0000 0.1388353225
H   H45       1.0  0.65000  0.71860  0.23520  1.0000 0.129720917
H   H46       1.0  0.85000  0.21860  0.76480  1.0000 0.129720917
H   H47       1.0  0.35000  0.28140  0.76480  1.0000 0.129720917
H   H48       1.0  0.15000  0.78140  0.23520  1.0000 0.129720917
H   H49       1.0  0.77890  0.78000  0.22480  1.0000 0.129720917
H   H50       1.0  0.72110  0.28000  0.77520  1.0000 0.129720917
H   H51       1.0  0.22110  0.22000  0.77520  1.0000 0.129720917
H   H52       1.0  0.27890  0.72000  0.22480  1.0000 0.129720917
H   H53       1.0  0.18780  0.80830  0.93040  1.0000 0.3660609489
H   H54       1.0  0.31220  0.30830  0.06960  1.0000 0.3660609489
H   H55       1.0  0.81220  0.19170  0.06960  1.0000 0.3660609489
H   H56       1.0  0.68780  0.69170  0.93040  1.0000 0.3660609489
H   H57       1.0  0.24770  0.85490  0.87300  1.0000 0.3169929152
H   H58       1.0  0.25230  0.35490  0.12700  1.0000 0.3169929152
H   H59       1.0  0.75230  0.14510  0.12700  1.0000 0.3169929152
H   H60       1.0  0.74770  0.64510  0.87300  1.0000 0.3169929152
C   C1        1.0  0.19680  0.03450  0.93540  1.0000 0.6531227147
C   C2        1.0  0.30320  0.53450  0.06460  1.0000 0.6531227147
C   C3        1.0  0.80320  0.96550  0.06460  1.0000 0.6531227147
C   C4        1.0  0.69680  0.46550  0.93540  1.0000 0.6531227147
C   C5        1.0  0.03320  0.04120  0.87680  1.0000 -0.1672475347
C   C6        1.0  0.46680  0.54120  0.12320  1.0000 -0.1672475347
C   C7        1.0  0.96680  0.95880  0.12320  1.0000 -0.1672475347
C   C8        1.0  0.53320  0.45880  0.87680  1.0000 -0.1672475347
C   C9        1.0  0.08260  0.05260  0.72870  1.0000 0.2504735654
C   C10       1.0  0.41740  0.55260  0.27130  1.0000 0.2504735654
C   C11       1.0  0.91740  0.94740  0.27130  1.0000 0.2504735654
C   C12       1.0  0.58260  0.44740  0.72870  1.0000 0.2504735654
C   C13       1.0  0.14490  0.97490  0.73200  1.0000 -0.2413512254
C   C14       1.0  0.35510  0.47490  0.26800  1.0000 -0.2413512254
C   C15       1.0  0.85510  0.02510  0.26800  1.0000 -0.2413512254
C   C16       1.0  0.64490  0.52510  0.73200  1.0000 -0.2413512254
C   C17       1.0  0.20210  0.94850  0.65910  1.0000 -0.1237569907
C   C18       1.0  0.29790  0.44850  0.34090  1.0000 -0.1237569907
C   C19       1.0  0.79790  0.05150  0.34090  1.0000 -0.1237569907
C   C20       1.0  0.70210  0.55150  0.65910  1.0000 -0.1237569907
C   C21       1.0  0.20350  0.99560  0.58580  1.0000 0.0769178001
C   C22       1.0  0.29650  0.49560  0.41420  1.0000 0.0769178001
C   C23       1.0  0.79650  0.00440  0.41420  1.0000 0.0769178001
C   C24       1.0  0.70350  0.50440  0.58580  1.0000 0.0769178001
C   C25       1.0  0.13600  0.07280  0.58200  1.0000 -0.1527249003
C   C26       1.0  0.36400  0.57280  0.41800  1.0000 -0.1527249003
C   C27       1.0  0.86400  0.92720  0.41800  1.0000 -0.1527249003
C   C28       1.0  0.63600  0.42720  0.58200  1.0000 -0.1527249003
C   C29       1.0  0.07770  0.10010  0.65290  1.0000 -0.2121972377
C   C30       1.0  0.42230  0.60010  0.34710  1.0000 -0.2121972377
C   C31       1.0  0.92230  0.89990  0.34710  1.0000 -0.2121972377
C   C32       1.0  0.57770  0.39990  0.65290  1.0000 -0.2121972377
C   C33       1.0  0.38080  0.90370  0.51850  1.0000 0.3263498908
C   C34       1.0  0.11920  0.40370  0.48150  1.0000 0.3263498908
C   C35       1.0  0.61920  0.09630  0.48150  1.0000 0.3263498908
C   C36       1.0  0.88080  0.59630  0.51850  1.0000 0.3263498908
C   C37       1.0  0.26860  0.96840  0.50850  1.0000 -0.13846735
C   C38       1.0  0.23140  0.46840  0.49150  1.0000 -0.13846735
C   C39       1.0  0.73140  0.03160  0.49150  1.0000 -0.13846735
C   C40       1.0  0.76860  0.53160  0.50850  1.0000 -0.13846735
C   C41       1.0  0.22440  0.00310  0.42720  1.0000 0.0499040121
C   C42       1.0  0.27560  0.50310  0.57280  1.0000 0.0499040121
C   C43       1.0  0.77560  0.99690  0.57280  1.0000 0.0499040121
C   C44       1.0  0.72440  0.49690  0.42720  1.0000 0.0499040121
C   C45       1.0  0.37880  0.92550  0.35710  1.0000 0.1388353225
C   C46       1.0  0.12120  0.42550  0.64290  1.0000 0.1388353225
C   C47       1.0  0.62120  0.07450  0.64290  1.0000 0.1388353225
C   C48       1.0  0.87880  0.57450  0.35710  1.0000 0.1388353225
C   C49       1.0  0.42950  0.90900  0.27810  1.0000 0.0769178001
C   C50       1.0  0.07050  0.40900  0.72190  1.0000 0.0769178001
C   C51       1.0  0.57050  0.09100  0.72190  1.0000 0.0769178001
C   C52       1.0  0.92950  0.59100  0.27810  1.0000 0.0769178001
C   C53       1.0  0.53420  0.84510  0.28290  1.0000 0.1662347382
C   C54       1.0  0.96580  0.34510  0.71710  1.0000 0.1662347382
C   C55       1.0  0.46580  0.15490  0.71710  1.0000 0.1662347382
C   C56       1.0  0.03420  0.65490  0.28290  1.0000 0.1662347382
C   C57       1.0  0.58560  0.80090  0.35990  1.0000 -0.2209203774
C   C58       1.0  0.91440  0.30090  0.64010  1.0000 -0.2209203774
C   C59       1.0  0.41440  0.19910  0.64010  1.0000 -0.2209203774
C   C60       1.0  0.08560  0.69910  0.35990  1.0000 -0.2209203774
C   C61       1.0  0.53770  0.81910  0.43670  1.0000 -0.0908597456
C   C62       1.0  0.96230  0.31910  0.56330  1.0000 -0.0908597456
C   C63       1.0  0.46230  0.18090  0.56330  1.0000 -0.0908597456
C   C64       1.0  0.03770  0.68090  0.43670  1.0000 -0.0908597456
C   C65       1.0  0.42930  0.88050  0.43550  1.0000 -0.1101289997
C   C66       1.0  0.07070  0.38050  0.56450  1.0000 -0.1101289997
C   C67       1.0  0.57070  0.11950  0.56450  1.0000 -0.1101289997
C   C68       1.0  0.92930  0.61950  0.43550  1.0000 -0.1101289997
C   C69       1.0  0.38620  0.04170  0.20910  1.0000 -0.1820312673
C   C70       1.0  0.11380  0.54170  0.79090  1.0000 -0.1820312673
C   C71       1.0  0.61380  0.95830  0.79090  1.0000 -0.1820312673
C   C72       1.0  0.88620  0.45830  0.20910  1.0000 -0.1820312673
C   C73       1.0  0.45260  0.08050  0.13660  1.0000 0.6320260084
C   C74       1.0  0.04740  0.58050  0.86340  1.0000 0.6320260084
C   C75       1.0  0.54740  0.91950  0.86340  1.0000 0.6320260084
C   C76       1.0  0.95260  0.41950  0.13660  1.0000 0.6320260084
C   C77       1.0  0.67400  0.76310  0.19900  1.0000 -0.1820312673
C   C78       1.0  0.82600  0.26310  0.80100  1.0000 -0.1820312673
C   C79       1.0  0.32600  0.23690  0.80100  1.0000 -0.1820312673
C   C80       1.0  0.17400  0.73690  0.19900  1.0000 -0.1820312673
C   C81       1.0  0.65930  0.73520  0.10330  1.0000 0.6829129523
C   C82       1.0  0.84070  0.23520  0.89670  1.0000 0.6829129523
C   C83       1.0  0.34070  0.26480  0.89670  1.0000 0.6829129523
C   C84       1.0  0.15930  0.76480  0.10330  1.0000 0.6829129523
O   O1        1.0  0.22010  0.97860  0.99090  1.0000 -0.6512481952
O   O2        1.0  0.27990  0.47860  0.00910  1.0000 -0.6512481952
O   O3        1.0  0.77990  0.02140  0.00910  1.0000 -0.6512481952
O   O4        1.0  0.72010  0.52140  0.99090  1.0000 -0.6512481952
O   O5        1.0  0.29170  0.08850  0.92390  1.0000 -0.6426572138
O   O6        1.0  0.20830  0.58850  0.07610  1.0000 -0.6426572138
O   O7        1.0  0.70830  0.91150  0.07610  1.0000 -0.6426572138
O   O8        1.0  0.79170  0.41150  0.92390  1.0000 -0.6426572138
O   O9        1.0  0.02150  0.08650  0.79540  1.0000 -0.1672475347
O   O10       1.0  0.47850  0.58650  0.20460  1.0000 -0.1672475347
O   O11       1.0  0.97850  0.91350  0.20460  1.0000 -0.1672475347
O   O12       1.0  0.52150  0.41350  0.79540  1.0000 -0.1672475347
O   O13       1.0  0.43690  0.86900  0.59040  1.0000 -0.4261772568
O   O14       1.0  0.06310  0.36900  0.40960  1.0000 -0.4261772568
O   O15       1.0  0.56310  0.13100  0.40960  1.0000 -0.4261772568
O   O16       1.0  0.93690  0.63100  0.59040  1.0000 -0.4261772568
O   O17       1.0  0.27390  0.98620  0.35130  1.0000 -0.0908597456
O   O18       1.0  0.22610  0.48620  0.64870  1.0000 -0.0908597456
O   O19       1.0  0.72610  0.01380  0.64870  1.0000 -0.0908597456
O   O20       1.0  0.77390  0.51380  0.35130  1.0000 -0.0908597456
O   O21       1.0  0.38890  0.95210  0.19980  1.0000 -0.2023522379
O   O22       1.0  0.11110  0.45210  0.80020  1.0000 -0.2023522379
O   O23       1.0  0.61110  0.04790  0.80020  1.0000 -0.2023522379
O   O24       1.0  0.88890  0.54790  0.19980  1.0000 -0.2023522379
O   O25       1.0  0.44880  0.15360  0.13000  1.0000 -0.4761714423
O   O26       1.0  0.05120  0.65360  0.87000  1.0000 -0.4761714423
O   O27       1.0  0.55120  0.84640  0.87000  1.0000 -0.4761714423
O   O28       1.0  0.94880  0.34640  0.13000  1.0000 -0.4761714423
O   O29       1.0  0.50960  0.03520  0.08510  1.0000 -0.7457282776
O   O30       1.0  0.99040  0.53520  0.91490  1.0000 -0.7457282776
O   O31       1.0  0.49040  0.96480  0.91490  1.0000 -0.7457282776
O   O32       1.0  0.00960  0.46480  0.08510  1.0000 -0.7457282776
O   O33       1.0  0.57220  0.82920  0.20130  1.0000 -0.2533385092
O   O34       1.0  0.92780  0.32920  0.79870  1.0000 -0.2533385092
O   O35       1.0  0.42780  0.17080  0.79870  1.0000 -0.2533385092
O   O36       1.0  0.07220  0.67080  0.20130  1.0000 -0.2533385092
O   O37       1.0  0.75300  0.68090  0.09550  1.0000 -0.6695586974
O   O38       1.0  0.74700  0.18090  0.90450  1.0000 -0.6695586974
O   O39       1.0  0.24700  0.31910  0.90450  1.0000 -0.6695586974
O   O40       1.0  0.25300  0.81910  0.09550  1.0000 -0.6695586974
O   O41       1.0  0.55280  0.76230  0.04200  1.0000 -0.610459202
O   O42       1.0  0.94720  0.26230  0.95800  1.0000 -0.610459202
O   O43       1.0  0.44720  0.23770  0.95800  1.0000 -0.610459202
O   O44       1.0  0.05280  0.73770  0.04200  1.0000 -0.610459202
O   O45       1.0  0.26830  0.81780  0.91220  1.0000 -0.6981421048
O   O46       1.0  0.23170  0.31780  0.08780  1.0000 -0.6981421048
O   O47       1.0  0.73170  0.18220  0.08780  1.0000 -0.6981421048
O   O48       1.0  0.76830  0.68220  0.91220  1.0000 -0.6981421048
