# DDEC6 charges by PACMAN v1.1 (https://github.com/mtap-research/PACMAN-charge/)
data_2009[ZnSi][pcu]3[FSR]2
_chemical_formula_sum              "Zn2 Si2 H32 C40 N8 F20"
_cell_length_a       13.7052
_cell_length_b       13.7052
_cell_length_c       13.7052
_cell_angle_alpha    108.322
_cell_angle_beta     108.322
_cell_angle_gamma    111.795

_symmetry_space_group_name_H-M    "P 1"
_symmetry_Int_Tables_number       1

loop_
  _symmetry_equiv_pos_as_xyz
  'x, y, z'

loop_
  _atom_site_type_symbol
  _atom_site_label
  _atom_site_symmetry_multiplicity
  _atom_site_fract_x
  _atom_site_fract_y
  _atom_site_fract_z
  _atom_site_occupancy
  _atom_site_charge
Zn  Zn1       1.0  0.25000  0.25000  0.00000  1.0000 0.7130030515
Zn  Zn2       1.0  0.75000  0.75000  0.00000  1.0000 0.7130030515
Si  Si1       1.0  0.00000  0.00000  0.00000  1.0000 0.979374838
Si  Si2       1.0  0.50000  0.50000  0.00000  1.0000 0.9978600265
H   H1        1.0  0.41800  0.21110  0.91130  1.0000 0.06785163
H   H2        1.0  0.50670  0.41800  0.20690  1.0000 0.06785163
H   H3        1.0  0.21110  0.29980  0.79310  1.0000 0.06785163
H   H4        1.0  0.99330  0.20020  0.91130  1.0000 0.06785163
H   H5        1.0  0.29980  0.50670  0.08870  1.0000 0.06785163
H   H6        1.0  0.08200  0.99330  0.79310  1.0000 0.06785163
H   H7        1.0  0.20020  0.28890  0.20690  1.0000 0.06785163
H   H8        1.0  0.28890  0.08200  0.08870  1.0000 0.06785163
H   H9        1.0  0.58200  0.78890  0.08870  1.0000 0.06785163
H   H10       1.0  0.49330  0.58200  0.79310  1.0000 0.06785163
H   H11       1.0  0.78890  0.70020  0.20690  1.0000 0.06785163
H   H12       1.0  0.00670  0.79980  0.08870  1.0000 0.06785163
H   H13       1.0  0.70020  0.49330  0.91130  1.0000 0.06785163
H   H14       1.0  0.91800  0.00670  0.20690  1.0000 0.06785163
H   H15       1.0  0.79980  0.71110  0.79310  1.0000 0.06785163
H   H16       1.0  0.71110  0.91800  0.91130  1.0000 0.06785163
H   H17       1.0  0.52030  0.11040  0.90850  1.0000 0.1112647447
H   H18       1.0  0.61180  0.52030  0.40990  1.0000 0.1112647447
H   H19       1.0  0.11040  0.20190  0.59010  1.0000 0.1112647447
H   H20       1.0  0.88820  0.29810  0.90850  1.0000 0.1112647447
H   H21       1.0  0.20190  0.61180  0.09150  1.0000 0.1112647447
H   H22       1.0  0.97970  0.88820  0.59010  1.0000 0.1112647447
H   H23       1.0  0.29810  0.38960  0.40990  1.0000 0.1112647447
H   H24       1.0  0.38960  0.97970  0.09150  1.0000 0.1112647447
H   H25       1.0  0.47970  0.88960  0.09150  1.0000 0.1112647447
H   H26       1.0  0.38820  0.47970  0.59010  1.0000 0.1112647447
H   H27       1.0  0.88960  0.79810  0.40990  1.0000 0.1112647447
H   H28       1.0  0.11180  0.70190  0.09150  1.0000 0.1112647447
H   H29       1.0  0.79810  0.38820  0.90850  1.0000 0.1112647447
H   H30       1.0  0.02030  0.11180  0.40990  1.0000 0.1112647447
H   H31       1.0  0.70190  0.61040  0.59010  1.0000 0.1112647447
H   H32       1.0  0.61040  0.02030  0.90850  1.0000 0.1112647447
C   C1        1.0  0.41170  0.16290  0.94860  1.0000 0.0480392417
C   C2        1.0  0.46310  0.41170  0.24880  1.0000 0.0480392417
C   C3        1.0  0.16290  0.21430  0.75120  1.0000 0.0480392417
C   C4        1.0  0.03690  0.28570  0.94860  1.0000 0.0480392417
C   C5        1.0  0.21430  0.46310  0.05140  1.0000 0.0480392417
C   C6        1.0  0.08830  0.03690  0.75120  1.0000 0.0480392417
C   C7        1.0  0.28570  0.33710  0.24880  1.0000 0.0480392417
C   C8        1.0  0.33710  0.08830  0.05140  1.0000 0.0480392417
C   C9        1.0  0.58830  0.83710  0.05140  1.0000 0.0480392417
C   C10       1.0  0.53690  0.58830  0.75120  1.0000 0.0480392417
C   C11       1.0  0.83710  0.78570  0.24880  1.0000 0.0480392417
C   C12       1.0  0.96310  0.71430  0.05140  1.0000 0.0480392417
C   C13       1.0  0.78570  0.53690  0.94860  1.0000 0.0480392417
C   C14       1.0  0.91170  0.96310  0.24880  1.0000 0.0480392417
C   C15       1.0  0.71430  0.66290  0.75120  1.0000 0.0480392417
C   C16       1.0  0.66290  0.91170  0.94860  1.0000 0.0480392417
C   C17       1.0  0.47320  0.10300  0.94680  1.0000 -0.2060796433
C   C18       1.0  0.52640  0.47320  0.37020  1.0000 -0.2060796433
C   C19       1.0  0.10300  0.15620  0.62980  1.0000 -0.2060796433
C   C20       1.0  0.97360  0.34380  0.94680  1.0000 -0.2060796433
C   C21       1.0  0.15620  0.52640  0.05320  1.0000 -0.2060796433
C   C22       1.0  0.02680  0.97360  0.62980  1.0000 -0.2060796433
C   C23       1.0  0.34380  0.39700  0.37020  1.0000 -0.2060796433
C   C24       1.0  0.39700  0.02680  0.05320  1.0000 -0.2060796433
C   C25       1.0  0.52680  0.89700  0.05320  1.0000 -0.2060796433
C   C26       1.0  0.47360  0.52680  0.62980  1.0000 -0.2060796433
C   C27       1.0  0.89700  0.84380  0.37020  1.0000 -0.2060796433
C   C28       1.0  0.02640  0.65620  0.05320  1.0000 -0.2060796433
C   C29       1.0  0.84380  0.47360  0.94680  1.0000 -0.2060796433
C   C30       1.0  0.97320  0.02640  0.37020  1.0000 -0.2060796433
C   C31       1.0  0.65620  0.60300  0.62980  1.0000 -0.2060796433
C   C32       1.0  0.60300  0.97320  0.94680  1.0000 -0.2060796433
C   C33       1.0  0.46700  0.03300  0.00000  1.0000 0.0869543338
C   C34       1.0  0.46700  0.46700  0.43400  1.0000 0.0869543338
C   C35       1.0  0.03300  0.03300  0.56600  1.0000 0.0869543338
C   C36       1.0  0.03300  0.46700  0.00000  1.0000 0.0869543338
C   C37       1.0  0.53300  0.96700  0.00000  1.0000 0.0869543338
C   C38       1.0  0.53300  0.53300  0.56600  1.0000 0.0869543338
C   C39       1.0  0.96700  0.96700  0.43400  1.0000 0.0869543338
C   C40       1.0  0.96700  0.53300  0.00000  1.0000 0.0869543338
N   N1        1.0  0.34390  0.15610  0.00000  1.0000 -0.2646961241
N   N2        1.0  0.34390  0.34390  0.18780  1.0000 -0.2658000127
N   N3        1.0  0.15610  0.15610  0.81220  1.0000 -0.2658000127
N   N4        1.0  0.15610  0.34390  0.00000  1.0000 -0.2658000127
N   N5        1.0  0.65610  0.84390  0.00000  1.0000 -0.2658000127
N   N6        1.0  0.65610  0.65610  0.81220  1.0000 -0.2658000127
N   N7        1.0  0.84390  0.84390  0.18780  1.0000 -0.2658000127
N   N8        1.0  0.84390  0.65610  0.00000  1.0000 -0.2658000127
F   F1        1.0  0.11190  0.11190  0.00000  1.0000 -0.441883917
F   F2        1.0  0.38810  0.38810  0.00000  1.0000 -0.441883917
F   F3        1.0  0.88810  0.88810  0.00000  1.0000 -0.441883917
F   F4        1.0  0.61190  0.61190  0.00000  1.0000 -0.441883917
F   F5        1.0  0.97800  0.10150  0.07950  1.0000 -0.0572880279
F   F6        1.0  0.89850  0.97800  0.87650  1.0000 -0.0572880279
F   F7        1.0  0.10150  0.02200  0.12350  1.0000 -0.0572880279
F   F8        1.0  0.60150  0.47800  0.07950  1.0000 -0.0572880279
F   F9        1.0  0.02200  0.89850  0.92050  1.0000 -0.0572880279
F   F10       1.0  0.52200  0.60150  0.12350  1.0000 -0.0572880279
F   F11       1.0  0.47800  0.39850  0.87650  1.0000 -0.0572880279
F   F12       1.0  0.39850  0.52200  0.92050  1.0000 -0.0572880279
F   F13       1.0  0.03050  0.09710  0.12760  1.0000 -0.0106193879
F   F14       1.0  0.90290  0.03050  0.93340  1.0000 -0.0106193879
F   F15       1.0  0.09710  0.96950  0.06660  1.0000 -0.0106193879
F   F16       1.0  0.59710  0.53050  0.12760  1.0000 -0.0106193879
F   F17       1.0  0.96950  0.90290  0.87240  1.0000 -0.0106193879
F   F18       1.0  0.46950  0.59710  0.06660  1.0000 -0.0106193879
F   F19       1.0  0.53050  0.40290  0.93340  1.0000 -0.0106193879
F   F20       1.0  0.40290  0.46950  0.87240  1.0000 -0.0106193879
