# DDEC6 charges by PACMAN v1.1 (https://github.com/mtap-research/PACMAN-charge/)
data_2009[Ni][xbe]3[FSR]1
_chemical_formula_sum              "Ni3 H16 C20 N12 O12"
_cell_length_a       8.1933
_cell_length_b       8.8646
_cell_length_c       12.3811
_cell_angle_alpha    67.7925
_cell_angle_beta     75.8743
_cell_angle_gamma    74.259

_symmetry_space_group_name_H-M    "P 1"
_symmetry_Int_Tables_number       1

loop_
  _symmetry_equiv_pos_as_xyz
  'x, y, z'

loop_
  _atom_site_type_symbol
  _atom_site_label
  _atom_site_symmetry_multiplicity
  _atom_site_fract_x
  _atom_site_fract_y
  _atom_site_fract_z
  _atom_site_occupancy
  _atom_site_charge
Ni  Ni1       1.0  0.50000  0.00000  0.50000  1.0000 0.7882525181
Ni  Ni2       1.0  0.97394  0.87707  0.17948  1.0000 0.7092783605
Ni  Ni3       1.0  0.02606  0.12293  0.82052  1.0000 0.7092783605
H   H1        1.0  0.74840  0.08900  0.26370  1.0000 0.4019555604
H   H2        1.0  0.25160  0.91100  0.73630  1.0000 0.4019555604
H   H3        1.0  0.80920  0.18490  0.14330  1.0000 0.3808719769
H   H4        1.0  0.19080  0.81510  0.85670  1.0000 0.3808719769
H   H5        1.0  0.21010  0.69810  0.08410  1.0000 0.3856673693
H   H6        1.0  0.78990  0.30190  0.91590  1.0000 0.3808719769
H   H7        1.0  0.19470  0.60790  0.20990  1.0000 0.4019555604
H   H8        1.0  0.80530  0.39210  0.79010  1.0000 0.4019555604
H   H9        1.0  0.96730  0.23210  0.54950  1.0000 0.1316526587
H   H10       1.0  0.03270  0.76790  0.45050  1.0000 0.1316526587
H   H11       1.0  0.80150  0.17260  0.45190  1.0000 0.122676984
H   H12       1.0  0.19850  0.82740  0.54810  1.0000 0.122676984
H   H13       1.0  0.56850  0.91580  0.75350  1.0000 0.1316526587
H   H14       1.0  0.43150  0.08420  0.24650  1.0000 0.1316526587
H   H15       1.0  0.62430  0.56550  0.30370  1.0000 0.1316526587
H   H16       1.0  0.37570  0.43450  0.69630  1.0000 0.1316526587
C   C1        1.0  0.75260  0.93990  0.89680  1.0000 0.2099940485
C   C2        1.0  0.24740  0.06010  0.10320  1.0000 0.2099940485
C   C3        1.0  0.75540  0.01010  0.76860  1.0000 0.1389301127
C   C4        1.0  0.24460  0.98990  0.23140  1.0000 0.1389301127
C   C5        1.0  0.88750  0.16530  0.59290  1.0000 0.0500913957
C   C6        1.0  0.11250  0.83470  0.40710  1.0000 0.0500913957
C   C7        1.0  0.78600  0.13070  0.53400  1.0000 0.026235581
C   C8        1.0  0.21400  0.86930  0.46600  1.0000 0.026235581
C   C9        1.0  0.65120  0.97930  0.71010  1.0000 0.0238680547
C   C10       1.0  0.34880  0.02070  0.28990  1.0000 0.0238680547
C   C11       1.0  0.72630  0.73920  0.39420  1.0000 0.5771112299
C   C12       1.0  0.27370  0.26080  0.60580  1.0000 0.5771112299
C   C13       1.0  0.60810  0.61610  0.45170  1.0000 -0.0597400772
C   C14       1.0  0.39190  0.38390  0.54830  1.0000 -0.0597400772
C   C15       1.0  0.53230  0.57630  0.57120  1.0000 -0.0495859584
C   C16       1.0  0.46770  0.42370  0.42880  1.0000 -0.0495859584
C   C17       1.0  0.54840  0.65990  0.65280  1.0000 0.5638931846
C   C18       1.0  0.45160  0.34010  0.34720  1.0000 0.5638931846
C   C19       1.0  0.57430  0.53910  0.38280  1.0000 -0.1528121972
C   C20       1.0  0.42570  0.46090  0.61720  1.0000 -0.1528121972
N   N1        1.0  0.86410  0.97006  0.94404  1.0000 -0.2784147555
N   N2        1.0  0.13590  0.02994  0.05596  1.0000 -0.2784147555
N   N3        1.0  0.83390  0.88414  0.05926  1.0000 -0.0495859584
N   N4        1.0  0.16610  0.11586  0.94074  1.0000 -0.0495859584
N   N5        1.0  0.70830  0.80570  0.08020  1.0000 -0.0691688316
N   N6        1.0  0.29170  0.19430  0.91980  1.0000 -0.0691688316
N   N7        1.0  0.65500  0.83940  0.97770  1.0000 -0.2600047136
N   N8        1.0  0.34500  0.16060  0.02230  1.0000 -0.2600047136
N   N9        1.0  0.87340  0.10503  0.71027  1.0000 -0.2138358647
N   N10       1.0  0.12660  0.89497  0.28973  1.0000 -0.2138358647
N   N11       1.0  0.66680  0.03907  0.59203  1.0000 -0.1772692347
N   N12       1.0  0.33320  0.96093  0.40797  1.0000 -0.1772692347
O   O1        1.0  0.84330  0.71130  0.31250  1.0000 -0.5179867292
O   O2        1.0  0.15670  0.28870  0.68750  1.0000 -0.5179867292
O   O3        1.0  0.70580  0.86111  0.42789  1.0000 -0.559327736
O   O4        1.0  0.29420  0.13889  0.57211  1.0000 -0.559327736
O   O5        1.0  0.45330  0.80148  0.64332  1.0000 -0.5778925563
O   O6        1.0  0.54670  0.19852  0.35668  1.0000 -0.5778925563
O   O7        1.0  0.64200  0.58670  0.72700  1.0000 -0.4990833545
O   O8        1.0  0.35800  0.41330  0.27300  1.0000 -0.4990833545
O   O9        1.0  0.81390  0.09143  0.19847  1.0000 -0.6733892108
O   O10       1.0  0.18610  0.90857  0.80153  1.0000 -0.6733892108
O   O11       1.0  0.14630  0.67300  0.15100  1.0000 -0.6411187792
O   O12       1.0  0.85370  0.32700  0.84900  1.0000 -0.6411187792
