# DDEC6 charges by PACMAN v1.1 (https://github.com/mtap-research/PACMAN-charge/)
data_2009[Ni][tfz]3[FSR]2
_chemical_formula_sum              "Ni6 H24 C72 O52"
_cell_length_a       10.781
_cell_length_b       13.903
_cell_length_c       18.74
_cell_angle_alpha    90
_cell_angle_beta     98.17
_cell_angle_gamma    90

_symmetry_space_group_name_H-M    "P 1"
_symmetry_Int_Tables_number       1

loop_
  _symmetry_equiv_pos_as_xyz
  'x, y, z'

loop_
  _atom_site_type_symbol
  _atom_site_label
  _atom_site_symmetry_multiplicity
  _atom_site_fract_x
  _atom_site_fract_y
  _atom_site_fract_z
  _atom_site_occupancy
  _atom_site_charge
Ni  Ni1       1.0  0.39430  0.26921  0.52375  1.0000 1.077532075
Ni  Ni2       1.0  0.60570  0.76921  0.97625  1.0000 1.077532075
Ni  Ni3       1.0  0.60570  0.73079  0.47625  1.0000 1.077532075
Ni  Ni4       1.0  0.39430  0.23079  0.02375  1.0000 1.077532075
Ni  Ni5       1.0  0.50000  0.00000  0.00000  1.0000 1.077532075
Ni  Ni6       1.0  0.50000  0.50000  0.50000  1.0000 1.077532075
H   H1        1.0  0.89590  0.12230  0.00960  1.0000 0.1325774475
H   H2        1.0  0.10410  0.62230  0.49040  1.0000 0.1325774475
H   H3        1.0  0.10410  0.87770  0.99040  1.0000 0.1325774475
H   H4        1.0  0.89590  0.37770  0.50960  1.0000 0.1325774475
H   H5        1.0  0.69000  0.36290  0.02680  1.0000 0.1419985077
H   H6        1.0  0.31000  0.86290  0.47320  1.0000 0.1419985077
H   H7        1.0  0.31000  0.63710  0.97320  1.0000 0.1419985077
H   H8        1.0  0.69000  0.13710  0.52680  1.0000 0.1419985077
H   H9        1.0  0.06930  0.37780  0.05730  1.0000 0.1419985077
H   H10       1.0  0.93070  0.87780  0.44270  1.0000 0.1419985077
H   H11       1.0  0.93070  0.62220  0.94270  1.0000 0.1419985077
H   H12       1.0  0.06930  0.12220  0.55730  1.0000 0.1419985077
H   H13       1.0  0.43280  0.05520  0.76790  1.0000 0.1419985077
H   H14       1.0  0.56720  0.55520  0.73210  1.0000 0.1419985077
H   H15       1.0  0.56720  0.94480  0.23210  1.0000 0.1419985077
H   H16       1.0  0.43280  0.44480  0.26790  1.0000 0.1419985077
H   H17       1.0  0.61450  0.80110  0.76400  1.0000 0.1419985077
H   H18       1.0  0.38550  0.30110  0.73600  1.0000 0.1419985077
H   H19       1.0  0.38550  0.19890  0.23600  1.0000 0.1419985077
H   H20       1.0  0.61450  0.69890  0.26400  1.0000 0.1419985077
H   H21       1.0  0.53390  0.95720  0.58040  1.0000 0.1419985077
H   H22       1.0  0.46610  0.45720  0.91960  1.0000 0.1419985077
H   H23       1.0  0.46610  0.04280  0.41960  1.0000 0.1419985077
H   H24       1.0  0.53390  0.54280  0.08040  1.0000 0.1419985077
C   C1        1.0  0.00095  0.24298  0.03389  1.0000 0.0104832761
C   C2        1.0  0.99905  0.74298  0.46611  1.0000 0.0104832761
C   C3        1.0  0.99905  0.75702  0.96611  1.0000 0.0104832761
C   C4        1.0  0.00095  0.25702  0.53389  1.0000 0.0104832761
C   C5        1.0  0.89152  0.18947  0.01840  1.0000 -0.0917356813
C   C6        1.0  0.10848  0.68947  0.48160  1.0000 -0.0917356813
C   C7        1.0  0.10848  0.81053  0.98160  1.0000 -0.0917356813
C   C8        1.0  0.89152  0.31053  0.51840  1.0000 -0.0917356813
C   C9        1.0  0.77563  0.23416  0.01577  1.0000 -0.0023929259
C   C10       1.0  0.22437  0.73416  0.48423  1.0000 -0.0023929259
C   C11       1.0  0.22437  0.76584  0.98423  1.0000 -0.0023929259
C   C12       1.0  0.77563  0.26584  0.51577  1.0000 -0.0023929259
C   C13       1.0  0.76917  0.33237  0.02862  1.0000 -0.060475234
C   C14       1.0  0.23083  0.83237  0.47138  1.0000 -0.060475234
C   C15       1.0  0.23083  0.66763  0.97138  1.0000 -0.060475234
C   C16       1.0  0.76917  0.16763  0.52862  1.0000 -0.060475234
C   C17       1.0  0.87859  0.38589  0.04412  1.0000 -0.0093822863
C   C18       1.0  0.12141  0.88589  0.45588  1.0000 -0.0093822863
C   C19       1.0  0.12141  0.61411  0.95588  1.0000 -0.0093822863
C   C20       1.0  0.87859  0.11411  0.54412  1.0000 -0.0093822863
C   C21       1.0  0.99448  0.34119  0.04675  1.0000 -0.0665734836
C   C22       1.0  0.00552  0.84119  0.45325  1.0000 -0.0665734836
C   C23       1.0  0.00552  0.65881  0.95325  1.0000 -0.0665734836
C   C24       1.0  0.99448  0.15881  0.54675  1.0000 -0.0665734836
C   C25       1.0  0.12539  0.19571  0.02747  1.0000 0.539852517
C   C26       1.0  0.87461  0.69571  0.47253  1.0000 0.539852517
C   C27       1.0  0.87461  0.80429  0.97253  1.0000 0.539852517
C   C28       1.0  0.12539  0.30429  0.52747  1.0000 0.539852517
C   C29       1.0  0.65300  0.18159  0.00478  1.0000 0.5785188398
C   C30       1.0  0.34700  0.68159  0.49522  1.0000 0.5785188398
C   C31       1.0  0.34700  0.81841  0.99522  1.0000 0.5785188398
C   C32       1.0  0.65300  0.31841  0.50478  1.0000 0.5785188398
C   C33       1.0  0.87200  0.49148  0.05780  1.0000 0.517786192
C   C34       1.0  0.12800  0.99148  0.44220  1.0000 0.517786192
C   C35       1.0  0.12800  0.50852  0.94220  1.0000 0.517786192
C   C36       1.0  0.87200  0.00852  0.55780  1.0000 0.517786192
C   C37       1.0  0.47371  0.01840  0.66854  1.0000 0.0104832761
C   C38       1.0  0.52629  0.51840  0.83146  1.0000 0.0104832761
C   C39       1.0  0.52629  0.98160  0.33146  1.0000 0.0104832761
C   C40       1.0  0.47371  0.48160  0.16854  1.0000 0.0104832761
C   C41       1.0  0.47175  0.00776  0.74213  1.0000 -0.0917356813
C   C42       1.0  0.52825  0.50776  0.75787  1.0000 -0.0917356813
C   C43       1.0  0.52825  0.99224  0.25787  1.0000 -0.0917356813
C   C44       1.0  0.47175  0.49224  0.24213  1.0000 -0.0917356813
C   C45       1.0  0.52653  0.92817  0.77766  1.0000 -0.0023929259
C   C46       1.0  0.47347  0.42817  0.72234  1.0000 -0.0023929259
C   C47       1.0  0.47347  0.07183  0.22234  1.0000 -0.0023929259
C   C48       1.0  0.52653  0.57183  0.27766  1.0000 -0.0023929259
C   C49       1.0  0.57956  0.85691  0.73963  1.0000 -0.0766260901
C   C50       1.0  0.42044  0.35691  0.76037  1.0000 -0.0766260901
C   C51       1.0  0.42044  0.14309  0.26037  1.0000 -0.0766260901
C   C52       1.0  0.57956  0.64309  0.23963  1.0000 -0.0766260901
C   C53       1.0  0.58144  0.86728  0.66602  1.0000 0.0104832761
C   C54       1.0  0.41856  0.36728  0.83398  1.0000 0.0104832761
C   C55       1.0  0.41856  0.13272  0.33398  1.0000 0.0104832761
C   C56       1.0  0.58144  0.63272  0.16602  1.0000 0.0104832761
C   C57       1.0  0.53029  0.94890  0.63043  1.0000 -0.0665734836
C   C58       1.0  0.46971  0.44890  0.86957  1.0000 -0.060475234
C   C59       1.0  0.46971  0.05110  0.36957  1.0000 -0.060475234
C   C60       1.0  0.53029  0.55110  0.13043  1.0000 -0.060475234
C   C61       1.0  0.40828  0.10068  0.62766  1.0000 0.5624899289
C   C62       1.0  0.59172  0.60068  0.87234  1.0000 0.5624899289
C   C63       1.0  0.59172  0.89932  0.37234  1.0000 0.5624899289
C   C64       1.0  0.40828  0.39932  0.12766  1.0000 0.5624899289
C   C65       1.0  0.53080  0.91605  0.85900  1.0000 0.5785188398
C   C66       1.0  0.46920  0.41605  0.64100  1.0000 0.5785188398
C   C67       1.0  0.46920  0.08395  0.14100  1.0000 0.5785188398
C   C68       1.0  0.53080  0.58395  0.35900  1.0000 0.5785188398
C   C69       1.0  0.63449  0.78601  0.62607  1.0000 0.5533818624
C   C70       1.0  0.36551  0.28601  0.87393  1.0000 0.5533818624
C   C71       1.0  0.36551  0.21399  0.37393  1.0000 0.5533818624
C   C72       1.0  0.63449  0.71399  0.12607  1.0000 0.5533818624
O   O1        1.0  0.22311  0.24152  0.05638  1.0000 -0.4151538291
O   O2        1.0  0.77689  0.74152  0.44362  1.0000 -0.4116162041
O   O3        1.0  0.77689  0.75848  0.94362  1.0000 -0.4116162041
O   O4        1.0  0.22311  0.25848  0.55638  1.0000 -0.4116162041
O   O5        1.0  0.12778  0.11733  0.99559  1.0000 -0.3736425915
O   O6        1.0  0.87222  0.61733  0.50441  1.0000 -0.3736425915
O   O7        1.0  0.87222  0.88267  0.00441  1.0000 -0.3736425915
O   O8        1.0  0.12778  0.38267  0.49559  1.0000 -0.3736425915
O   O9        1.0  0.65220  0.09207  0.01505  1.0000 -0.4798952668
O   O10       1.0  0.34780  0.59207  0.48495  1.0000 -0.4798952668
O   O11       1.0  0.34780  0.90793  0.98495  1.0000 -0.4798952668
O   O12       1.0  0.65220  0.40793  0.51505  1.0000 -0.4798952668
O   O13       1.0  0.55882  0.23453  0.98693  1.0000 -0.4798952668
O   O14       1.0  0.44118  0.73453  0.51307  1.0000 -0.4798952668
O   O15       1.0  0.44118  0.76547  0.01307  1.0000 -0.4798952668
O   O16       1.0  0.55882  0.26547  0.48693  1.0000 -0.4798952668
O   O17       1.0  0.75953  0.52809  0.03226  1.0000 -0.383359255
O   O18       1.0  0.24047  0.02809  0.46774  1.0000 -0.383359255
O   O19       1.0  0.24047  0.47191  0.96774  1.0000 -0.383359255
O   O20       1.0  0.75953  0.97191  0.53226  1.0000 -0.383359255
O   O21       1.0  0.95654  0.53904  0.08850  1.0000 -0.3565780648
O   O22       1.0  0.04346  0.03904  0.41150  1.0000 -0.3565780648
O   O23       1.0  0.04346  0.46096  0.91150  1.0000 -0.3565780648
O   O24       1.0  0.95654  0.96096  0.58850  1.0000 -0.3565780648
O   O25       1.0  0.44515  0.13484  0.57404  1.0000 -0.4485061222
O   O26       1.0  0.55485  0.63484  0.92596  1.0000 -0.4485061222
O   O27       1.0  0.55485  0.86516  0.42596  1.0000 -0.4485061222
O   O28       1.0  0.44515  0.36516  0.07404  1.0000 -0.4485061222
O   O29       1.0  0.30724  0.13285  0.65334  1.0000 -0.3736425915
O   O30       1.0  0.69276  0.63285  0.84666  1.0000 -0.3736425915
O   O31       1.0  0.69276  0.86715  0.34666  1.0000 -0.3736425915
O   O32       1.0  0.30724  0.36715  0.15334  1.0000 -0.3736425915
O   O33       1.0  0.52005  0.99103  0.89458  1.0000 -0.4798952668
O   O34       1.0  0.47995  0.49103  0.60542  1.0000 -0.4798952668
O   O35       1.0  0.47995  0.00897  0.10542  1.0000 -0.4798952668
O   O36       1.0  0.52005  0.50897  0.39458  1.0000 -0.4798952668
O   O37       1.0  0.54145  0.83057  0.88084  1.0000 -0.4979319253
O   O38       1.0  0.45855  0.33057  0.61916  1.0000 -0.4979319253
O   O39       1.0  0.45855  0.16943  0.11916  1.0000 -0.4979319253
O   O40       1.0  0.54145  0.66943  0.38084  1.0000 -0.4979319253
O   O41       1.0  0.63430  0.70310  0.65089  1.0000 -0.383359255
O   O42       1.0  0.36570  0.20310  0.84911  1.0000 -0.383359255
O   O43       1.0  0.36570  0.29690  0.34911  1.0000 -0.383359255
O   O44       1.0  0.63430  0.79690  0.15089  1.0000 -0.383359255
O   O45       1.0  0.67480  0.80764  0.56696  1.0000 -0.4116162041
O   O46       1.0  0.32520  0.30764  0.93304  1.0000 -0.4116162041
O   O47       1.0  0.32520  0.19236  0.43304  1.0000 -0.4116162041
O   O48       1.0  0.67480  0.69236  0.06696  1.0000 -0.4116162041
O   O49       1.0  0.35962  0.10296  0.96792  1.0000 -0.2789986261
O   O50       1.0  0.64038  0.60296  0.53208  1.0000 -0.2744605371
O   O51       1.0  0.64038  0.89704  0.03208  1.0000 -0.2744605371
O   O52       1.0  0.35962  0.39704  0.46792  1.0000 -0.2789986261
