# DDEC6 charges by PACMAN v1.1 (https://github.com/mtap-research/PACMAN-charge/)
data_2009[Mn][ins]3[FSR]1
_chemical_formula_sum              "Mn4 P4 H12 C4 O24"
_cell_length_a       5.616
_cell_length_b       15.431
_cell_length_c       10.8427
_cell_angle_alpha    90
_cell_angle_beta     119.459
_cell_angle_gamma    90

_symmetry_space_group_name_H-M    "P 1"
_symmetry_Int_Tables_number       1

loop_
  _symmetry_equiv_pos_as_xyz
  'x, y, z'

loop_
  _atom_site_type_symbol
  _atom_site_label
  _atom_site_symmetry_multiplicity
  _atom_site_fract_x
  _atom_site_fract_y
  _atom_site_fract_z
  _atom_site_occupancy
  _atom_site_charge
Mn  Mn1       1.0  0.65876  0.66826  0.44347  1.0000 1.1671811709
Mn  Mn2       1.0  0.34124  0.16826  0.05653  1.0000 1.1671811709
Mn  Mn3       1.0  0.34124  0.33174  0.55653  1.0000 1.1671811709
Mn  Mn4       1.0  0.65876  0.83174  0.94347  1.0000 1.1671811709
P   P1        1.0  0.35582  0.69725  0.64839  1.0000 1.2906841406
P   P2        1.0  0.64418  0.19725  0.85161  1.0000 1.2906841406
P   P3        1.0  0.64418  0.30275  0.35161  1.0000 1.2906841406
P   P4        1.0  0.35582  0.80275  0.14839  1.0000 1.2906841406
H   H1        1.0  0.36190  0.60400  0.65197  1.0000 -0.1032932779
H   H2        1.0  0.63810  0.10400  0.84803  1.0000 -0.1032932779
H   H3        1.0  0.63810  0.39600  0.34803  1.0000 -0.1032932779
H   H4        1.0  0.36190  0.89600  0.15197  1.0000 -0.1032932779
H   H5        1.0  0.90700  0.60700  0.29700  1.0000 0.338357068
H   H6        1.0  0.09300  0.10700  0.20300  1.0000 0.338357068
H   H7        1.0  0.09300  0.39300  0.70300  1.0000 0.338357068
H   H8        1.0  0.90700  0.89300  0.79700  1.0000 0.338357068
H   H9        1.0  0.72400  0.66000  0.21700  1.0000 0.3336463639
H   H10       1.0  0.27600  0.16000  0.28300  1.0000 0.3336463639
H   H11       1.0  0.27600  0.34000  0.78300  1.0000 0.3336463639
H   H12       1.0  0.72400  0.84000  0.71700  1.0000 0.3336463639
C   C1        1.0  0.64820  0.49322  0.56110  1.0000 0.4818279886
C   C2        1.0  0.35180  0.99322  0.93890  1.0000 0.4818279886
C   C3        1.0  0.35180  0.50678  0.43890  1.0000 0.4818279886
C   C4        1.0  0.64820  0.00678  0.06110  1.0000 0.4818279886
O   O1        1.0  0.46348  0.72749  0.80048  1.0000 -0.6793896413
O   O2        1.0  0.53652  0.22749  0.69952  1.0000 -0.6793896413
O   O3        1.0  0.53652  0.27251  0.19952  1.0000 -0.6793896413
O   O4        1.0  0.46348  0.77251  0.30048  1.0000 -0.6793896413
O   O5        1.0  0.05957  0.72322  0.55267  1.0000 -0.6793896413
O   O6        1.0  0.94043  0.22322  0.94733  1.0000 -0.6793896413
O   O7        1.0  0.94043  0.27678  0.44733  1.0000 -0.6793896413
O   O8        1.0  0.05957  0.77678  0.05267  1.0000 -0.6793896413
O   O9        1.0  0.54676  0.72566  0.59306  1.0000 -0.6965814463
O   O10       1.0  0.45324  0.22566  0.90694  1.0000 -0.6965814463
O   O11       1.0  0.45324  0.27434  0.40694  1.0000 -0.6965814463
O   O12       1.0  0.54676  0.77434  0.09306  1.0000 -0.6965814463
O   O13       1.0  0.81704  0.55257  0.58254  1.0000 -0.4418215981
O   O14       1.0  0.18296  0.05257  0.91746  1.0000 -0.4418215981
O   O15       1.0  0.18296  0.44743  0.41746  1.0000 -0.4418215981
O   O16       1.0  0.81704  0.94743  0.08254  1.0000 -0.4418215981
O   O17       1.0  0.69698  0.42317  0.62958  1.0000 -0.4531594745
O   O18       1.0  0.30302  0.92317  0.87042  1.0000 -0.4531594745
O   O19       1.0  0.30302  0.57683  0.37042  1.0000 -0.4531594745
O   O20       1.0  0.69698  0.07683  0.12958  1.0000 -0.4531594745
O   O21       1.0  0.75488  0.62333  0.27268  1.0000 -0.5580616525
O   O22       1.0  0.24512  0.12333  0.22732  1.0000 -0.5580616525
O   O23       1.0  0.24512  0.37667  0.72732  1.0000 -0.5580616525
O   O24       1.0  0.75488  0.87667  0.77268  1.0000 -0.5580616525
