# DDEC6 charges by PACMAN v1.1 (https://github.com/mtap-research/PACMAN-charge/)
data_2009[Zn][dia]3[FSR]2
_chemical_formula_sum              "Zn2 H24 C16 N4 O16"
_cell_length_a       11.0287
_cell_length_b       11.0287
_cell_length_c       6.6597
_cell_angle_alpha    90
_cell_angle_beta     90
_cell_angle_gamma    108.09

_symmetry_space_group_name_H-M    "P 1"
_symmetry_Int_Tables_number       1

loop_
  _symmetry_equiv_pos_as_xyz
  'x, y, z'

loop_
  _atom_site_type_symbol
  _atom_site_label
  _atom_site_symmetry_multiplicity
  _atom_site_fract_x
  _atom_site_fract_y
  _atom_site_fract_z
  _atom_site_occupancy
  _atom_site_charge
Zn  Zn1       1.0  0.50000  0.00000  0.11981  1.0000 0.923984828
Zn  Zn2       1.0  0.00000  0.50000  0.88019  1.0000 0.923984828
H   H1        1.0  0.14170  0.04390  0.33410  1.0000 0.1426032557
H   H2        1.0  0.85830  0.95610  0.33410  1.0000 0.1426032557
H   H3        1.0  0.04390  0.14170  0.66590  1.0000 0.1426032557
H   H4        1.0  0.95610  0.85830  0.66590  1.0000 0.1426032557
H   H5        1.0  0.19030  0.02010  0.55340  1.0000 0.1568901265
H   H6        1.0  0.80970  0.97990  0.55340  1.0000 0.1568901265
H   H7        1.0  0.02010  0.19030  0.44660  1.0000 0.1568901265
H   H8        1.0  0.97990  0.80970  0.44660  1.0000 0.1568901265
H   H9        1.0  0.43290  0.73650  0.60790  1.0000 0.1426032557
H   H10       1.0  0.56710  0.26350  0.60790  1.0000 0.1426032557
H   H11       1.0  0.73650  0.43290  0.39210  1.0000 0.1426032557
H   H12       1.0  0.26350  0.56710  0.39210  1.0000 0.1426032557
H   H13       1.0  0.31500  0.65320  0.73970  1.0000 0.1507786238
H   H14       1.0  0.68500  0.34680  0.73970  1.0000 0.1507786238
H   H15       1.0  0.65320  0.31500  0.26030  1.0000 0.1507786238
H   H16       1.0  0.34680  0.68500  0.26030  1.0000 0.1507786238
H   H17       1.0  0.23500  0.25700  0.38400  1.0000 0.3053426171
H   H18       1.0  0.76500  0.74300  0.38400  1.0000 0.3044549549
H   H19       1.0  0.25700  0.23500  0.61600  1.0000 0.3053426171
H   H20       1.0  0.74300  0.76500  0.61600  1.0000 0.3053426171
H   H21       1.0  0.26000  0.81400  0.45000  1.0000 0.1426032557
H   H22       1.0  0.74000  0.18600  0.45000  1.0000 0.1426032557
H   H23       1.0  0.81400  0.26000  0.55000  1.0000 0.1426032557
H   H24       1.0  0.18600  0.74000  0.55000  1.0000 0.1426032557
C   C1        1.0  0.20866  0.07854  0.43650  1.0000 -0.2472823983
C   C2        1.0  0.79134  0.92146  0.43650  1.0000 -0.2472823983
C   C3        1.0  0.07854  0.20866  0.56350  1.0000 -0.2472823983
C   C4        1.0  0.92146  0.79134  0.56350  1.0000 -0.2472823983
C   C5        1.0  0.33855  0.08745  0.35000  1.0000 0.6111279974
C   C6        1.0  0.66145  0.91255  0.35000  1.0000 0.6111279974
C   C7        1.0  0.08745  0.33855  0.65000  1.0000 0.6111279974
C   C8        1.0  0.91255  0.66145  0.65000  1.0000 0.6111279974
C   C9        1.0  0.34957  0.73443  0.66530  1.0000 -0.2174293412
C   C10       1.0  0.65043  0.26557  0.66530  1.0000 -0.2174293412
C   C11       1.0  0.73443  0.34957  0.33470  1.0000 -0.2174293412
C   C12       1.0  0.26557  0.65043  0.33470  1.0000 -0.2174293412
C   C13       1.0  0.36858  0.84502  0.80920  1.0000 0.6111279974
C   C14       1.0  0.63142  0.15498  0.80920  1.0000 0.6111279974
C   C15       1.0  0.84502  0.36858  0.19080  1.0000 0.6111279974
C   C16       1.0  0.15498  0.63142  0.19080  1.0000 0.6111279974
N   N1        1.0  0.20780  0.20780  0.50000  1.0000 -0.1184572851
N   N2        1.0  0.79220  0.79220  0.50000  1.0000 -0.1184572851
N   N3        1.0  0.26085  0.73915  0.50000  1.0000 -0.1423769793
N   N4        1.0  0.73915  0.26085  0.50000  1.0000 -0.1423769793
O   O1        1.0  0.34892  0.98098  0.29020  1.0000 -0.5233905068
O   O2        1.0  0.65108  0.01902  0.29020  1.0000 -0.5233905068
O   O3        1.0  0.98098  0.34892  0.70980  1.0000 -0.5233905068
O   O4        1.0  0.01902  0.65108  0.70980  1.0000 -0.5233905068
O   O5        1.0  0.42190  0.19014  0.33990  1.0000 -0.5233905068
O   O6        1.0  0.57810  0.80986  0.33990  1.0000 -0.5233905068
O   O7        1.0  0.19014  0.42190  0.66010  1.0000 -0.5233905068
O   O8        1.0  0.80986  0.57810  0.66010  1.0000 -0.5233905068
O   O9        1.0  0.44854  0.84764  0.94860  1.0000 -0.5473992801
O   O10       1.0  0.55146  0.15236  0.94860  1.0000 -0.5473992801
O   O11       1.0  0.84764  0.44854  0.05140  1.0000 -0.5473992801
O   O12       1.0  0.15236  0.55146  0.05140  1.0000 -0.5473992801
O   O13       1.0  0.30985  0.92135  0.78410  1.0000 -0.5355384624
O   O14       1.0  0.69015  0.07865  0.78410  1.0000 -0.5355384624
O   O15       1.0  0.92135  0.30985  0.21590  1.0000 -0.5355384624
O   O16       1.0  0.07865  0.69015  0.21590  1.0000 -0.5355384624
