# DDEC6 charges by PACMAN v1.1 (https://github.com/mtap-research/PACMAN-charge/)
data_2009[Co][nan]3[FSR]2
_chemical_formula_sum              "Co6 H52 C76 N8 O28"
_cell_length_a       16.1678
_cell_length_b       16.1678
_cell_length_c       12.034
_cell_angle_alpha    80.0533
_cell_angle_beta     99.9467
_cell_angle_gamma    140.005

_symmetry_space_group_name_H-M    "P 1"
_symmetry_Int_Tables_number       1

loop_
  _symmetry_equiv_pos_as_xyz
  'x, y, z'

loop_
  _atom_site_type_symbol
  _atom_site_label
  _atom_site_symmetry_multiplicity
  _atom_site_fract_x
  _atom_site_fract_y
  _atom_site_fract_z
  _atom_site_occupancy
  _atom_site_charge
Co  Co1       1.0  0.02097  0.79525  0.52844  1.0000 0.9001645465
Co  Co2       1.0  0.79525  0.02097  0.97156  1.0000 0.9001645465
Co  Co3       1.0  0.97903  0.20475  0.47156  1.0000 0.9001645465
Co  Co4       1.0  0.20475  0.97903  0.02844  1.0000 0.9001645465
Co  Co5       1.0  0.94756  0.94756  0.75000  1.0000 0.9941828866
Co  Co6       1.0  0.05244  0.05244  0.25000  1.0000 0.9950953145
H   H1        1.0  0.90690  0.55150  0.55400  1.0000 0.4031040687
H   H2        1.0  0.55150  0.90690  0.94600  1.0000 0.4031040687
H   H3        1.0  0.09310  0.44850  0.44600  1.0000 0.4031040687
H   H4        1.0  0.44850  0.09310  0.05400  1.0000 0.4031040687
H   H5        1.0  0.94590  0.59950  0.67910  1.0000 0.3734301795
H   H6        1.0  0.59950  0.94590  0.82090  1.0000 0.3734301795
H   H7        1.0  0.05410  0.40050  0.32090  1.0000 0.3734301795
H   H8        1.0  0.40050  0.05410  0.17910  1.0000 0.3734301795
H   H9        1.0  0.43030  0.25210  0.40530  1.0000 0.1201939915
H   H10       1.0  0.25210  0.43030  0.09470  1.0000 0.1201939915
H   H11       1.0  0.56970  0.74790  0.59470  1.0000 0.1201939915
H   H12       1.0  0.74790  0.56970  0.90530  1.0000 0.1201939915
H   H13       1.0  0.60740  0.34180  0.52380  1.0000 0.1201939915
H   H14       1.0  0.34180  0.60740  0.97620  1.0000 0.1201939915
H   H15       1.0  0.39260  0.65820  0.47620  1.0000 0.1201939915
H   H16       1.0  0.65820  0.39260  0.02380  1.0000 0.1201939915
H   H17       1.0  0.58200  0.28020  0.71510  1.0000 0.1128934633
H   H18       1.0  0.28020  0.58200  0.78490  1.0000 0.1128934633
H   H19       1.0  0.41800  0.71980  0.28490  1.0000 0.1128934633
H   H20       1.0  0.71980  0.41800  0.21510  1.0000 0.1128934633
H   H21       1.0  0.79370  0.62510  0.68350  1.0000 0.1128934633
H   H22       1.0  0.62510  0.79370  0.81650  1.0000 0.1128934633
H   H23       1.0  0.20630  0.37490  0.31650  1.0000 0.1128934633
H   H24       1.0  0.37490  0.20630  0.18350  1.0000 0.1128934633
H   H25       1.0  0.58100  0.49740  0.67170  1.0000 0.1287462208
H   H26       1.0  0.49740  0.58100  0.82830  1.0000 0.1287462208
H   H27       1.0  0.41900  0.50260  0.32830  1.0000 0.1287462208
H   H28       1.0  0.50260  0.41900  0.17170  1.0000 0.1287462208
H   H29       1.0  0.61670  0.63450  0.35200  1.0000 0.1201939915
H   H30       1.0  0.63450  0.61670  0.14800  1.0000 0.1201939915
H   H31       1.0  0.38330  0.36550  0.64800  1.0000 0.1201939915
H   H32       1.0  0.36550  0.38330  0.85200  1.0000 0.1201939915
H   H33       1.0  0.83020  0.75960  0.37250  1.0000 0.1201939915
H   H34       1.0  0.75960  0.83020  0.12750  1.0000 0.1201939915
H   H35       1.0  0.16980  0.24040  0.62750  1.0000 0.1201939915
H   H36       1.0  0.24040  0.16980  0.87250  1.0000 0.1201939915
H   H37       1.0  0.20750  0.90550  0.35510  1.0000 0.1128934633
H   H38       1.0  0.90550  0.20750  0.14490  1.0000 0.1128934633
H   H39       1.0  0.79250  0.09450  0.64490  1.0000 0.1128934633
H   H40       1.0  0.09450  0.79250  0.85510  1.0000 0.1128934633
H   H41       1.0  0.40070  0.99150  0.33920  1.0000 0.1201939915
H   H42       1.0  0.99150  0.40070  0.16080  1.0000 0.1201939915
H   H43       1.0  0.59930  0.00850  0.66080  1.0000 0.1201939915
H   H44       1.0  0.00850  0.59930  0.83920  1.0000 0.1201939915
H   H45       1.0  0.43080  0.94360  0.67320  1.0000 0.1287462208
H   H46       1.0  0.94360  0.43080  0.82680  1.0000 0.1287462208
H   H47       1.0  0.56920  0.05640  0.32680  1.0000 0.1287462208
H   H48       1.0  0.05640  0.56920  0.17320  1.0000 0.1287462208
H   H49       1.0  0.23950  0.86590  0.68070  1.0000 0.104400266
H   H50       1.0  0.86590  0.23950  0.81930  1.0000 0.104400266
H   H51       1.0  0.76050  0.13410  0.31930  1.0000 0.104400266
H   H52       1.0  0.13410  0.76050  0.18070  1.0000 0.104400266
C   C1        1.0  0.28050  0.09230  0.63670  1.0000 -0.0538372192
C   C2        1.0  0.09230  0.28050  0.86330  1.0000 -0.0538372192
C   C3        1.0  0.71950  0.90770  0.36330  1.0000 -0.0538372192
C   C4        1.0  0.90770  0.71950  0.13670  1.0000 -0.0538372192
C   C5        1.0  0.29880  0.13360  0.52150  1.0000 -0.0692555923
C   C6        1.0  0.13360  0.29880  0.97850  1.0000 -0.0692555923
C   C7        1.0  0.70120  0.86640  0.47850  1.0000 -0.0692555923
C   C8        1.0  0.86640  0.70120  0.02150  1.0000 -0.0692555923
C   C9        1.0  0.42010  0.22610  0.48180  1.0000 -0.1099756555
C   C10       1.0  0.22610  0.42010  0.01820  1.0000 -0.1099756555
C   C11       1.0  0.57990  0.77390  0.51820  1.0000 -0.1099756555
C   C12       1.0  0.77390  0.57990  0.98180  1.0000 -0.1099756555
C   C13       1.0  0.52630  0.28070  0.55210  1.0000 -0.1037618946
C   C14       1.0  0.28070  0.52630  0.94790  1.0000 -0.1037618946
C   C15       1.0  0.47370  0.71930  0.44790  1.0000 -0.1037618946
C   C16       1.0  0.71930  0.47370  0.05210  1.0000 -0.1037618946
C   C17       1.0  0.51030  0.24310  0.66667  1.0000 -0.1099756555
C   C18       1.0  0.24310  0.51030  0.83340  1.0000 -0.1099756555
C   C19       1.0  0.48970  0.75690  0.33340  1.0000 -0.1099756555
C   C20       1.0  0.75690  0.48970  0.16660  1.0000 -0.1099756555
C   C21       1.0  0.39070  0.15190  0.70990  1.0000 -0.0692555923
C   C22       1.0  0.15190  0.39070  0.79010  1.0000 -0.0692555923
C   C23       1.0  0.60930  0.84810  0.29010  1.0000 -0.0692555923
C   C24       1.0  0.84810  0.60930  0.20990  1.0000 -0.0692555923
C   C25       1.0  0.14500  0.99000  0.67820  1.0000 0.6051528473
C   C26       1.0  0.99000  0.14500  0.82180  1.0000 0.6051528473
C   C27       1.0  0.85500  0.01000  0.32180  1.0000 0.6051528473
C   C28       1.0  0.01000  0.85500  0.17820  1.0000 0.6051528473
C   C29       1.0  0.18670  0.07450  0.43870  1.0000 0.5709166396
C   C30       1.0  0.07450  0.18670  0.06130  1.0000 0.5709166396
C   C31       1.0  0.81330  0.92550  0.56130  1.0000 0.5709166396
C   C32       1.0  0.92550  0.81330  0.93870  1.0000 0.5709166396
C   C33       1.0  0.37980  0.11520  0.83490  1.0000 0.5615636874
C   C34       1.0  0.11520  0.37980  0.66510  1.0000 0.5615636874
C   C35       1.0  0.62020  0.88480  0.16510  1.0000 0.5615636874
C   C36       1.0  0.88480  0.62020  0.33490  1.0000 0.5615636874
C   C37       1.0  0.75720  0.62540  0.61480  1.0000 0.0896368741
C   C38       1.0  0.62540  0.75720  0.88520  1.0000 0.0896368741
C   C39       1.0  0.24280  0.37460  0.38520  1.0000 0.0896368741
C   C40       1.0  0.37460  0.24280  0.11480  1.0000 0.0896368741
C   C41       1.0  0.62900  0.54760  0.60840  1.0000 -0.1893470095
C   C42       1.0  0.54760  0.62900  0.89160  1.0000 -0.1893470095
C   C43       1.0  0.37100  0.45240  0.39160  1.0000 -0.1893470095
C   C44       1.0  0.45240  0.37100  0.10840  1.0000 -0.1893470095
C   C45       1.0  0.56980  0.54400  0.50560  1.0000 0.104400266
C   C46       1.0  0.54400  0.56980  0.99440  1.0000 0.104400266
C   C47       1.0  0.43020  0.45600  0.49440  1.0000 0.104400266
C   C48       1.0  0.45600  0.43020  0.00560  1.0000 0.104400266
C   C49       1.0  0.64950  0.62810  0.41990  1.0000 -0.1893470095
C   C50       1.0  0.62810  0.64950  0.08010  1.0000 -0.1893470095
C   C51       1.0  0.35050  0.37190  0.58010  1.0000 -0.1893470095
C   C52       1.0  0.37190  0.35050  0.91990  1.0000 -0.1893470095
C   C53       1.0  0.77890  0.70430  0.43310  1.0000 0.1128934633
C   C54       1.0  0.70430  0.77890  0.06690  1.0000 0.1128934633
C   C55       1.0  0.22110  0.29570  0.56690  1.0000 0.1128934633
C   C56       1.0  0.29570  0.22110  0.93310  1.0000 0.1128934633
C   C57       1.0  0.25260  0.91280  0.42030  1.0000 0.0896368741
C   C58       1.0  0.91280  0.25260  0.07970  1.0000 0.0896368741
C   C59       1.0  0.74740  0.08720  0.57970  1.0000 0.0896368741
C   C60       1.0  0.08720  0.74740  0.92030  1.0000 0.0896368741
C   C61       1.0  0.36820  0.96320  0.41020  1.0000 -0.2160318773
C   C62       1.0  0.96320  0.36820  0.08980  1.0000 -0.2160318773
C   C63       1.0  0.63180  0.03680  0.58980  1.0000 -0.2160318773
C   C64       1.0  0.03680  0.63180  0.91020  1.0000 -0.2160318773
C   C65       1.0  0.43700  0.97240  0.50400  1.0000 0.1128934633
C   C66       1.0  0.97240  0.43700  0.99600  1.0000 0.1128934633
C   C67       1.0  0.56300  0.02760  0.49600  1.0000 0.1128934633
C   C68       1.0  0.02760  0.56300  0.00400  1.0000 0.1128934633
C   C69       1.0  0.38700  0.93620  0.60660  1.0000 -0.1893470095
C   C70       1.0  0.93620  0.38700  0.89340  1.0000 -0.1893470095
C   C71       1.0  0.61300  0.06380  0.39340  1.0000 -0.1893470095
C   C72       1.0  0.06380  0.61300  0.10660  1.0000 -0.1893470095
C   C73       1.0  0.27110  0.88870  0.61040  1.0000 0.0896368741
C   C74       1.0  0.88870  0.27110  0.88960  1.0000 0.0896368741
C   C75       1.0  0.72890  0.11130  0.38960  1.0000 0.0896368741
C   C76       1.0  0.11130  0.72890  0.11040  1.0000 0.0896368741
N   N1        1.0  0.83350  0.70170  0.52840  1.0000 -0.2430398613
N   N2        1.0  0.70170  0.83350  0.97160  1.0000 -0.2430398613
N   N3        1.0  0.16650  0.29830  0.47160  1.0000 -0.2430398613
N   N4        1.0  0.29830  0.16650  0.02840  1.0000 -0.2430398613
N   N5        1.0  0.20270  0.87390  0.51900  1.0000 -0.2430398613
N   N6        1.0  0.87390  0.20270  0.98100  1.0000 -0.2430398613
N   N7        1.0  0.79730  0.12610  0.48100  1.0000 -0.2430398613
N   N8        1.0  0.12610  0.79730  0.01900  1.0000 -0.2430398613
O   O1        1.0  0.11124  0.03436  0.69920  1.0000 -0.5344398897
O   O2        1.0  0.03436  0.11124  0.80080  1.0000 -0.5344398897
O   O3        1.0  0.88876  0.96564  0.30080  1.0000 -0.5344398897
O   O4        1.0  0.96564  0.88876  0.19920  1.0000 -0.5344398897
O   O5        1.0  0.07578  0.87402  0.68120  1.0000 -0.5657116752
O   O6        1.0  0.87402  0.07578  0.81880  1.0000 -0.5657116752
O   O7        1.0  0.92422  0.12598  0.31880  1.0000 -0.5657116752
O   O8        1.0  0.12598  0.92422  0.18120  1.0000 -0.5657116752
O   O9        1.0  0.26793  0.02967  0.86890  1.0000 -0.5393344145
O   O10       1.0  0.02967  0.26793  0.63110  1.0000 -0.5393344145
O   O11       1.0  0.73207  0.97033  0.13110  1.0000 -0.5393344145
O   O12       1.0  0.97033  0.73207  0.36890  1.0000 -0.5393344145
O   O13       1.0  0.47870  0.17010  0.89620  1.0000 -0.5569666605
O   O14       1.0  0.17010  0.47870  0.60380  1.0000 -0.5569666605
O   O15       1.0  0.52130  0.82990  0.10380  1.0000 -0.5569666605
O   O16       1.0  0.82990  0.52130  0.39620  1.0000 -0.5569666605
O   O17       1.0  0.07921  0.95779  0.45010  1.0000 -0.5393344145
O   O18       1.0  0.95779  0.07921  0.04990  1.0000 -0.5393344145
O   O19       1.0  0.92079  0.04221  0.54990  1.0000 -0.5393344145
O   O20       1.0  0.04221  0.92079  0.95010  1.0000 -0.5393344145
O   O21       1.0  0.20620  0.14660  0.35600  1.0000 -0.5344398897
O   O22       1.0  0.14660  0.20620  0.14400  1.0000 -0.5344398897
O   O23       1.0  0.79380  0.85340  0.64400  1.0000 -0.5344398897
O   O24       1.0  0.85340  0.79380  0.85600  1.0000 -0.5344398897
O   O25       1.0  0.94300  0.61400  0.60110  1.0000 -0.7558512073
O   O26       1.0  0.61400  0.94300  0.89890  1.0000 -0.7558512073
O   O27       1.0  0.05700  0.38600  0.39890  1.0000 -0.7558512073
O   O28       1.0  0.38600  0.05700  0.10110  1.0000 -0.7558512073
