# DDEC6 charges by PACMAN v1.1 (https://github.com/mtap-research/PACMAN-charge/)
data_2009[In][neb]3[FSR]1
_chemical_formula_sum              "In4 C16 O32"
_cell_length_a       17.4914
_cell_length_b       16.1828
_cell_length_c       9.0355
_cell_angle_alpha    82.6179
_cell_angle_beta     66.5658
_cell_angle_gamma    30.8163

_symmetry_space_group_name_H-M    "P 1"
_symmetry_Int_Tables_number       1

loop_
  _symmetry_equiv_pos_as_xyz
  'x, y, z'

loop_
  _atom_site_type_symbol
  _atom_site_label
  _atom_site_symmetry_multiplicity
  _atom_site_fract_x
  _atom_site_fract_y
  _atom_site_fract_z
  _atom_site_occupancy
  _atom_site_charge
In  In1       1.0  0.44080  0.92968  0.53204  1.0000 1.3440731196
In  In2       1.0  0.09749  0.53204  0.92967  1.0000 1.3440731196
In  In3       1.0  0.32033  0.80920  0.15251  1.0000 1.3440731196
In  In4       1.0  0.71796  0.15251  0.80920  1.0000 1.3440731196
C   C1        1.0  0.32632  0.16491  0.79708  1.0000 0.4984180285
C   C2        1.0  0.71169  0.79708  0.16492  1.0000 0.4984180285
C   C3        1.0  0.08508  0.92368  0.53831  1.0000 0.4984180285
C   C4        1.0  0.45292  0.53831  0.92368  1.0000 0.4984180285
C   C5        1.0  0.27642  0.95721  0.87598  1.0000 0.5140796556
C   C6        1.0  0.89038  0.87598  0.95721  1.0000 0.5140796556
C   C7        1.0  0.29279  0.97358  0.35962  1.0000 0.5170081212
C   C8        1.0  0.37402  0.35962  0.97358  1.0000 0.5140796556
C   C9        1.0  0.23999  0.26258  0.69381  1.0000 0.5170081212
C   C10       1.0  0.80361  0.69381  0.26259  1.0000 0.5140796556
C   C11       1.0  0.98742  0.01001  0.44638  1.0000 0.5170081212
C   C12       1.0  0.55619  0.44638  0.01001  1.0000 0.5170081212
C   C13       1.0  0.47945  0.77204  0.79495  1.0000 0.5170081212
C   C14       1.0  0.95355  0.79495  0.77204  1.0000 0.5170081212
C   C15       1.0  0.47796  0.77055  0.29645  1.0000 0.5170081212
C   C16       1.0  0.45505  0.29644  0.77055  1.0000 0.5170081212
O   O1        1.0  0.17321  0.01002  0.02897  1.0000 -0.4012467162
O   O2        1.0  0.78780  0.02897  0.01002  1.0000 -0.4012467162
O   O3        1.0  0.23997  0.07679  0.46220  1.0000 -0.4012467162
O   O4        1.0  0.22103  0.46220  0.07679  1.0000 -0.4012467162
O   O5        1.0  0.14752  0.41045  0.72354  1.0000 -0.4100688779
O   O6        1.0  0.71849  0.72354  0.41045  1.0000 -0.4100688779
O   O7        1.0  0.83955  0.10248  0.53151  1.0000 -0.4100688779
O   O8        1.0  0.52646  0.53151  0.10248  1.0000 -0.4100688779
O   O9        1.0  0.29662  0.24081  0.90658  1.0000 -0.4433886721
O   O10       1.0  0.55599  0.90658  0.24082  1.0000 -0.4433886721
O   O11       1.0  0.00919  0.95338  0.69402  1.0000 -0.4433886721
O   O12       1.0  0.34342  0.69402  0.95338  1.0000 -0.4433886721
O   O13       1.0  0.52708  0.68956  0.89044  1.0000 -0.4503609244
O   O14       1.0  0.89292  0.89044  0.68956  1.0000 -0.4433886721
O   O15       1.0  0.56044  0.72292  0.35707  1.0000 -0.4433886721
O   O16       1.0  0.35956  0.35707  0.72292  1.0000 -0.4433886721
O   O17       1.0  0.22889  0.04081  0.78079  1.0000 -0.4503609244
O   O18       1.0  0.94951  0.78079  0.04080  1.0000 -0.4503609244
O   O19       1.0  0.20920  0.02111  0.30049  1.0000 -0.4503609244
O   O20       1.0  0.46921  0.30048  0.02111  1.0000 -0.4503609244
O   O21       1.0  0.58246  0.71669  0.64150  1.0000 -0.379960318
O   O22       1.0  0.05935  0.64150  0.71669  1.0000 -0.379960318
O   O23       1.0  0.53331  0.66754  0.19065  1.0000 -0.379960318
O   O24       1.0  0.60850  0.19065  0.66754  1.0000 -0.379960318
O   O25       1.0  0.25863  0.19647  0.58833  1.0000 -0.4100688779
O   O26       1.0  0.95657  0.58833  0.19647  1.0000 -0.4100688779
O   O27       1.0  0.05354  0.99137  0.29342  1.0000 -0.4100688779
O   O28       1.0  0.66167  0.29342  0.99137  1.0000 -0.4100688779
O   O29       1.0  0.42107  0.01587  0.76033  1.0000 -0.4503609244
O   O30       1.0  0.80273  0.76033  0.01587  1.0000 -0.4503609244
O   O31       1.0  0.23414  0.82893  0.44726  1.0000 -0.4503609244
O   O32       1.0  0.48967  0.44727  0.82893  1.0000 -0.4503609244
