# DDEC6 charges by PACMAN v1.1 (https://github.com/mtap-research/PACMAN-charge/)
data_2009[HoAg][nan]3[FSR]1
_chemical_formula_sum              "Ho4 Ag4 H32 C56 N8 O32"
_cell_length_a       9.1137
_cell_length_b       22.259
_cell_length_c       9.6639
_cell_angle_alpha    90
_cell_angle_beta     117.96
_cell_angle_gamma    90

_symmetry_space_group_name_H-M    "P 1"
_symmetry_Int_Tables_number       1

loop_
  _symmetry_equiv_pos_as_xyz
  'x, y, z'

loop_
  _atom_site_type_symbol
  _atom_site_label
  _atom_site_symmetry_multiplicity
  _atom_site_fract_x
  _atom_site_fract_y
  _atom_site_fract_z
  _atom_site_occupancy
  _atom_site_charge
Ho  Ho1       1.0  0.61922  0.00827  0.35460  1.0000 2.0491699131
Ho  Ho2       1.0  0.88078  0.50827  0.64540  1.0000 2.0491699131
Ho  Ho3       1.0  0.38078  0.99173  0.64540  1.0000 2.0491699131
Ho  Ho4       1.0  0.11922  0.49173  0.35460  1.0000 2.0491699131
Ag  Ag1       1.0  0.01177  0.85168  0.67984  1.0000 0.3349355014
Ag  Ag2       1.0  0.48823  0.35168  0.32016  1.0000 0.3349355014
Ag  Ag3       1.0  0.98823  0.14832  0.32016  1.0000 0.3349355014
Ag  Ag4       1.0  0.51177  0.64832  0.67984  1.0000 0.3349355014
H   H1        1.0  0.94520  0.92890  0.22720  1.0000 0.1287933875
H   H2        1.0  0.55480  0.42890  0.77280  1.0000 0.1287933875
H   H3        1.0  0.05480  0.07110  0.77280  1.0000 0.1287933875
H   H4        1.0  0.44520  0.57110  0.22720  1.0000 0.1287933875
H   H5        1.0  0.74600  0.86780  0.03680  1.0000 0.1476791801
H   H6        1.0  0.75400  0.36780  0.96320  1.0000 0.1476791801
H   H7        1.0  0.25400  0.13220  0.96320  1.0000 0.1476791801
H   H8        1.0  0.24600  0.63220  0.03680  1.0000 0.1476791801
H   H9        1.0  0.77530  0.84110  0.82320  1.0000 0.1001876073
H   H10       1.0  0.72470  0.34110  0.17680  1.0000 0.1001876073
H   H11       1.0  0.22470  0.15890  0.17680  1.0000 0.1001876073
H   H12       1.0  0.27530  0.65890  0.82320  1.0000 0.1001876073
H   H13       1.0  0.18250  0.93500  0.97110  1.0000 0.1287933875
H   H14       1.0  0.31750  0.43500  0.02890  1.0000 0.1287933875
H   H15       1.0  0.81750  0.06500  0.02890  1.0000 0.1287933875
H   H16       1.0  0.68250  0.56500  0.97110  1.0000 0.1287933875
H   H17       1.0  0.98510  0.71590  0.63800  1.0000 0.1094644816
H   H18       1.0  0.51490  0.21590  0.36200  1.0000 0.1094644816
H   H19       1.0  0.01490  0.28410  0.36200  1.0000 0.1094644816
H   H20       1.0  0.48510  0.78410  0.63800  1.0000 0.1094644816
H   H21       1.0  0.10180  0.65990  0.30950  1.0000 0.1476791801
H   H22       1.0  0.39820  0.15990  0.69050  1.0000 0.1476791801
H   H23       1.0  0.89820  0.34010  0.69050  1.0000 0.1476791801
H   H24       1.0  0.60180  0.84010  0.30950  1.0000 0.1476791801
H   H25       1.0  0.13870  0.75980  0.26250  1.0000 0.1287933875
H   H26       1.0  0.36130  0.25980  0.73750  1.0000 0.1287933875
H   H27       1.0  0.86130  0.24020  0.73750  1.0000 0.1287933875
H   H28       1.0  0.63870  0.74020  0.26250  1.0000 0.1287933875
H   H29       1.0  0.10840  0.83340  0.41220  1.0000 0.1180234851
H   H30       1.0  0.39160  0.33340  0.58780  1.0000 0.1180234851
H   H31       1.0  0.89160  0.16660  0.58780  1.0000 0.1180234851
H   H32       1.0  0.60840  0.66667  0.41220  1.0000 0.1180234851
C   C1        1.0  0.22440  0.97436  0.24610  1.0000 0.6353879722
C   C2        1.0  0.27560  0.47436  0.75390  1.0000 0.6353879722
C   C3        1.0  0.77560  0.02564  0.75390  1.0000 0.6353879722
C   C4        1.0  0.72440  0.52564  0.24610  1.0000 0.6353879722
C   C5        1.0  0.08810  0.93770  0.11970  1.0000 -0.0655244503
C   C6        1.0  0.41190  0.43770  0.88030  1.0000 -0.0655244503
C   C7        1.0  0.91190  0.06230  0.88030  1.0000 -0.0655244503
C   C8        1.0  0.58810  0.56230  0.11970  1.0000 -0.0655244503
C   C9        1.0  0.95490  0.91787  0.13910  1.0000 -0.0582525151
C   C10       1.0  0.54510  0.41787  0.86090  1.0000 -0.0582525151
C   C11       1.0  0.04510  0.08213  0.86090  1.0000 -0.0582525151
C   C12       1.0  0.45490  0.58213  0.13910  1.0000 -0.0582525151
C   C13       1.0  0.83650  0.88140  0.02600  1.0000 -0.1129478513
C   C14       1.0  0.66350  0.38140  0.97400  1.0000 -0.1129478513
C   C15       1.0  0.16350  0.11860  0.97400  1.0000 -0.1129478513
C   C16       1.0  0.33650  0.61860  0.02600  1.0000 -0.1129478513
C   C17       1.0  0.85480  0.86590  0.89830  1.0000 0.0659083875
C   C18       1.0  0.64520  0.36590  0.10170  1.0000 0.0659083875
C   C19       1.0  0.14520  0.13410  0.10170  1.0000 0.0659083875
C   C20       1.0  0.35480  0.63410  0.89830  1.0000 0.0659083875
C   C21       1.0  0.09500  0.92080  0.98610  1.0000 0.052960613
C   C22       1.0  0.40500  0.42080  0.01390  1.0000 0.052960613
C   C23       1.0  0.90500  0.07920  0.01390  1.0000 0.052960613
C   C24       1.0  0.59500  0.57920  0.98610  1.0000 0.052960613
C   C25       1.0  0.01840  0.72449  0.56270  1.0000 0.0241486432
C   C26       1.0  0.48160  0.22449  0.43730  1.0000 0.0241486432
C   C27       1.0  0.98160  0.27551  0.43730  1.0000 0.0241486432
C   C28       1.0  0.51840  0.77551  0.56270  1.0000 0.0241486432
C   C29       1.0  0.03940  0.67720  0.48110  1.0000 -0.0782213489
C   C30       1.0  0.46060  0.17720  0.51890  1.0000 -0.0782213489
C   C31       1.0  0.96060  0.32280  0.51890  1.0000 -0.0782213489
C   C32       1.0  0.53940  0.82280  0.48110  1.0000 -0.0782213489
C   C33       1.0  0.08630  0.69050  0.36690  1.0000 -0.0487486197
C   C34       1.0  0.41370  0.19050  0.63310  1.0000 -0.0487486197
C   C35       1.0  0.91370  0.30950  0.63310  1.0000 -0.0487486197
C   C36       1.0  0.58630  0.80950  0.36690  1.0000 -0.0487486197
C   C37       1.0  0.10970  0.74980  0.33990  1.0000 -0.1456267496
C   C38       1.0  0.39030  0.24980  0.66010  1.0000 -0.1456267496
C   C39       1.0  0.89030  0.25020  0.66010  1.0000 -0.1456267496
C   C40       1.0  0.60970  0.75020  0.33990  1.0000 -0.1456267496
C   C41       1.0  0.08940  0.79370  0.42900  1.0000 0.0659083875
C   C42       1.0  0.41060  0.29370  0.57100  1.0000 0.0659083875
C   C43       1.0  0.91060  0.20630  0.57100  1.0000 0.0659083875
C   C44       1.0  0.58940  0.70630  0.42900  1.0000 0.0659083875
C   C45       1.0  0.01080  0.61420  0.51680  1.0000 0.6138407143
C   C46       1.0  0.48920  0.11420  0.48320  1.0000 0.6138407143
C   C47       1.0  0.98920  0.38580  0.48320  1.0000 0.6138407143
C   C48       1.0  0.51080  0.88580  0.51680  1.0000 0.6138407143
C   C49       1.0  0.50810  0.96559  0.00750  1.0000 0.4811729641
C   C50       1.0  0.99190  0.46559  0.99250  1.0000 0.4811729641
C   C51       1.0  0.49190  0.03441  0.99250  1.0000 0.4811729641
C   C52       1.0  0.00810  0.53441  0.00750  1.0000 0.4811729641
C   C53       1.0  0.99780  0.96683  0.52000  1.0000 0.4811729641
C   C54       1.0  0.50220  0.46683  0.48000  1.0000 0.4811729641
C   C55       1.0  0.00220  0.03317  0.48000  1.0000 0.4811729641
C   C56       1.0  0.49780  0.53317  0.52000  1.0000 0.4811729641
N   N1        1.0  0.98190  0.88476  0.87600  1.0000 -0.1841782293
N   N2        1.0  0.51810  0.38476  0.12400  1.0000 -0.1841782293
N   N3        1.0  0.01810  0.11524  0.12400  1.0000 -0.1841782293
N   N4        1.0  0.48190  0.61524  0.87600  1.0000 -0.1841782293
N   N5        1.0  0.04330  0.78198  0.53950  1.0000 -0.1841782293
N   N6        1.0  0.45670  0.28198  0.46050  1.0000 -0.1841782293
N   N7        1.0  0.95670  0.21802  0.46050  1.0000 -0.1841782293
N   N8        1.0  0.54330  0.71802  0.53950  1.0000 -0.1841782293
O   O1        1.0  0.32800  0.99912  0.21260  1.0000 -0.6591315268
O   O2        1.0  0.17200  0.49912  0.78740  1.0000 -0.6591315268
O   O3        1.0  0.67200  0.00088  0.78740  1.0000 -0.6591315268
O   O4        1.0  0.82800  0.50088  0.21260  1.0000 -0.6591315268
O   O5        1.0  0.22350  0.97613  0.37450  1.0000 -0.6521995364
O   O6        1.0  0.27650  0.47613  0.62550  1.0000 -0.6521995364
O   O7        1.0  0.77650  0.02387  0.62550  1.0000 -0.6521995364
O   O8        1.0  0.72350  0.52387  0.37450  1.0000 -0.6521995364
O   O9        1.0  0.94920  0.60668  0.60760  1.0000 -0.6204506604
O   O10       1.0  0.55080  0.10668  0.39240  1.0000 -0.6204506604
O   O11       1.0  0.05080  0.39332  0.39240  1.0000 -0.6204506604
O   O12       1.0  0.44920  0.89332  0.60760  1.0000 -0.6204506604
O   O13       1.0  0.04820  0.57264  0.45170  1.0000 -0.6733122913
O   O14       1.0  0.45180  0.07264  0.54830  1.0000 -0.6733122913
O   O15       1.0  0.95180  0.42736  0.54830  1.0000 -0.6733122913
O   O16       1.0  0.54820  0.92736  0.45170  1.0000 -0.6733122913
O   O17       1.0  0.13400  0.94346  0.61490  1.0000 -0.5803385524
O   O18       1.0  0.36600  0.44346  0.38510  1.0000 -0.5803385524
O   O19       1.0  0.86600  0.05654  0.38510  1.0000 -0.5803385524
O   O20       1.0  0.63400  0.55654  0.61490  1.0000 -0.5803385524
O   O21       1.0  0.86050  0.94095  0.45690  1.0000 -0.5653869508
O   O22       1.0  0.63950  0.44095  0.54310  1.0000 -0.5653869508
O   O23       1.0  0.13950  0.05905  0.54310  1.0000 -0.5653869508
O   O24       1.0  0.36050  0.55905  0.45690  1.0000 -0.5653869508
O   O25       1.0  0.57810  0.94439  0.14370  1.0000 -0.6049945204
O   O26       1.0  0.92190  0.44439  0.85630  1.0000 -0.6057528107
O   O27       1.0  0.42190  0.05561  0.85630  1.0000 -0.6049945204
O   O28       1.0  0.07810  0.55561  0.14370  1.0000 -0.6049945204
O   O29       1.0  0.45070  0.93619  0.88260  1.0000 -0.5803385524
O   O30       1.0  0.04930  0.43619  0.11740  1.0000 -0.5803385524
O   O31       1.0  0.54930  0.06381  0.11740  1.0000 -0.5803385524
O   O32       1.0  0.95070  0.56381  0.88260  1.0000 -0.5803385524
