# DDEC6 charges by PACMAN v1.1 (https://github.com/mtap-research/PACMAN-charge/)
data_2009[CuDy][nan]3[FSR]1
_chemical_formula_sum              "Dy4 Cu4 H32 C56 N8 O32"
_cell_length_a       9.175
_cell_length_b       21.51
_cell_length_c       9.493
_cell_angle_alpha    90
_cell_angle_beta     116.483
_cell_angle_gamma    90

_symmetry_space_group_name_H-M    "P 1"
_symmetry_Int_Tables_number       1

loop_
  _symmetry_equiv_pos_as_xyz
  'x, y, z'

loop_
  _atom_site_type_symbol
  _atom_site_label
  _atom_site_symmetry_multiplicity
  _atom_site_fract_x
  _atom_site_fract_y
  _atom_site_fract_z
  _atom_site_occupancy
  _atom_site_charge
Dy  Dy1       1.0  0.12484  0.99174  0.35745  1.0000 2.0484348594
Dy  Dy2       1.0  0.37516  0.49174  0.64255  1.0000 2.0484348594
Dy  Dy3       1.0  0.87516  0.00826  0.64255  1.0000 2.0484348594
Dy  Dy4       1.0  0.62484  0.50826  0.35745  1.0000 2.0484348594
Cu  Cu1       1.0  0.46158  0.85361  0.30823  1.0000 0.3287593781
Cu  Cu2       1.0  0.03842  0.35361  0.69177  1.0000 0.3287593781
Cu  Cu3       1.0  0.53842  0.14639  0.69177  1.0000 0.3287593781
Cu  Cu4       1.0  0.96158  0.64639  0.30823  1.0000 0.3287593781
H   H1        1.0  0.70710  0.06920  0.97320  1.0000 0.1236607566
H   H2        1.0  0.79290  0.56920  0.02680  1.0000 0.1236607566
H   H3        1.0  0.29290  0.93080  0.02680  1.0000 0.1236607566
H   H4        1.0  0.20710  0.43080  0.97320  1.0000 0.1236607566
H   H5        1.0  0.44520  0.07040  0.20900  1.0000 0.1364300309
H   H6        1.0  0.05480  0.57040  0.79100  1.0000 0.1364300309
H   H7        1.0  0.55480  0.92960  0.79100  1.0000 0.1364300309
H   H8        1.0  0.94520  0.42960  0.20900  1.0000 0.1364300309
H   H9        1.0  0.00440  0.77750  0.34500  1.0000 0.1101656652
H   H10       1.0  0.49560  0.27750  0.65500  1.0000 0.1101656652
H   H11       1.0  0.99560  0.22250  0.65500  1.0000 0.1101656652
H   H12       1.0  0.50440  0.72250  0.34500  1.0000 0.1101656652
H   H13       1.0  0.85420  0.73030  0.73170  1.0000 0.1265333242
H   H14       1.0  0.64580  0.23030  0.26830  1.0000 0.1265333242
H   H15       1.0  0.14580  0.26970  0.26830  1.0000 0.1265333242
H   H16       1.0  0.35420  0.76970  0.73170  1.0000 0.1265333242
H   H17       1.0  0.89240  0.83360  0.68680  1.0000 0.1488044246
H   H18       1.0  0.60760  0.33360  0.31320  1.0000 0.1488044246
H   H19       1.0  0.10760  0.16640  0.31320  1.0000 0.1488044246
H   H20       1.0  0.39240  0.66640  0.68680  1.0000 0.1488044246
H   H21       1.0  0.24470  0.12400  0.00490  1.0000 0.1488044246
H   H22       1.0  0.25530  0.62400  0.99510  1.0000 0.1488044246
H   H23       1.0  0.75530  0.87600  0.99510  1.0000 0.1488044246
H   H24       1.0  0.74470  0.37600  0.00490  1.0000 0.1488044246
H   H25       1.0  0.29460  0.15860  0.80240  1.0000 0.0955067335
H   H26       1.0  0.20540  0.65860  0.19760  1.0000 0.0955067335
H   H27       1.0  0.70540  0.84140  0.19760  1.0000 0.0955067335
H   H28       1.0  0.79460  0.34140  0.80240  1.0000 0.0955067335
H   H29       1.0  0.87530  0.65490  0.57170  1.0000 0.1101656652
H   H30       1.0  0.62470  0.15490  0.42830  1.0000 0.1101656652
H   H31       1.0  0.12470  0.34510  0.42830  1.0000 0.1101656652
H   H32       1.0  0.37530  0.84510  0.57170  1.0000 0.1101656652
C   C1        1.0  0.01190  0.03550  0.00810  1.0000 0.4762968554
C   C2        1.0  0.48810  0.53550  0.99190  1.0000 0.4762968554
C   C3        1.0  0.98810  0.96450  0.99190  1.0000 0.4762968554
C   C4        1.0  0.51190  0.46450  0.00810  1.0000 0.4762968554
C   C5        1.0  0.73260  0.02800  0.24320  1.0000 0.6312342941
C   C6        1.0  0.76740  0.52800  0.75680  1.0000 0.6312342941
C   C7        1.0  0.26740  0.97200  0.75680  1.0000 0.6312342941
C   C8        1.0  0.23260  0.47200  0.24320  1.0000 0.6312342941
C   C9        1.0  0.98670  0.88160  0.47750  1.0000 0.6067427455
C   C10       1.0  0.51330  0.38160  0.52250  1.0000 0.6067427455
C   C11       1.0  0.01330  0.11840  0.52250  1.0000 0.6067427455
C   C12       1.0  0.48670  0.61840  0.47750  1.0000 0.6067427455
C   C13       1.0  0.59710  0.06430  0.11200  1.0000 -0.0595604812
C   C14       1.0  0.90290  0.56430  0.88800  1.0000 -0.0595604812
C   C15       1.0  0.40290  0.93570  0.88800  1.0000 -0.0595604812
C   C16       1.0  0.09710  0.43570  0.11200  1.0000 -0.0595604812
C   C17       1.0  0.61450  0.08200  0.98170  1.0000 0.0470509215
C   C18       1.0  0.88550  0.58200  0.01830  1.0000 0.0470509215
C   C19       1.0  0.38550  0.91800  0.01830  1.0000 0.0470509215
C   C20       1.0  0.11450  0.41800  0.98170  1.0000 0.0470509215
C   C21       1.0  0.45960  0.08130  0.12130  1.0000 -0.0595604812
C   C22       1.0  0.04040  0.58130  0.87870  1.0000 -0.0595604812
C   C23       1.0  0.54040  0.91870  0.87870  1.0000 -0.0595604812
C   C24       1.0  0.95960  0.41870  0.12130  1.0000 -0.0595604812
C   C25       1.0  0.97080  0.76810  0.42160  1.0000 0.0284447011
C   C26       1.0  0.52920  0.26810  0.57840  1.0000 0.0284447011
C   C27       1.0  0.02920  0.23190  0.57840  1.0000 0.0284447011
C   C28       1.0  0.47080  0.73190  0.42160  1.0000 0.0284447011
C   C29       1.0  0.88140  0.74110  0.65140  1.0000 -0.1441119851
C   C30       1.0  0.61860  0.24110  0.34860  1.0000 -0.1441119851
C   C31       1.0  0.11860  0.25890  0.34860  1.0000 -0.1441119851
C   C32       1.0  0.38140  0.75890  0.65140  1.0000 -0.1441119851
C   C33       1.0  0.90630  0.80230  0.62630  1.0000 -0.0460857728
C   C34       1.0  0.59370  0.30230  0.37370  1.0000 -0.0460857728
C   C35       1.0  0.09370  0.19770  0.37370  1.0000 -0.0460857728
C   C36       1.0  0.40630  0.69770  0.62630  1.0000 -0.0460857728
C   C37       1.0  0.34240  0.11440  0.00240  1.0000 -0.1081579996
C   C38       1.0  0.15760  0.61440  0.99760  1.0000 -0.1081579996
C   C39       1.0  0.65760  0.88560  0.99760  1.0000 -0.1081579996
C   C40       1.0  0.84240  0.38560  0.00240  1.0000 -0.1081579996
C   C41       1.0  0.37100  0.13330  0.87940  1.0000 0.0637792556
C   C42       1.0  0.12900  0.63330  0.12060  1.0000 0.0637792556
C   C43       1.0  0.62900  0.86670  0.12060  1.0000 0.0637792556
C   C44       1.0  0.87100  0.36670  0.87940  1.0000 0.0637792556
C   C45       1.0  0.95220  0.81660  0.50960  1.0000 -0.0713200939
C   C46       1.0  0.54780  0.31660  0.49040  1.0000 -0.0713200939
C   C47       1.0  0.04780  0.18340  0.49040  1.0000 -0.0713200939
C   C48       1.0  0.45220  0.68340  0.50960  1.0000 -0.0713200939
C   C49       1.0  0.89700  0.69590  0.55640  1.0000 0.0760448335
C   C50       1.0  0.60300  0.19590  0.44360  1.0000 0.0760448335
C   C51       1.0  0.10300  0.30410  0.44360  1.0000 0.0760448335
C   C52       1.0  0.39700  0.80410  0.55640  1.0000 0.0760448335
C   C53       1.0  0.50250  0.96640  0.47810  1.0000 0.4762968554
C   C54       1.0  0.99750  0.46640  0.52190  1.0000 0.4762968554
C   C55       1.0  0.49750  0.03360  0.52190  1.0000 0.4762968554
C   C56       1.0  0.00250  0.53360  0.47810  1.0000 0.4762968554
N   N1        1.0  0.50430  0.11690  0.86530  1.0000 -0.1932779045
N   N2        1.0  0.99570  0.61690  0.13470  1.0000 -0.1932779045
N   N3        1.0  0.49570  0.88310  0.13470  1.0000 -0.1932779045
N   N4        1.0  0.00430  0.38310  0.86530  1.0000 -0.1932779045
N   N5        1.0  0.94240  0.70820  0.44210  1.0000 -0.1993357034
N   N6        1.0  0.55760  0.20820  0.55790  1.0000 -0.1993357034
N   N7        1.0  0.05760  0.29180  0.55790  1.0000 -0.1993357034
N   N8        1.0  0.44240  0.79180  0.44210  1.0000 -0.1993357034
O   O1        1.0  0.83960  0.00386  0.21480  1.0000 -0.6350652517
O   O2        1.0  0.66040  0.50386  0.78520  1.0000 -0.6350652517
O   O3        1.0  0.16040  0.99614  0.78520  1.0000 -0.6350652517
O   O4        1.0  0.33960  0.49614  0.21480  1.0000 -0.6350652517
O   O5        1.0  0.36970  0.94212  0.38240  1.0000 -0.581908697
O   O6        1.0  0.13030  0.44212  0.61760  1.0000 -0.581908697
O   O7        1.0  0.63030  0.05788  0.61760  1.0000 -0.581908697
O   O8        1.0  0.86970  0.55788  0.38240  1.0000 -0.581908697
O   O9        1.0  0.08980  0.05696  0.14400  1.0000 -0.599353695
O   O10       1.0  0.41020  0.55696  0.85600  1.0000 -0.599353695
O   O11       1.0  0.91020  0.94304  0.85600  1.0000 -0.599353695
O   O12       1.0  0.58980  0.44304  0.14400  1.0000 -0.599353695
O   O13       1.0  0.05370  0.88944  0.39000  1.0000 -0.6086384596
O   O14       1.0  0.44630  0.38944  0.61000  1.0000 -0.6086384596
O   O15       1.0  0.94630  0.11056  0.61000  1.0000 -0.6086384596
O   O16       1.0  0.55370  0.61056  0.39000  1.0000 -0.6086384596
O   O17       1.0  0.94580  0.92457  0.54030  1.0000 -0.6731270791
O   O18       1.0  0.55420  0.42457  0.45970  1.0000 -0.6731270791
O   O19       1.0  0.05420  0.07543  0.45970  1.0000 -0.6731270791
O   O20       1.0  0.44580  0.57543  0.54030  1.0000 -0.6731270791
O   O21       1.0  0.72450  0.02810  0.37130  1.0000 -0.6584697009
O   O22       1.0  0.77550  0.52810  0.62870  1.0000 -0.6584697009
O   O23       1.0  0.27550  0.97190  0.62870  1.0000 -0.6584697009
O   O24       1.0  0.22450  0.47190  0.37130  1.0000 -0.6584697009
O   O25       1.0  0.94840  0.06583  0.88270  1.0000 -0.581908697
O   O26       1.0  0.55160  0.56583  0.11730  1.0000 -0.581908697
O   O27       1.0  0.05160  0.93417  0.11730  1.0000 -0.581908697
O   O28       1.0  0.44840  0.43417  0.88270  1.0000 -0.581908697
O   O29       1.0  0.63620  0.93902  0.53910  1.0000 -0.563273722
O   O30       1.0  0.86380  0.43902  0.46090  1.0000 -0.563273722
O   O31       1.0  0.36380  0.06098  0.46090  1.0000 -0.563273722
O   O32       1.0  0.13620  0.56098  0.53910  1.0000 -0.563273722
