# DDEC6 charges by PACMAN v1.1 (https://github.com/mtap-research/PACMAN-charge/)
data_2009[Cd][tfz]3[FSR]1
_chemical_formula_sum              "Cd2 H34 C46 N4 O12"
_cell_length_a       10.4
_cell_length_b       11.48
_cell_length_c       12.5149
_cell_angle_alpha    111.626
_cell_angle_beta     109.873
_cell_angle_gamma    101.658

_symmetry_space_group_name_H-M    "P 1"
_symmetry_Int_Tables_number       1

loop_
  _symmetry_equiv_pos_as_xyz
  'x, y, z'

loop_
  _atom_site_type_symbol
  _atom_site_label
  _atom_site_symmetry_multiplicity
  _atom_site_fract_x
  _atom_site_fract_y
  _atom_site_fract_z
  _atom_site_occupancy
  _atom_site_charge
Cd  Cd1       1.0  0.49351  0.12826  0.42988  1.0000 0.8473410025
Cd  Cd2       1.0  0.50649  0.87174  0.57012  1.0000 0.8473410025
H   H1        1.0  0.35130  0.69570  0.06700  1.0000 0.1193796709
H   H2        1.0  0.64870  0.30430  0.93300  1.0000 0.1193796709
H   H3        1.0  0.05630  0.43270  0.16170  1.0000 0.1193796709
H   H4        1.0  0.94370  0.56730  0.83830  1.0000 0.1193796709
H   H5        1.0  0.17410  0.66370  0.29780  1.0000 0.1193796709
H   H6        1.0  0.82590  0.33630  0.70220  1.0000 0.1193796709
H   H7        1.0  0.42740  0.56890  0.94460  1.0000 0.1125068285
H   H8        1.0  0.57260  0.43110  0.05540  1.0000 0.1125068285
H   H9        1.0  0.28790  0.56750  0.84150  1.0000 0.1193796709
H   H10       1.0  0.71210  0.43250  0.15850  1.0000 0.1193796709
H   H11       1.0  0.46780  0.55910  0.73780  1.0000 0.1394399568
H   H12       1.0  0.53220  0.44090  0.26220  1.0000 0.1394399568
H   H13       1.0  0.51650  0.42200  0.58540  1.0000 0.1125068285
H   H14       1.0  0.48350  0.57800  0.41460  1.0000 0.1125068285
H   H15       1.0  0.30810  0.10720  0.59380  1.0000 0.1193796709
H   H16       1.0  0.69190  0.89280  0.40620  1.0000 0.1193796709
H   H17       1.0  0.25200  0.23900  0.74760  1.0000 0.1496571665
H   H18       1.0  0.74800  0.76100  0.25240  1.0000 0.1496571665
H   H19       1.0  0.93490  0.11250  0.90390  1.0000 0.1193796709
H   H20       1.0  0.06510  0.88750  0.09610  1.0000 0.1193796709
H   H21       1.0  0.92880  0.23490  0.01000  1.0000 0.1125068285
H   H22       1.0  0.07120  0.76510  0.99000  1.0000 0.1125068285
H   H23       1.0  0.24970  0.17640  0.01380  1.0000 0.1394399568
H   H24       1.0  0.75030  0.82360  0.98620  1.0000 0.1394399568
H   H25       1.0  0.41250  0.14520  0.16850  1.0000 0.1125068285
H   H26       1.0  0.58750  0.85480  0.83150  1.0000 0.1125068285
H   H27       1.0  0.15950  0.15240  0.33900  1.0000 0.101649867
H   H28       1.0  0.84050  0.84760  0.66100  1.0000 0.101649867
H   H29       1.0  0.99030  0.18090  0.18750  1.0000 0.1394399568
H   H30       1.0  0.00970  0.81910  0.81250  1.0000 0.1394399568
H   H31       1.0  0.81480  0.55660  0.53370  1.0000 0.1125068285
H   H32       1.0  0.18520  0.44340  0.46630  1.0000 0.1125068285
H   H33       1.0  0.98340  0.28120  0.43430  1.0000 0.1193796709
H   H34       1.0  0.01660  0.71880  0.56570  1.0000 0.1193796709
C   C1        1.0  0.35250  0.85230  0.28130  1.0000 0.545852305
C   C2        1.0  0.64750  0.14770  0.71870  1.0000 0.545852305
C   C3        1.0  0.27380  0.70260  0.19470  1.0000 -0.0171329439
C   C4        1.0  0.72620  0.29740  0.80530  1.0000 -0.0171329439
C   C5        1.0  0.29310  0.64280  0.08700  1.0000 -0.2629305855
C   C6        1.0  0.70690  0.35720  0.91300  1.0000 -0.2629305855
C   C7        1.0  0.22550  0.50200  0.00660  1.0000 0.1496571665
C   C8        1.0  0.77450  0.49800  0.99340  1.0000 0.1496571665
C   C9        1.0  0.13600  0.42430  0.03510  1.0000 0.1496571665
C   C10       1.0  0.86400  0.57570  0.96490  1.0000 0.1496571665
C   C11       1.0  0.11670  0.48510  0.14290  1.0000 -0.2307844371
C   C12       1.0  0.88330  0.51490  0.85710  1.0000 -0.2307844371
C   C13       1.0  0.18620  0.62400  0.22420  1.0000 -0.1059507117
C   C14       1.0  0.81380  0.37600  0.77580  1.0000 -0.1059507117
C   C15       1.0  0.33320  0.51090  0.86900  1.0000 -0.0875335843
C   C16       1.0  0.66680  0.48910  0.13100  1.0000 -0.0875335843
C   C17       1.0  0.35630  0.41500  0.76100  1.0000 0.1276311293
C   C18       1.0  0.64370  0.58500  0.23900  1.0000 0.1276311293
C   C19       1.0  0.43410  0.46660  0.70990  1.0000 -0.20296987
C   C20       1.0  0.56590  0.53340  0.29010  1.0000 -0.20296987
C   C21       1.0  0.46300  0.38410  0.61860  1.0000 0.0601971145
C   C22       1.0  0.53700  0.61590  0.38140  1.0000 0.0601971145
C   C23       1.0  0.34090  0.19990  0.62320  1.0000 0.094900915
C   C24       1.0  0.65910  0.80010  0.37680  1.0000 0.101649867
C   C25       1.0  0.30710  0.27850  0.71630  1.0000 -0.1879029259
C   C26       1.0  0.69290  0.72150  0.28370  1.0000 -0.1879029259
C   C27       1.0  0.99440  0.19970  0.98020  1.0000 -0.0845828042
C   C28       1.0  0.00560  0.80030  0.01980  1.0000 -0.0845828042
C   C29       1.0  0.10110  0.18160  0.08380  1.0000 0.1193796709
C   C30       1.0  0.89890  0.81840  0.91620  1.0000 0.1193796709
C   C31       1.0  0.22960  0.17150  0.07930  1.0000 -0.20296987
C   C32       1.0  0.77040  0.82850  0.92070  1.0000 -0.20296987
C   C33       1.0  0.32730  0.15380  0.17320  1.0000 0.0751067191
C   C34       1.0  0.67270  0.84620  0.82680  1.0000 0.0739473641
C   C35       1.0  0.17830  0.15760  0.27300  1.0000 0.0601971145
C   C36       1.0  0.82170  0.84240  0.72700  1.0000 0.0601971145
C   C37       1.0  0.07580  0.17440  0.18220  1.0000 -0.2088620499
C   C38       1.0  0.92420  0.82560  0.81780  1.0000 -0.2088620499
C   C39       1.0  0.73950  0.29880  0.44990  1.0000 0.5398933604
C   C40       1.0  0.26050  0.70120  0.55010  1.0000 0.5398933604
C   C41       1.0  0.87520  0.40160  0.47470  1.0000 -0.0058086183
C   C42       1.0  0.12480  0.59840  0.52530  1.0000 -0.0058086183
C   C43       1.0  0.88910  0.53190  0.51820  1.0000 -0.1299251471
C   C44       1.0  0.11090  0.46810  0.48180  1.0000 -0.1299251471
C   C45       1.0  0.98790  0.36950  0.45960  1.0000 -0.1299251471
C   C46       1.0  0.01210  0.63050  0.54040  1.0000 -0.1299251471
N   N1        1.0  0.41710  0.24980  0.57450  1.0000 -0.2489062086
N   N2        1.0  0.58290  0.75020  0.42550  1.0000 -0.2489062086
N   N3        1.0  0.30480  0.14840  0.27140  1.0000 -0.2489062086
N   N4        1.0  0.69520  0.85160  0.72860  1.0000 -0.2489062086
O   O1        1.0  0.41920  0.92130  0.24570  1.0000 -0.5279600605
O   O2        1.0  0.58080  0.07870  0.75430  1.0000 -0.5279600605
O   O3        1.0  0.35230  0.90380  0.39000  1.0000 -0.5684572443
O   O4        1.0  0.64770  0.09620  0.61000  1.0000 -0.5684572443
O   O5        1.0  0.24000  0.43300  0.89970  1.0000 -0.1579722375
O   O6        1.0  0.76000  0.56700  0.10030  1.0000 -0.1579722375
O   O7        1.0  0.06820  0.28960  0.94700  1.0000 -0.1677379146
O   O8        1.0  0.93180  0.71040  0.05300  1.0000 -0.1677379146
O   O9        1.0  0.63970  0.33540  0.46470  1.0000 -0.5446568117
O   O10       1.0  0.36030  0.66460  0.53530  1.0000 -0.5446568117
O   O11       1.0  0.72870  0.17940  0.41980  1.0000 -0.518551825
O   O12       1.0  0.27130  0.82060  0.58020  1.0000 -0.518551825
