# DDEC6 charges by PACMAN v1.1 (https://github.com/mtap-research/PACMAN-charge/)
data_2010[LaCo][pcu]3[FSR]1
_chemical_formula_sum              "La1 Co3 H30 C18 S6 N6 O12"
_cell_length_a       12.6591
_cell_length_b       12.6591
_cell_length_c       12.6591
_cell_angle_alpha    48.7747
_cell_angle_beta     48.7747
_cell_angle_gamma    48.7747

_symmetry_space_group_name_H-M    "P 1"
_symmetry_Int_Tables_number       1

loop_
  _symmetry_equiv_pos_as_xyz
  'x, y, z'

loop_
  _atom_site_type_symbol
  _atom_site_label
  _atom_site_symmetry_multiplicity
  _atom_site_fract_x
  _atom_site_fract_y
  _atom_site_fract_z
  _atom_site_occupancy
  _atom_site_charge
La  La1       1.0  0.00000  0.00000  0.00000  1.0000 1.793069381
Co  Co1       1.0  0.58544  0.58544  0.58544  1.0000 0.3361900931
Co  Co2       1.0  0.41456  0.41456  0.41456  1.0000 0.3342519885
Co  Co3       1.0  0.50000  0.50000  0.50000  1.0000 0.1110807543
H   H1        1.0  0.79920  0.51500  0.61500  1.0000 0.2854475563
H   H2        1.0  0.51500  0.61500  0.79920  1.0000 0.2854475563
H   H3        1.0  0.61500  0.79920  0.51500  1.0000 0.2854475563
H   H4        1.0  0.48500  0.20080  0.38500  1.0000 0.2854475563
H   H5        1.0  0.38500  0.48500  0.20080  1.0000 0.2854475563
H   H6        1.0  0.20080  0.38500  0.48500  1.0000 0.2854475563
H   H7        1.0  0.84980  0.55860  0.45180  1.0000 0.2962081269
H   H8        1.0  0.55860  0.45180  0.84980  1.0000 0.2962081269
H   H9        1.0  0.45180  0.84980  0.55860  1.0000 0.2962081269
H   H10       1.0  0.44140  0.15020  0.54820  1.0000 0.2962081269
H   H11       1.0  0.54820  0.44140  0.15020  1.0000 0.2962081269
H   H12       1.0  0.15020  0.54820  0.44140  1.0000 0.2962081269
H   H13       1.0  0.86090  0.34470  0.42720  1.0000 0.1261985139
H   H14       1.0  0.34470  0.42720  0.86090  1.0000 0.1261985139
H   H15       1.0  0.42720  0.86090  0.34470  1.0000 0.1261985139
H   H16       1.0  0.65530  0.13910  0.57280  1.0000 0.1261985139
H   H17       1.0  0.57280  0.65530  0.13910  1.0000 0.1261985139
H   H18       1.0  0.13910  0.57280  0.65530  1.0000 0.1261985139
H   H19       1.0  0.88760  0.18070  0.56750  1.0000 0.1416578328
H   H20       1.0  0.18070  0.56750  0.88760  1.0000 0.1416578328
H   H21       1.0  0.56750  0.88760  0.18070  1.0000 0.1416578328
H   H22       1.0  0.81930  0.11240  0.43250  1.0000 0.1416578328
H   H23       1.0  0.43250  0.81930  0.11240  1.0000 0.1416578328
H   H24       1.0  0.11240  0.43250  0.81930  1.0000 0.1416578328
H   H25       1.0  0.00040  0.32470  0.50090  1.0000 0.1018992102
H   H26       1.0  0.32470  0.50090  0.00040  1.0000 0.1018992102
H   H27       1.0  0.50090  0.00040  0.32470  1.0000 0.1018992102
H   H28       1.0  0.67530  0.99960  0.49910  1.0000 0.1018992102
H   H29       1.0  0.49910  0.67530  0.99960  1.0000 0.1018992102
H   H30       1.0  0.99960  0.49910  0.67530  1.0000 0.1018992102
C   C1        1.0  0.83693  0.29263  0.53813  1.0000 -0.2126990075
C   C2        1.0  0.29263  0.53813  0.83693  1.0000 -0.2126990075
C   C3        1.0  0.53813  0.83693  0.29263  1.0000 -0.2126990075
C   C4        1.0  0.70737  0.16307  0.46187  1.0000 -0.2126990075
C   C5        1.0  0.46187  0.70737  0.16307  1.0000 -0.2126990075
C   C6        1.0  0.16307  0.46187  0.70737  1.0000 -0.2126990075
C   C7        1.0  0.89191  0.33761  0.57491  1.0000 0.0216402276
C   C8        1.0  0.33761  0.57491  0.89191  1.0000 0.0216402276
C   C9        1.0  0.57491  0.89191  0.33761  1.0000 0.0216402276
C   C10       1.0  0.66239  0.10809  0.42509  1.0000 0.0216402276
C   C11       1.0  0.42509  0.66239  0.10809  1.0000 0.0216402276
C   C12       1.0  0.10809  0.42509  0.66239  1.0000 0.0216402276
C   C13       1.0  0.89052  0.23412  0.73562  1.0000 0.5368786638
C   C14       1.0  0.23412  0.73562  0.89052  1.0000 0.5368786638
C   C15       1.0  0.73562  0.89052  0.23412  1.0000 0.5368786638
C   C16       1.0  0.76588  0.10948  0.26438  1.0000 0.5368786638
C   C17       1.0  0.26438  0.76588  0.10948  1.0000 0.5368786638
C   C18       1.0  0.10948  0.26438  0.76588  1.0000 0.5368786638
S   S1        1.0  0.63053  0.35152  0.64766  1.0000 -0.133424815
S   S2        1.0  0.35152  0.64766  0.63053  1.0000 -0.133424815
S   S3        1.0  0.64766  0.63053  0.35152  1.0000 -0.1385162177
S   S4        1.0  0.64848  0.36947  0.35234  1.0000 -0.1385162177
S   S5        1.0  0.35234  0.64848  0.36947  1.0000 -0.1385162177
S   S6        1.0  0.36947  0.35234  0.64848  1.0000 -0.1385162177
N   N1        1.0  0.80079  0.50189  0.55059  1.0000 -0.4609163219
N   N2        1.0  0.50189  0.55059  0.80079  1.0000 -0.4609163219
N   N3        1.0  0.55059  0.80079  0.50189  1.0000 -0.4609163219
N   N4        1.0  0.49811  0.19921  0.44941  1.0000 -0.4609163219
N   N5        1.0  0.44941  0.49811  0.19921  1.0000 -0.4609163219
N   N6        1.0  0.19921  0.44941  0.49811  1.0000 -0.4609163219
O   O1        1.0  0.96607  0.09185  0.76667  1.0000 -0.5717120185
O   O2        1.0  0.09185  0.76667  0.96607  1.0000 -0.5717120185
O   O3        1.0  0.76667  0.96607  0.09185  1.0000 -0.5717120185
O   O4        1.0  0.90815  0.03393  0.23333  1.0000 -0.5717120185
O   O5        1.0  0.23333  0.90815  0.03393  1.0000 -0.5717120185
O   O6        1.0  0.03393  0.23333  0.90815  1.0000 -0.5717120185
O   O7        1.0  0.82482  0.29060  0.82566  1.0000 -0.5568824028
O   O8        1.0  0.29060  0.82566  0.82482  1.0000 -0.5568824028
O   O9        1.0  0.82566  0.82482  0.29060  1.0000 -0.5568824028
O   O10       1.0  0.70940  0.17518  0.17434  1.0000 -0.5568824028
O   O11       1.0  0.17434  0.70940  0.17518  1.0000 -0.5568824028
O   O12       1.0  0.17518  0.17434  0.70940  1.0000 -0.5568824028
