# DDEC6 charges by PACMAN v1.1 (https://github.com/mtap-research/PACMAN-charge/)
data_2010[Cu][nan]3[FSR]8
_chemical_formula_sum              "Cu10 H36 C52 I10 N8"
_cell_length_a       10.1652
_cell_length_b       14.6342
_cell_length_c       15.4057
_cell_angle_alpha    109.139
_cell_angle_beta     108.57
_cell_angle_gamma    104.338

_symmetry_space_group_name_H-M    "P 1"
_symmetry_Int_Tables_number       1

loop_
  _symmetry_equiv_pos_as_xyz
  'x, y, z'

loop_
  _atom_site_type_symbol
  _atom_site_label
  _atom_site_symmetry_multiplicity
  _atom_site_fract_x
  _atom_site_fract_y
  _atom_site_fract_z
  _atom_site_occupancy
  _atom_site_charge
Cu  Cu1       1.0  0.40621  0.04178  0.46631  1.0000 0.1646897748
Cu  Cu2       1.0  0.59379  0.95822  0.53369  1.0000 0.1646897748
Cu  Cu3       1.0  0.19635  0.87127  0.25476  1.0000 0.137879603
Cu  Cu4       1.0  0.80365  0.12873  0.74524  1.0000 0.137879603
Cu  Cu5       1.0  0.95384  0.94461  0.21815  1.0000 0.1474555984
Cu  Cu6       1.0  0.04616  0.05539  0.78185  1.0000 0.1474555984
Cu  Cu7       1.0  0.91776  0.75651  0.24570  1.0000 0.1474555984
Cu  Cu8       1.0  0.08224  0.24349  0.75430  1.0000 0.1474555984
Cu  Cu9       1.0  0.93336  0.77095  0.08543  1.0000 0.1306820892
Cu  Cu10      1.0  0.06664  0.22905  0.91457  1.0000 0.1306820892
H   H1        1.0  0.43900  0.14030  0.32660  1.0000 0.102511913
H   H2        1.0  0.56100  0.85970  0.67340  1.0000 0.102511913
H   H3        1.0  0.62670  0.26520  0.32930  1.0000 0.137879603
H   H4        1.0  0.37330  0.73480  0.67070  1.0000 0.137879603
H   H5        1.0  0.82140  0.38610  0.63420  1.0000 0.1306820892
H   H6        1.0  0.17860  0.61390  0.36580  1.0000 0.1306820892
H   H7        1.0  0.62650  0.25780  0.62340  1.0000 0.102511913
H   H8        1.0  0.37350  0.74220  0.37660  1.0000 0.102511913
H   H9        1.0  0.87330  0.54020  0.59790  1.0000 0.1095802972
H   H10       1.0  0.12670  0.45980  0.40210  1.0000 0.1095802972
H   H11       1.0  0.90200  0.22640  0.46950  1.0000 0.1306820892
H   H12       1.0  0.09800  0.77360  0.53050  1.0000 0.1306820892
H   H13       1.0  0.89620  0.06240  0.38450  1.0000 0.102511913
H   H14       1.0  0.10380  0.93760  0.61550  1.0000 0.102511913
H   H15       1.0  0.95170  0.13290  0.17360  1.0000 0.1095802972
H   H16       1.0  0.04830  0.86710  0.82640  1.0000 0.1095802972
H   H17       1.0  0.95900  0.29660  0.25200  1.0000 0.137879603
H   H18       1.0  0.04100  0.70340  0.74800  1.0000 0.137879603
H   H19       1.0  0.17500  0.17680  0.08410  1.0000 0.1095802972
H   H20       1.0  0.82500  0.82320  0.91590  1.0000 0.1095802972
H   H21       1.0  0.31770  0.25130  0.25530  1.0000 0.1306820892
H   H22       1.0  0.68230  0.74870  0.74470  1.0000 0.1306820892
H   H23       1.0  0.34590  0.53130  0.26110  1.0000 0.1306820892
H   H24       1.0  0.65410  0.46870  0.73890  1.0000 0.1306820892
H   H25       1.0  0.19750  0.44510  0.08790  1.0000 0.1095802972
H   H26       1.0  0.80250  0.55490  0.91210  1.0000 0.1095802972
H   H27       1.0  0.29200  0.34440  0.40990  1.0000 0.1095802972
H   H28       1.0  0.70800  0.65560  0.59010  1.0000 0.1095802972
H   H29       1.0  0.66770  0.74270  0.47120  1.0000 0.1306820892
H   H30       1.0  0.33230  0.25730  0.52880  1.0000 0.1306820892
H   H31       1.0  0.79950  0.81240  0.39670  1.0000 0.1095802972
H   H32       1.0  0.20050  0.18760  0.60330  1.0000 0.1095802972
H   H33       1.0  0.79730  0.54370  0.24440  1.0000 0.1095802972
H   H34       1.0  0.20270  0.45630  0.75560  1.0000 0.1095802972
H   H35       1.0  0.65660  0.46350  0.30650  1.0000 0.1306820892
H   H36       1.0  0.34340  0.53650  0.69350  1.0000 0.1306820892
C   C1        1.0  0.51830  0.18980  0.38940  1.0000 0.0714678905
C   C2        1.0  0.48170  0.81020  0.61060  1.0000 0.0714678905
C   C3        1.0  0.63000  0.26480  0.39020  1.0000 -0.1999486506
C   C4        1.0  0.37000  0.73520  0.60980  1.0000 -0.1999486506
C   C5        1.0  0.75040  0.34140  0.48430  1.0000 0.1095802972
C   C6        1.0  0.24960  0.65860  0.51570  1.0000 0.1095802972
C   C7        1.0  0.74500  0.33630  0.57030  1.0000 -0.1909961187
C   C8        1.0  0.25500  0.66370  0.42970  1.0000 -0.1909961187
C   C9        1.0  0.62790  0.25830  0.56350  1.0000 0.0714678905
C   C10       1.0  0.37210  0.74170  0.43650  1.0000 0.0714678905
C   C11       1.0  0.88060  0.42000  0.49110  1.0000 0.0220962729
C   C12       1.0  0.11940  0.58000  0.50890  1.0000 0.0220962729
C   C13       1.0  0.92330  0.52420  0.55760  1.0000 -0.1909961187
C   C14       1.0  0.07670  0.47580  0.44240  1.0000 -0.1909961187
C   C15       1.0  0.96000  0.39470  0.43500  1.0000 0.0271824323
C   C16       1.0  0.04000  0.60530  0.56500  1.0000 0.0220962729
C   C17       1.0  0.93700  0.28340  0.37300  1.0000 0.1095802972
C   C18       1.0  0.06300  0.71660  0.62700  1.0000 0.1095802972
C   C19       1.0  0.91480  0.20990  0.40990  1.0000 -0.1807505236
C   C20       1.0  0.08520  0.79010  0.59010  1.0000 -0.1807505236
C   C21       1.0  0.91150  0.11110  0.35850  1.0000 0.0862657383
C   C22       1.0  0.08850  0.88890  0.64150  1.0000 0.0862657383
C   C23       1.0  0.94410  0.15250  0.23510  1.0000 0.0753384336
C   C24       1.0  0.05590  0.84750  0.76490  1.0000 0.0753384336
C   C25       1.0  0.94840  0.25110  0.28190  1.0000 -0.2055460781
C   C26       1.0  0.05160  0.74890  0.71810  1.0000 -0.2055460781
C   C27       1.0  0.20940  0.24940  0.12040  1.0000 0.0714678905
C   C28       1.0  0.79060  0.75060  0.87960  1.0000 0.0714678905
C   C29       1.0  0.29490  0.29320  0.22340  1.0000 -0.2055460781
C   C30       1.0  0.70510  0.70680  0.77660  1.0000 -0.2055460781
C   C31       1.0  0.34690  0.40080  0.27920  1.0000 0.1095802972
C   C32       1.0  0.65310  0.59920  0.72080  1.0000 0.1095802972
C   C33       1.0  0.31120  0.45850  0.22680  1.0000 -0.1999486506
C   C34       1.0  0.68880  0.54150  0.77320  1.0000 -0.1999486506
C   C35       1.0  0.22280  0.40580  0.12240  1.0000 0.0753384336
C   C36       1.0  0.77720  0.59420  0.87760  1.0000 0.0753384336
C   C37       1.0  0.43430  0.45240  0.39390  1.0000 0.0220962729
C   C38       1.0  0.56570  0.54760  0.60610  1.0000 0.0220962729
C   C39       1.0  0.37570  0.40810  0.44660  1.0000 -0.1909961187
C   C40       1.0  0.62430  0.59190  0.55340  1.0000 -0.1909961187
C   C41       1.0  0.56340  0.54510  0.44790  1.0000 0.0271824323
C   C42       1.0  0.43660  0.45490  0.55210  1.0000 0.0271824323
C   C43       1.0  0.64450  0.59300  0.39700  1.0000 0.1095802972
C   C44       1.0  0.35550  0.40700  0.60300  1.0000 0.1095802972
C   C45       1.0  0.69060  0.69950  0.42370  1.0000 -0.1909961187
C   C46       1.0  0.30940  0.30050  0.57630  1.0000 -0.1909961187
C   C47       1.0  0.77110  0.74090  0.37900  1.0000 0.0632912024
C   C48       1.0  0.22890  0.25910  0.62100  1.0000 0.0632912024
C   C49       1.0  0.76870  0.58450  0.28950  1.0000 0.0714678905
C   C50       1.0  0.23130  0.41550  0.71050  1.0000 0.0714678905
C   C51       1.0  0.68560  0.53550  0.32750  1.0000 -0.1999486506
C   C52       1.0  0.31440  0.46450  0.67250  1.0000 -0.1999486506
I   I1        1.0  0.11863  0.94755  0.40899  1.0000 -0.2723464713
I   I2        1.0  0.88137  0.05245  0.59101  1.0000 -0.2723464713
I   I3        1.0  0.49013  0.92305  0.33542  1.0000 -0.255362694
I   I4        1.0  0.50987  0.07695  0.66458  1.0000 -0.255362694
I   I5        1.0  0.13359  0.96123  0.12842  1.0000 -0.2992098675
I   I6        1.0  0.86641  0.03877  0.87158  1.0000 -0.2992098675
I   I7        1.0  0.05461  0.65518  0.15727  1.0000 -0.2807269291
I   I8        1.0  0.94539  0.34482  0.84273  1.0000 -0.2807269291
I   I9        1.0  0.69418  0.78812  0.12593  1.0000 -0.2490532667
I   I10       1.0  0.30582  0.21188  0.87407  1.0000 -0.2490532667
N   N1        1.0  0.51580  0.18300  0.47350  1.0000 -0.1807505236
N   N2        1.0  0.48420  0.81700  0.52650  1.0000 -0.1807505236
N   N3        1.0  0.92960  0.08380  0.27300  1.0000 -0.1648647234
N   N4        1.0  0.07040  0.91620  0.72700  1.0000 -0.1648647234
N   N5        1.0  0.17160  0.30200  0.06830  1.0000 -0.1543873892
N   N6        1.0  0.82840  0.69800  0.93170  1.0000 -0.1543873892
N   N7        1.0  0.81090  0.68460  0.31180  1.0000 -0.1706781433
N   N8        1.0  0.18910  0.31540  0.68820  1.0000 -0.1706781433
