# DDEC6 charges by PACMAN v1.1 (https://github.com/mtap-research/PACMAN-charge/)
data_2010[Eu][rtl]3[FSR]1
_chemical_formula_sum              "Eu4 P4 H60 C28 N4 O28"
_cell_length_a       5.5313
_cell_length_b       13.396
_cell_length_c       20.934
_cell_angle_alpha    90
_cell_angle_beta     96.177
_cell_angle_gamma    90

_symmetry_space_group_name_H-M    "P 1"
_symmetry_Int_Tables_number       1

loop_
  _symmetry_equiv_pos_as_xyz
  'x, y, z'

loop_
  _atom_site_type_symbol
  _atom_site_label
  _atom_site_symmetry_multiplicity
  _atom_site_fract_x
  _atom_site_fract_y
  _atom_site_fract_z
  _atom_site_occupancy
  _atom_site_charge
Eu  Eu1       1.0  0.62677  0.13215  0.97237  1.0000 2.1039814763
Eu  Eu2       1.0  0.37323  0.63215  0.52763  1.0000 2.1039814763
Eu  Eu3       1.0  0.37323  0.86785  0.02763  1.0000 2.1039814763
Eu  Eu4       1.0  0.62677  0.36785  0.47237  1.0000 2.1039814763
P   P1        1.0  0.91310  0.02230  0.08659  1.0000 1.3508151583
P   P2        1.0  0.08690  0.52230  0.41341  1.0000 1.3508151583
P   P3        1.0  0.08690  0.97770  0.91341  1.0000 1.3508151583
P   P4        1.0  0.91310  0.47770  0.58659  1.0000 1.3508151583
H   H1        1.0  0.31290  0.22470  0.05250  1.0000 0.3821832947
H   H2        1.0  0.68710  0.72470  0.44750  1.0000 0.3821832947
H   H3        1.0  0.68710  0.77530  0.94750  1.0000 0.3821832947
H   H4        1.0  0.31290  0.27530  0.55250  1.0000 0.3821832947
H   H5        1.0  0.53140  0.21440  0.09130  1.0000 0.3336848282
H   H6        1.0  0.46860  0.71440  0.40870  1.0000 0.3336848282
H   H7        1.0  0.46860  0.78560  0.90870  1.0000 0.3336848282
H   H8        1.0  0.53140  0.28560  0.59130  1.0000 0.3336848282
H   H9        1.0  0.78790  0.32140  0.93600  1.0000 0.3227964155
H   H10       1.0  0.21210  0.82140  0.56400  1.0000 0.3227964155
H   H11       1.0  0.21210  0.67860  0.06400  1.0000 0.3227964155
H   H12       1.0  0.78790  0.17860  0.43600  1.0000 0.3227964155
H   H13       1.0  0.99680  0.27200  0.95960  1.0000 0.3532202654
H   H14       1.0  0.00320  0.77200  0.54040  1.0000 0.3532202654
H   H15       1.0  0.00320  0.72800  0.04040  1.0000 0.3532202654
H   H16       1.0  0.99680  0.22800  0.45960  1.0000 0.3532202654
H   H17       1.0  0.77180  0.97150  0.18160  1.0000 0.1561404727
H   H18       1.0  0.22820  0.47150  0.31840  1.0000 0.1561404727
H   H19       1.0  0.22820  0.02850  0.81840  1.0000 0.1561404727
H   H20       1.0  0.77180  0.52850  0.68160  1.0000 0.1561404727
H   H21       1.0  0.67410  0.07840  0.16350  1.0000 0.1362799816
H   H22       1.0  0.32590  0.57840  0.33650  1.0000 0.1362799816
H   H23       1.0  0.32590  0.92160  0.83650  1.0000 0.1362799816
H   H24       1.0  0.67410  0.42160  0.66350  1.0000 0.1362799816
H   H25       1.0  0.76210  0.09870  0.28160  1.0000 0.0987650491
H   H26       1.0  0.23790  0.59870  0.21840  1.0000 0.0987650491
H   H27       1.0  0.23790  0.90130  0.71840  1.0000 0.0987650491
H   H28       1.0  0.76210  0.40130  0.78160  1.0000 0.0987650491
H   H29       1.0  0.89610  0.99530  0.28780  1.0000 0.1101391893
H   H30       1.0  0.10390  0.49530  0.21220  1.0000 0.1101391893
H   H31       1.0  0.10390  0.00470  0.71220  1.0000 0.1101391893
H   H32       1.0  0.89610  0.50470  0.78780  1.0000 0.1101391893
H   H33       1.0  0.03700  0.09750  0.37220  1.0000 0.1101391893
H   H34       1.0  0.96300  0.59750  0.12780  1.0000 0.1101391893
H   H35       1.0  0.96300  0.90250  0.62780  1.0000 0.1101391893
H   H36       1.0  0.03700  0.40250  0.87220  1.0000 0.1101391893
H   H37       1.0  0.24850  0.07160  0.33080  1.0000 0.1185983506
H   H38       1.0  0.75150  0.57160  0.16920  1.0000 0.1185983506
H   H39       1.0  0.75150  0.92840  0.66920  1.0000 0.1185983506
H   H40       1.0  0.24850  0.42840  0.83080  1.0000 0.1185983506
H   H41       1.0  0.98770  0.25240  0.32440  1.0000 0.1185983506
H   H42       1.0  0.01230  0.75240  0.17560  1.0000 0.1185983506
H   H43       1.0  0.01230  0.74760  0.67560  1.0000 0.1185983506
H   H44       1.0  0.98770  0.24760  0.82440  1.0000 0.1185983506
H   H45       1.0  0.36930  0.20510  0.25020  1.0000 0.1101391893
H   H46       1.0  0.63070  0.70510  0.24980  1.0000 0.1101391893
H   H47       1.0  0.63070  0.79490  0.74980  1.0000 0.1101391893
H   H48       1.0  0.36930  0.29490  0.75020  1.0000 0.1101391893
H   H49       1.0  0.22160  0.30540  0.24570  1.0000 0.1101391893
H   H50       1.0  0.77840  0.80540  0.25430  1.0000 0.1101391893
H   H51       1.0  0.77840  0.69460  0.75430  1.0000 0.1101391893
H   H52       1.0  0.22160  0.19460  0.74570  1.0000 0.1101391893
H   H53       1.0  0.07310  0.19820  0.16180  1.0000 0.1185983506
H   H54       1.0  0.92690  0.69820  0.33820  1.0000 0.1185983506
H   H55       1.0  0.92690  0.80180  0.83820  1.0000 0.1185983506
H   H56       1.0  0.07310  0.30180  0.66180  1.0000 0.1185983506
H   H57       1.0  0.86830  0.22020  0.20630  1.0000 0.0944177247
H   H58       1.0  0.13170  0.72020  0.29370  1.0000 0.0944177247
H   H59       1.0  0.13170  0.77980  0.79370  1.0000 0.0944177247
H   H60       1.0  0.86830  0.27980  0.70630  1.0000 0.0944177247
C   C1        1.0  0.81800  0.03660  0.16670  1.0000 -0.4351148792
C   C2        1.0  0.18200  0.53660  0.33333  1.0000 -0.4351148792
C   C3        1.0  0.18200  0.96340  0.83330  1.0000 -0.4351148792
C   C4        1.0  0.81800  0.46340  0.66667  1.0000 -0.4351148792
C   C5        1.0  0.91800  0.06600  0.28000  1.0000 -0.1034342516
C   C6        1.0  0.08200  0.56600  0.22000  1.0000 -0.1034342516
C   C7        1.0  0.08200  0.93400  0.72000  1.0000 -0.1034342516
C   C8        1.0  0.91800  0.43400  0.78000  1.0000 -0.1034342516
C   C9        1.0  0.09600  0.10760  0.33070  1.0000 -0.2094080187
C   C10       1.0  0.90400  0.60760  0.16930  1.0000 -0.2094080187
C   C11       1.0  0.90400  0.89240  0.66930  1.0000 -0.2094080187
C   C12       1.0  0.09600  0.39240  0.83070  1.0000 -0.2094080187
C   C13       1.0  0.14300  0.21790  0.32170  1.0000 -0.1067811064
C   C14       1.0  0.85700  0.71790  0.17830  1.0000 -0.1067811064
C   C15       1.0  0.85700  0.78210  0.67830  1.0000 -0.1067811064
C   C16       1.0  0.14300  0.28210  0.82170  1.0000 -0.1067811064
C   C17       1.0  0.21100  0.23440  0.25390  1.0000 -0.2094080187
C   C18       1.0  0.78900  0.73440  0.24610  1.0000 -0.2094080187
C   C19       1.0  0.78900  0.76560  0.74610  1.0000 -0.2094080187
C   C20       1.0  0.21100  0.26560  0.75390  1.0000 -0.2094080187
C   C21       1.0  0.02400  0.18770  0.20440  1.0000 -0.1034342516
C   C22       1.0  0.97600  0.68770  0.29560  1.0000 -0.1034342516
C   C23       1.0  0.97600  0.81230  0.79560  1.0000 -0.1034342516
C   C24       1.0  0.02400  0.31230  0.70440  1.0000 -0.1034342516
C   C25       1.0  0.32600  0.26300  0.37340  1.0000 0.5663713031
C   C26       1.0  0.67400  0.76300  0.12660  1.0000 0.5663713031
C   C27       1.0  0.67400  0.73700  0.62660  1.0000 0.5663713031
C   C28       1.0  0.32600  0.23700  0.87340  1.0000 0.5663713031
N   N1        1.0  0.99800  0.07970  0.21570  1.0000 -0.0341786965
N   N2        1.0  0.00200  0.57970  0.28430  1.0000 -0.0357399359
N   N3        1.0  0.00200  0.92030  0.78430  1.0000 -0.0357399359
N   N4        1.0  0.99800  0.42030  0.71570  1.0000 -0.0341786965
O   O1        1.0  0.68350  0.98230  0.04550  1.0000 -0.977546785
O   O2        1.0  0.31650  0.48230  0.45450  1.0000 -0.977546785
O   O3        1.0  0.31650  0.01770  0.95450  1.0000 -0.977546785
O   O4        1.0  0.68350  0.51770  0.54550  1.0000 -0.977546785
O   O5        1.0  0.96130  0.12200  0.05720  1.0000 -0.8674618788
O   O6        1.0  0.03870  0.62200  0.44280  1.0000 -0.8674618788
O   O7        1.0  0.03870  0.87800  0.94280  1.0000 -0.8674618788
O   O8        1.0  0.96130  0.37800  0.55720  1.0000 -0.8674618788
O   O9        1.0  0.12670  0.95310  0.09000  1.0000 -0.8548788615
O   O10       1.0  0.87330  0.45310  0.41000  1.0000 -0.8548788615
O   O11       1.0  0.87330  0.04690  0.91000  1.0000 -0.8548788615
O   O12       1.0  0.12670  0.54690  0.59000  1.0000 -0.8548788615
O   O13       1.0  0.29650  0.24640  0.43240  1.0000 -0.6624551005
O   O14       1.0  0.70350  0.74640  0.06760  1.0000 -0.6624551005
O   O15       1.0  0.70350  0.75360  0.56760  1.0000 -0.6624551005
O   O16       1.0  0.29650  0.25360  0.93240  1.0000 -0.6624551005
O   O17       1.0  0.49730  0.31650  0.35980  1.0000 -0.6066364236
O   O18       1.0  0.50270  0.81650  0.14020  1.0000 -0.6066364236
O   O19       1.0  0.50270  0.68350  0.64020  1.0000 -0.6066364236
O   O20       1.0  0.49730  0.18350  0.85980  1.0000 -0.6066364236
O   O21       1.0  0.42890  0.18500  0.06450  1.0000 -0.7505605705
O   O22       1.0  0.57110  0.68500  0.43550  1.0000 -0.7505605705
O   O23       1.0  0.57110  0.81500  0.93550  1.0000 -0.7505605705
O   O24       1.0  0.42890  0.31500  0.56450  1.0000 -0.7505605705
O   O25       1.0  0.85310  0.28570  0.96630  1.0000 -0.7729283161
O   O26       1.0  0.14690  0.78570  0.53370  1.0000 -0.7729283161
O   O27       1.0  0.14690  0.71430  0.03370  1.0000 -0.7729283161
O   O28       1.0  0.85310  0.21430  0.46630  1.0000 -0.7729283161
