# DDEC6 charges by PACMAN v1.1 (https://github.com/mtap-research/PACMAN-charge/)
data_2010[Zn][nan]3[FSR]5
_chemical_formula_sum              "Zn6 B4 H68 C80 N32 O18"
_cell_length_a       12.4895
_cell_length_b       12.4895
_cell_length_c       18.254
_cell_angle_alpha    81.2433
_cell_angle_beta     98.7567
_cell_angle_gamma    63.6218

_symmetry_space_group_name_H-M    "P 1"
_symmetry_Int_Tables_number       1

loop_
  _symmetry_equiv_pos_as_xyz
  'x, y, z'

loop_
  _atom_site_type_symbol
  _atom_site_label
  _atom_site_symmetry_multiplicity
  _atom_site_fract_x
  _atom_site_fract_y
  _atom_site_fract_z
  _atom_site_occupancy
  _atom_site_charge
Zn  Zn1       1.0  0.23624  0.23624  0.25000  1.0000 0.6942749729
Zn  Zn2       1.0  0.76376  0.76376  0.75000  1.0000 0.6942749729
Zn  Zn3       1.0  0.33625  0.79777  0.95948  1.0000 0.7868293484
Zn  Zn4       1.0  0.79777  0.33625  0.54052  1.0000 0.7868293484
Zn  Zn5       1.0  0.66375  0.20223  0.04052  1.0000 0.7868293484
Zn  Zn6       1.0  0.20223  0.66375  0.45948  1.0000 0.7868293484
B   B1        1.0  0.03430  0.28850  0.94530  1.0000 0.5079568436
B   B2        1.0  0.28850  0.03430  0.55470  1.0000 0.5079568436
B   B3        1.0  0.96570  0.71150  0.05470  1.0000 0.5079568436
B   B4        1.0  0.71150  0.96570  0.44530  1.0000 0.5079568436
H   H1        1.0  0.97700  0.19500  0.81900  1.0000 0.1394643334
H   H2        1.0  0.19500  0.97700  0.68100  1.0000 0.1394643334
H   H3        1.0  0.02300  0.80500  0.18100  1.0000 0.1394643334
H   H4        1.0  0.80500  0.02300  0.31900  1.0000 0.1394643334
H   H5        1.0  0.10800  0.98000  0.81200  1.0000 0.1202794289
H   H6        1.0  0.98000  0.10800  0.68800  1.0000 0.1202794289
H   H7        1.0  0.89200  0.02000  0.18800  1.0000 0.1202794289
H   H8        1.0  0.02000  0.89200  0.31200  1.0000 0.1202794289
H   H9        1.0  0.23300  0.05300  0.00500  1.0000 0.1202794289
H   H10       1.0  0.05300  0.23300  0.49500  1.0000 0.1202794289
H   H11       1.0  0.76700  0.94700  0.99500  1.0000 0.1202794289
H   H12       1.0  0.94700  0.76700  0.50500  1.0000 0.1202794289
H   H13       1.0  0.71200  0.41600  0.06400  1.0000 0.1394643334
H   H14       1.0  0.41600  0.71200  0.43600  1.0000 0.1394643334
H   H15       1.0  0.28800  0.58400  0.93600  1.0000 0.1394643334
H   H16       1.0  0.58400  0.28800  0.56400  1.0000 0.1394643334
H   H17       1.0  0.88000  0.45000  0.02600  1.0000 0.1202794289
H   H18       1.0  0.45000  0.88000  0.47400  1.0000 0.1202794289
H   H19       1.0  0.12000  0.55000  0.97400  1.0000 0.1202794289
H   H20       1.0  0.55000  0.12000  0.52600  1.0000 0.1202794289
H   H21       1.0  0.87600  0.17600  0.95400  1.0000 0.1202794289
H   H22       1.0  0.17600  0.87600  0.54600  1.0000 0.1202794289
H   H23       1.0  0.12400  0.82400  0.04600  1.0000 0.1202794289
H   H24       1.0  0.82400  0.12400  0.45400  1.0000 0.1202794289
H   H25       1.0  0.08200  0.23200  0.10300  1.0000 0.0982888897
H   H26       1.0  0.23200  0.08200  0.39700  1.0000 0.0982888897
H   H27       1.0  0.91800  0.76800  0.89700  1.0000 0.0982888897
H   H28       1.0  0.76800  0.91800  0.60300  1.0000 0.0982888897
H   H29       1.0  0.37800  0.24400  0.09800  1.0000 0.1394643334
H   H30       1.0  0.24400  0.37800  0.40200  1.0000 0.1394643334
H   H31       1.0  0.62200  0.75600  0.90200  1.0000 0.1394643334
H   H32       1.0  0.75600  0.62200  0.59800  1.0000 0.1394643334
H   H33       1.0  0.25600  0.30200  0.96300  1.0000 0.1293719173
H   H34       1.0  0.30200  0.25600  0.53700  1.0000 0.1293719173
H   H35       1.0  0.74400  0.69800  0.03700  1.0000 0.1293719173
H   H36       1.0  0.69800  0.74400  0.46300  1.0000 0.1293719173
H   H37       1.0  0.11300  0.32900  0.82000  1.0000 0.1394643334
H   H38       1.0  0.32900  0.11300  0.68000  1.0000 0.1394643334
H   H39       1.0  0.88700  0.67100  0.18000  1.0000 0.1394643334
H   H40       1.0  0.67100  0.88700  0.32000  1.0000 0.1394643334
H   H41       1.0  1.00000  0.53600  0.72200  1.0000 0.1293719173
H   H42       1.0  0.53600  0.00000  0.77800  1.0000 0.1293719173
H   H43       1.0  0.00000  0.46400  0.27800  1.0000 0.1293719173
H   H44       1.0  0.46400  0.00000  0.22200  1.0000 0.1293719173
H   H45       1.0  0.84400  0.52800  0.88400  1.0000 0.1090306886
H   H46       1.0  0.52800  0.84400  0.61600  1.0000 0.1090306886
H   H47       1.0  0.15600  0.47200  0.11600  1.0000 0.1090306886
H   H48       1.0  0.47200  0.15600  0.38400  1.0000 0.1090306886
H   H49       1.0  0.41900  0.80700  0.24600  1.0000 0.0906947066
H   H50       1.0  0.80700  0.41900  0.25400  1.0000 0.0906947066
H   H51       1.0  0.58100  0.19300  0.75400  1.0000 0.0906947066
H   H52       1.0  0.19300  0.58100  0.74600  1.0000 0.0906947066
H   H53       1.0  0.67000  0.58000  0.14200  1.0000 0.1293719173
H   H54       1.0  0.58000  0.67000  0.35800  1.0000 0.1293719173
H   H55       1.0  0.33000  0.42000  0.85800  1.0000 0.1293719173
H   H56       1.0  0.42000  0.33000  0.64200  1.0000 0.1293719173
H   H57       1.0  0.36300  0.72900  0.67600  1.0000 0.1090306886
H   H58       1.0  0.72900  0.36300  0.82400  1.0000 0.1090306886
H   H59       1.0  0.63700  0.27100  0.32400  1.0000 0.1090306886
H   H60       1.0  0.27100  0.63700  0.17600  1.0000 0.1090306886
H   H61       1.0  0.59700  0.50300  0.88100  1.0000 0.1090306886
H   H62       1.0  0.50300  0.59700  0.61900  1.0000 0.1090306886
H   H63       1.0  0.40300  0.49700  0.11900  1.0000 0.1090306886
H   H64       1.0  0.49700  0.40300  0.38100  1.0000 0.1090306886
H   H65       1.0  0.15000  0.07800  0.23300  1.0000 0.3050275852
H   H66       1.0  0.07800  0.15000  0.26700  1.0000 0.3050275852
H   H67       1.0  0.85000  0.92200  0.76700  1.0000 0.3050275852
H   H68       1.0  0.92200  0.85000  0.73300  1.0000 0.3046765437
C   C1        1.0  0.04100  0.14180  0.85410  1.0000 -0.0707273796
C   C2        1.0  0.14180  0.04100  0.64590  1.0000 -0.0707273796
C   C3        1.0  0.95900  0.85820  0.14590  1.0000 -0.0707273796
C   C4        1.0  0.85820  0.95900  0.35410  1.0000 -0.0707273796
C   C5        1.0  0.11500  0.02540  0.85420  1.0000 -0.0431547153
C   C6        1.0  0.02540  0.11500  0.64580  1.0000 -0.0431547153
C   C7        1.0  0.88500  0.97460  0.14580  1.0000 -0.0431547153
C   C8        1.0  0.97460  0.88500  0.35420  1.0000 -0.0431547153
C   C9        1.0  0.18870  0.06190  0.95580  1.0000 0.1394643334
C   C10       1.0  0.06190  0.18870  0.54420  1.0000 0.1394643334
C   C11       1.0  0.81130  0.93810  0.04420  1.0000 0.1394643334
C   C12       1.0  0.93810  0.81130  0.45580  1.0000 0.1394643334
C   C13       1.0  0.77050  0.37950  0.03600  1.0000 -0.0431547153
C   C14       1.0  0.37950  0.77050  0.46400  1.0000 -0.0431547153
C   C15       1.0  0.22950  0.62050  0.96400  1.0000 -0.0431547153
C   C16       1.0  0.62050  0.22950  0.53600  1.0000 -0.0431547153
C   C17       1.0  0.86300  0.39400  0.01580  1.0000 -0.0835258479
C   C18       1.0  0.39400  0.86300  0.48420  1.0000 -0.0835258479
C   C19       1.0  0.13700  0.60600  0.98420  1.0000 -0.0835258479
C   C20       1.0  0.60600  0.13700  0.51580  1.0000 -0.0835258479
C   C21       1.0  0.86030  0.23970  0.97860  1.0000 0.1394643334
C   C22       1.0  0.23970  0.86030  0.52140  1.0000 0.1394643334
C   C23       1.0  0.13970  0.76030  0.02140  1.0000 0.1394643334
C   C24       1.0  0.76030  0.13970  0.47860  1.0000 0.1394643334
C   C25       1.0  0.14380  0.23900  0.08690  1.0000 0.1202794289
C   C26       1.0  0.23900  0.14380  0.41310  1.0000 0.1202794289
C   C27       1.0  0.85620  0.76100  0.91310  1.0000 0.1202794289
C   C28       1.0  0.76100  0.85620  0.58690  1.0000 0.1202794289
C   C29       1.0  0.30610  0.25170  0.08110  1.0000 -0.0431547153
C   C30       1.0  0.25170  0.30610  0.41890  1.0000 -0.0431547153
C   C31       1.0  0.69390  0.74830  0.91890  1.0000 -0.0431547153
C   C32       1.0  0.74830  0.69390  0.58110  1.0000 -0.0431547153
C   C33       1.0  0.23970  0.28290  0.00920  1.0000 -0.0707273796
C   C34       1.0  0.28290  0.23970  0.49080  1.0000 -0.0707273796
C   C35       1.0  0.76030  0.71710  0.99080  1.0000 -0.0707273796
C   C36       1.0  0.71710  0.76030  0.50920  1.0000 -0.0707273796
C   C37       1.0  0.05190  0.40170  0.81720  1.0000 -0.0707273796
C   C38       1.0  0.40170  0.05190  0.68280  1.0000 -0.0707273796
C   C39       1.0  0.94810  0.59830  0.18280  1.0000 -0.0707273796
C   C40       1.0  0.59830  0.94810  0.31720  1.0000 -0.0707273796
C   C41       1.0  0.98490  0.51070  0.76720  1.0000 -0.0431547153
C   C42       1.0  0.51070  0.98490  0.73280  1.0000 -0.0431547153
C   C43       1.0  0.01510  0.48930  0.23280  1.0000 -0.0431547153
C   C44       1.0  0.48930  0.01510  0.26720  1.0000 -0.0431547153
C   C45       1.0  0.89310  0.50690  0.85530  1.0000 0.1394643334
C   C46       1.0  0.50690  0.89310  0.64470  1.0000 0.1394643334
C   C47       1.0  0.10690  0.49310  0.14470  1.0000 0.1394643334
C   C48       1.0  0.49310  0.10690  0.35530  1.0000 0.1394643334
C   C49       1.0  0.44390  0.78290  0.10890  1.0000 0.5541278829
C   C50       1.0  0.78290  0.44390  0.39110  1.0000 0.5541278829
C   C51       1.0  0.55610  0.21710  0.89110  1.0000 0.5541278829
C   C52       1.0  0.21710  0.55610  0.60890  1.0000 0.5541278829
C   C53       1.0  0.51810  0.72790  0.25210  1.0000 -0.0884762893
C   C54       1.0  0.72790  0.51810  0.24790  1.0000 -0.0884762893
C   C55       1.0  0.48190  0.27210  0.74790  1.0000 -0.0884762893
C   C56       1.0  0.27210  0.48190  0.75210  1.0000 -0.0884762893
C   C57       1.0  0.53940  0.70420  0.18130  1.0000 -0.0204923044
C   C58       1.0  0.70420  0.53940  0.31870  1.0000 -0.0204923044
C   C59       1.0  0.46060  0.29580  0.81870  1.0000 -0.0204923044
C   C60       1.0  0.29580  0.46060  0.68130  1.0000 -0.0204923044
C   C61       1.0  0.64500  0.60160  0.18150  1.0000 -0.1158824454
C   C62       1.0  0.60160  0.64500  0.31850  1.0000 -0.1158824454
C   C63       1.0  0.35500  0.39840  0.81850  1.0000 -0.1158824454
C   C64       1.0  0.39840  0.35500  0.68150  1.0000 -0.1158824454
C   C65       1.0  0.38870  0.71230  0.82850  1.0000 0.559328269
C   C66       1.0  0.71230  0.38870  0.67150  1.0000 0.559328269
C   C67       1.0  0.61130  0.28770  0.17150  1.0000 0.559328269
C   C68       1.0  0.28770  0.61130  0.32850  1.0000 0.559328269
C   C69       1.0  0.47140  0.62880  0.78690  1.0000 -0.0130116087
C   C70       1.0  0.62880  0.47140  0.71310  1.0000 -0.0130116087
C   C71       1.0  0.52860  0.37120  0.21310  1.0000 -0.0130116087
C   C72       1.0  0.37120  0.52860  0.28690  1.0000 -0.0130116087
C   C73       1.0  0.44340  0.65380  0.70890  1.0000 -0.1091851073
C   C74       1.0  0.65380  0.44340  0.79110  1.0000 -0.1091851073
C   C75       1.0  0.55660  0.34620  0.29110  1.0000 -0.1091851073
C   C76       1.0  0.34620  0.55660  0.20890  1.0000 -0.1091851073
C   C77       1.0  0.57820  0.52380  0.82840  1.0000 -0.1091851073
C   C78       1.0  0.52380  0.57820  0.67160  1.0000 -0.1091851073
C   C79       1.0  0.42180  0.47620  0.17160  1.0000 -0.1091851073
C   C80       1.0  0.47620  0.42180  0.32840  1.0000 -0.1091851073
N   N1        1.0  0.21130  0.97430  0.91900  1.0000 -0.2884290966
N   N2        1.0  0.97430  0.21130  0.58100  1.0000 -0.2884290966
N   N3        1.0  0.78870  0.02570  0.08100  1.0000 -0.2884290966
N   N4        1.0  0.02570  0.78870  0.41900  1.0000 -0.2884290966
N   N5        1.0  0.08640  0.16700  0.91900  1.0000 -0.2104979048
N   N6        1.0  0.16700  0.08640  0.58100  1.0000 -0.2104979048
N   N7        1.0  0.91360  0.83300  0.08100  1.0000 -0.2104979048
N   N8        1.0  0.83300  0.91360  0.41900  1.0000 -0.2104979048
N   N9        1.0  0.76980  0.27920  0.01320  1.0000 -0.2793750058
N   N10       1.0  0.27920  0.76980  0.48680  1.0000 -0.2793750058
N   N11       1.0  0.23020  0.72080  0.98680  1.0000 -0.2793750058
N   N12       1.0  0.72080  0.23020  0.51320  1.0000 -0.2793750058
N   N13       1.0  0.91980  0.30680  0.97750  1.0000 -0.2241990084
N   N14       1.0  0.30680  0.91980  0.52250  1.0000 -0.2241990084
N   N15       1.0  0.08020  0.69320  0.02250  1.0000 -0.2241990084
N   N16       1.0  0.69320  0.08020  0.47750  1.0000 -0.2241990084
N   N17       1.0  0.24450  0.22270  0.13180  1.0000 -0.3099604065
N   N18       1.0  0.22270  0.24450  0.36820  1.0000 -0.3099604065
N   N19       1.0  0.75550  0.77730  0.86820  1.0000 -0.3099604065
N   N20       1.0  0.77730  0.75550  0.63180  1.0000 -0.3099604065
N   N21       1.0  0.13260  0.27680  0.01130  1.0000 -0.2447076629
N   N22       1.0  0.27680  0.13260  0.48870  1.0000 -0.2447076629
N   N23       1.0  0.86740  0.72320  0.98870  1.0000 -0.2447076629
N   N24       1.0  0.72320  0.86740  0.51130  1.0000 -0.2447076629
N   N25       1.0  0.99360  0.39580  0.87550  1.0000 -0.2274598072
N   N26       1.0  0.39580  0.99360  0.62450  1.0000 -0.2274598072
N   N27       1.0  0.00640  0.60420  0.12450  1.0000 -0.2274598072
N   N28       1.0  0.60420  0.00640  0.37550  1.0000 -0.2274598072
N   N29       1.0  0.88200  0.57900  0.79160  1.0000 -0.2884290966
N   N30       1.0  0.57900  0.88200  0.70840  1.0000 -0.2884290966
N   N31       1.0  0.11800  0.42100  0.20840  1.0000 -0.2884290966
N   N32       1.0  0.42100  0.11800  0.29160  1.0000 -0.2884290966
O   O1        1.0  0.34340  0.86700  0.10880  1.0000 -0.5555083046
O   O2        1.0  0.86700  0.34340  0.39120  1.0000 -0.5555083046
O   O3        1.0  0.65660  0.13300  0.89120  1.0000 -0.5555083046
O   O4        1.0  0.13300  0.65660  0.60880  1.0000 -0.5555083046
O   O5        1.0  0.47110  0.75290  0.04730  1.0000 -0.5485182891
O   O6        1.0  0.75290  0.47110  0.45270  1.0000 -0.5485182891
O   O7        1.0  0.52890  0.24710  0.95270  1.0000 -0.5485182891
O   O8        1.0  0.24710  0.52890  0.54730  1.0000 -0.5485182891
O   O9        1.0  0.27830  0.78690  0.79420  1.0000 -0.5777470956
O   O10       1.0  0.78690  0.27830  0.70580  1.0000 -0.5777470956
O   O11       1.0  0.72170  0.21310  0.20580  1.0000 -0.5777470956
O   O12       1.0  0.21310  0.72170  0.29420  1.0000 -0.5777470956
O   O13       1.0  0.43430  0.70270  0.89730  1.0000 -0.5419012795
O   O14       1.0  0.70270  0.43430  0.60270  1.0000 -0.5419012795
O   O15       1.0  0.56570  0.29730  0.10270  1.0000 -0.5419012795
O   O16       1.0  0.29730  0.56570  0.39730  1.0000 -0.5419012795
O   O17       1.0  0.14110  0.14110  0.25000  1.0000 -0.6417317579
O   O18       1.0  0.85890  0.85890  0.75000  1.0000 -0.6417317579
