# DDEC6 charges by PACMAN v1.1 (https://github.com/mtap-research/PACMAN-charge/)
data_2010[Cd][umc]3[FSR]1
_chemical_formula_sum              "Cd4 H4 C8 S4 N12"
_cell_length_a       7.31921
_cell_length_b       7.31921
_cell_length_c       11.273
_cell_angle_alpha    87.9298
_cell_angle_beta     92.0702
_cell_angle_gamma    91.5278

_symmetry_space_group_name_H-M    "P 1"
_symmetry_Int_Tables_number       1

loop_
  _symmetry_equiv_pos_as_xyz
  'x, y, z'

loop_
  _atom_site_type_symbol
  _atom_site_label
  _atom_site_symmetry_multiplicity
  _atom_site_fract_x
  _atom_site_fract_y
  _atom_site_fract_z
  _atom_site_occupancy
  _atom_site_charge
Cd  Cd1       1.0  0.22969  0.49789  0.39340  1.0000 0.6789045027
Cd  Cd2       1.0  0.49789  0.22969  0.10660  1.0000 0.6789045027
Cd  Cd3       1.0  0.77031  0.50211  0.60660  1.0000 0.6789045027
Cd  Cd4       1.0  0.50211  0.77031  0.89340  1.0000 0.6789045027
H   H1        1.0  0.92900  0.37420  0.17420  1.0000 0.1092741704
H   H2        1.0  0.37420  0.92900  0.32580  1.0000 0.1092741704
H   H3        1.0  0.07100  0.62580  0.82580  1.0000 0.1092741704
H   H4        1.0  0.62580  0.07100  0.67420  1.0000 0.1092741704
C   C1        1.0  0.65490  0.32250  0.36760  1.0000 0.3174714139
C   C2        1.0  0.32250  0.65490  0.13240  1.0000 0.3174714139
C   C3        1.0  0.34510  0.67750  0.63240  1.0000 0.3174714139
C   C4        1.0  0.67750  0.34510  0.86760  1.0000 0.3174714139
C   C5        1.0  0.86580  0.36760  0.24440  1.0000 0.1469525835
C   C6        1.0  0.36760  0.86580  0.25560  1.0000 0.1469525835
C   C7        1.0  0.13420  0.63240  0.75560  1.0000 0.1469525835
C   C8        1.0  0.63240  0.13420  0.74440  1.0000 0.1469525835
S   S1        1.0  0.45460  0.25138  0.43584  1.0000 -0.4448328922
S   S2        1.0  0.25138  0.45460  0.06416  1.0000 -0.4455908546
S   S3        1.0  0.54540  0.74862  0.56416  1.0000 -0.4448328922
S   S4        1.0  0.74862  0.54540  0.93584  1.0000 -0.4448328922
N   N1        1.0  0.80250  0.38430  0.42880  1.0000 -0.2472004453
N   N2        1.0  0.38430  0.80250  0.07120  1.0000 -0.2472004453
N   N3        1.0  0.19750  0.61570  0.57120  1.0000 -0.2472004453
N   N4        1.0  0.61570  0.19750  0.92880  1.0000 -0.2472004453
N   N5        1.0  0.93930  0.41250  0.34810  1.0000 -0.1932475279
N   N6        1.0  0.41250  0.93930  0.15190  1.0000 -0.1932475279
N   N7        1.0  0.06070  0.58750  0.65190  1.0000 -0.1932475279
N   N8        1.0  0.58750  0.06070  0.84810  1.0000 -0.1932475279
N   N9        1.0  0.68980  0.31120  0.25070  1.0000 -0.3671323145
N   N10       1.0  0.31120  0.68980  0.24930  1.0000 -0.3671323145
N   N11       1.0  0.31020  0.68880  0.74930  1.0000 -0.3671323145
N   N12       1.0  0.68880  0.31020  0.75070  1.0000 -0.3671323145
