# DDEC6 charges by PACMAN v1.1 (https://github.com/mtap-research/PACMAN-charge/)
data_2010[Ni][nan]3[FSR]1
_chemical_formula_sum              "Ni8 H120 C136 N16 O52"
_cell_length_a       10.4874
_cell_length_b       15.9036
_cell_length_c       26.136
_cell_angle_alpha    90
_cell_angle_beta     90
_cell_angle_gamma    90

_symmetry_space_group_name_H-M    "P 1"
_symmetry_Int_Tables_number       1

loop_
  _symmetry_equiv_pos_as_xyz
  'x, y, z'

loop_
  _atom_site_type_symbol
  _atom_site_label
  _atom_site_symmetry_multiplicity
  _atom_site_fract_x
  _atom_site_fract_y
  _atom_site_fract_z
  _atom_site_occupancy
  _atom_site_charge
Ni  Ni1       1.0  0.66178  0.64378  0.38119  1.0000 0.8948415275
Ni  Ni2       1.0  0.83822  0.35622  0.88119  1.0000 0.8948415275
Ni  Ni3       1.0  0.16178  0.85622  0.61881  1.0000 0.8948415275
Ni  Ni4       1.0  0.33822  0.14378  0.11881  1.0000 0.8948415275
Ni  Ni5       1.0  0.89674  0.78285  0.35130  1.0000 0.920230573
Ni  Ni6       1.0  0.60326  0.21715  0.85130  1.0000 0.920230573
Ni  Ni7       1.0  0.39674  0.71715  0.64870  1.0000 0.920230573
Ni  Ni8       1.0  0.10326  0.28285  0.14870  1.0000 0.920230573
H   H1        1.0  0.41550  0.01700  0.53870  1.0000 0.1213295486
H   H2        1.0  0.08450  0.98300  0.03870  1.0000 0.1213295486
H   H3        1.0  0.91550  0.48300  0.46130  1.0000 0.1213295486
H   H4        1.0  0.58450  0.51700  0.96130  1.0000 0.1213295486
H   H5        1.0  0.56130  0.79110  0.50540  1.0000 0.1213295486
H   H6        1.0  0.93870  0.20890  0.00540  1.0000 0.1213295486
H   H7        1.0  0.06130  0.70890  0.49460  1.0000 0.1213295486
H   H8        1.0  0.43870  0.29110  0.99460  1.0000 0.1213295486
H   H9        1.0  0.64300  0.98980  0.41610  1.0000 0.1300547307
H   H10       1.0  0.85700  0.01020  0.91610  1.0000 0.1300547307
H   H11       1.0  0.14300  0.51020  0.58390  1.0000 0.1300547307
H   H12       1.0  0.35700  0.48980  0.08390  1.0000 0.1300547307
H   H13       1.0  0.05840  0.49420  0.24530  1.0000 0.1120880715
H   H14       1.0  0.44160  0.50580  0.74530  1.0000 0.1120880715
H   H15       1.0  0.55840  0.00580  0.75470  1.0000 0.1120880715
H   H16       1.0  0.94160  0.99420  0.25470  1.0000 0.1120880715
H   H17       1.0  0.42360  0.45110  0.28080  1.0000 0.1213295486
H   H18       1.0  0.07640  0.54890  0.78080  1.0000 0.1213295486
H   H19       1.0  0.92360  0.04890  0.71920  1.0000 0.1213295486
H   H20       1.0  0.57640  0.95110  0.21920  1.0000 0.1213295486
H   H21       1.0  0.25120  0.66500  0.32520  1.0000 0.1300547307
H   H22       1.0  0.24880  0.33500  0.82520  1.0000 0.1300547307
H   H23       1.0  0.75120  0.83500  0.67480  1.0000 0.1300547307
H   H24       1.0  0.74880  0.16500  0.17480  1.0000 0.1300547307
H   H25       1.0  0.47510  0.66520  0.46810  1.0000 0.1120880715
H   H26       1.0  0.02490  0.33480  0.96810  1.0000 0.1120880715
H   H27       1.0  0.97510  0.83480  0.53190  1.0000 0.1120880715
H   H28       1.0  0.52490  0.16520  0.03190  1.0000 0.1120880715
H   H29       1.0  0.36990  0.58470  0.52930  1.0000 0.1300547307
H   H30       1.0  0.13010  0.41530  0.02930  1.0000 0.1300547307
H   H31       1.0  0.86990  0.91530  0.47070  1.0000 0.1300547307
H   H32       1.0  0.63010  0.08470  0.97070  1.0000 0.1300547307
H   H33       1.0  0.40310  0.43860  0.52950  1.0000 0.1300547307
H   H34       1.0  0.09690  0.56140  0.02950  1.0000 0.1300547307
H   H35       1.0  0.90310  0.06140  0.47050  1.0000 0.1300547307
H   H36       1.0  0.59690  0.93860  0.97050  1.0000 0.1300547307
H   H37       1.0  0.66910  0.46980  0.42400  1.0000 0.1213295486
H   H38       1.0  0.83090  0.53020  0.92400  1.0000 0.1213295486
H   H39       1.0  0.16910  0.03020  0.57600  1.0000 0.1213295486
H   H40       1.0  0.33090  0.96980  0.07600  1.0000 0.1213295486
H   H41       1.0  0.65450  0.33700  0.47590  1.0000 0.140248267
H   H42       1.0  0.84550  0.66300  0.97590  1.0000 0.140248267
H   H43       1.0  0.15450  0.16300  0.52410  1.0000 0.140248267
H   H44       1.0  0.34550  0.83700  0.02410  1.0000 0.140248267
H   H45       1.0  0.52490  0.31990  0.50390  1.0000 0.1300547307
H   H46       1.0  0.97510  0.68010  0.00390  1.0000 0.1300547307
H   H47       1.0  0.02490  0.18010  0.49610  1.0000 0.1300547307
H   H48       1.0  0.47510  0.81990  0.99610  1.0000 0.1300547307
H   H49       1.0  0.35690  0.37830  0.41620  1.0000 0.1120880715
H   H50       1.0  0.14310  0.62170  0.91620  1.0000 0.1120880715
H   H51       1.0  0.85690  0.12170  0.58380  1.0000 0.1120880715
H   H52       1.0  0.64310  0.87830  0.08380  1.0000 0.1120880715
H   H53       1.0  0.33340  0.30140  0.45260  1.0000 0.1213295486
H   H54       1.0  0.16660  0.69860  0.95260  1.0000 0.1213295486
H   H55       1.0  0.83340  0.19860  0.54740  1.0000 0.1213295486
H   H56       1.0  0.66667  0.80140  0.04740  1.0000 0.1213295486
H   H57       1.0  0.36710  0.28600  0.34550  1.0000 0.1300547307
H   H58       1.0  0.13290  0.71400  0.84550  1.0000 0.1300547307
H   H59       1.0  0.86710  0.21400  0.65450  1.0000 0.1300547307
H   H60       1.0  0.63290  0.78600  0.15450  1.0000 0.1300547307
H   H61       1.0  0.34190  0.20960  0.38190  1.0000 0.1120880715
H   H62       1.0  0.15810  0.79040  0.88190  1.0000 0.1120880715
H   H63       1.0  0.84190  0.29040  0.61810  1.0000 0.1120880715
H   H64       1.0  0.65810  0.70960  0.11810  1.0000 0.1120880715
H   H65       1.0  0.16450  0.33780  0.36250  1.0000 0.1300547307
H   H66       1.0  0.33550  0.66220  0.86250  1.0000 0.1300547307
H   H67       1.0  0.66450  0.16220  0.63750  1.0000 0.1300547307
H   H68       1.0  0.83550  0.83780  0.13750  1.0000 0.1300547307
H   H69       1.0  0.13920  0.26290  0.40000  1.0000 0.1120880715
H   H70       1.0  0.36080  0.73710  0.90000  1.0000 0.1120880715
H   H71       1.0  0.63920  0.23710  0.60000  1.0000 0.1120880715
H   H72       1.0  0.86080  0.76290  0.10000  1.0000 0.1120880715
H   H73       1.0  0.16540  0.24710  0.29310  1.0000 0.1300547307
H   H74       1.0  0.33460  0.75290  0.79310  1.0000 0.1300547307
H   H75       1.0  0.66540  0.25290  0.70690  1.0000 0.1300547307
H   H76       1.0  0.83460  0.74710  0.20690  1.0000 0.1300547307
H   H77       1.0  0.03690  0.23720  0.32320  1.0000 0.1120880715
H   H78       1.0  0.46310  0.76280  0.82320  1.0000 0.1120880715
H   H79       1.0  0.53690  0.26280  0.67680  1.0000 0.1120880715
H   H80       1.0  0.96310  0.73720  0.17680  1.0000 0.1120880715
H   H81       1.0  0.00560  0.10750  0.37660  1.0000 0.1213295486
H   H82       1.0  0.49440  0.89250  0.87660  1.0000 0.1213295486
H   H83       1.0  0.50560  0.39250  0.62340  1.0000 0.1213295486
H   H84       1.0  0.99440  0.60750  0.12340  1.0000 0.1213295486
H   H85       1.0  0.13130  0.12720  0.40670  1.0000 0.1213295486
H   H86       1.0  0.36870  0.87280  0.90670  1.0000 0.1213295486
H   H87       1.0  0.63130  0.37280  0.59330  1.0000 0.1213295486
H   H88       1.0  0.86870  0.62720  0.09330  1.0000 0.1213295486
H   H89       1.0  0.29800  0.00940  0.41280  1.0000 0.1300547307
H   H90       1.0  0.20200  0.99060  0.91280  1.0000 0.1300547307
H   H91       1.0  0.79800  0.49060  0.58720  1.0000 0.1300547307
H   H92       1.0  0.70200  0.50940  0.08720  1.0000 0.1300547307
H   H93       1.0  0.31870  0.86410  0.42700  1.0000 0.140248267
H   H94       1.0  0.18130  0.13590  0.92700  1.0000 0.140248267
H   H95       1.0  0.81870  0.63590  0.57300  1.0000 0.140248267
H   H96       1.0  0.68130  0.36410  0.07300  1.0000 0.140248267
H   H97       1.0  0.16040  0.77790  0.39620  1.0000 0.1213295486
H   H98       1.0  0.33960  0.22210  0.89620  1.0000 0.1213295486
H   H99       1.0  0.66040  0.72210  0.60380  1.0000 0.1213295486
H   H100      1.0  0.83960  0.27790  0.10380  1.0000 0.1213295486
H   H101      1.0  0.95430  0.96910  0.35370  1.0000 0.1213295486
H   H102      1.0  0.54570  0.03090  0.85370  1.0000 0.1213295486
H   H103      1.0  0.45430  0.53090  0.64630  1.0000 0.1213295486
H   H104      1.0  0.04570  0.46910  0.14630  1.0000 0.1213295486
H   H105      1.0  0.53000  0.25530  0.42600  1.0000 0.2533657383
H   H106      1.0  0.97000  0.74470  0.92600  1.0000 0.2533657383
H   H107      1.0  0.03000  0.24470  0.57400  1.0000 0.2533657383
H   H108      1.0  0.47000  0.75530  0.07400  1.0000 0.2533657383
H   H109      1.0  0.56800  0.33200  0.40600  1.0000 0.2446369286
H   H110      1.0  0.93200  0.66800  0.90600  1.0000 0.2446369286
H   H111      1.0  0.06800  0.16800  0.59400  1.0000 0.2446369286
H   H112      1.0  0.43200  0.83200  0.09400  1.0000 0.2446369286
H   H113      1.0  0.11300  0.11100  0.30560  1.0000 0.2671786751
H   H114      1.0  0.38700  0.88900  0.80560  1.0000 0.2671786751
H   H115      1.0  0.61300  0.38900  0.69440  1.0000 0.2671786751
H   H116      1.0  0.88700  0.61100  0.19440  1.0000 0.2671786751
H   H117      1.0  0.23100  0.11900  0.32900  1.0000 0.2533657383
H   H118      1.0  0.26900  0.88100  0.82900  1.0000 0.2533657383
H   H119      1.0  0.73100  0.38100  0.67100  1.0000 0.2533657383
H   H120      1.0  0.76900  0.61900  0.17100  1.0000 0.2533657383
C   C1        1.0  0.50810  0.11030  0.46390  1.0000 0.518141536
C   C2        1.0  0.99190  0.88970  0.96390  1.0000 0.518141536
C   C3        1.0  0.00810  0.38970  0.53610  1.0000 0.518141536
C   C4        1.0  0.49190  0.61030  0.03610  1.0000 0.518141536
C   C5        1.0  0.52680  0.01790  0.47630  1.0000 -0.0199934913
C   C6        1.0  0.97320  0.98210  0.97630  1.0000 -0.0199934913
C   C7        1.0  0.02680  0.48210  0.52370  1.0000 -0.0199934913
C   C8        1.0  0.47320  0.51790  0.02370  1.0000 -0.0199934913
C   C9        1.0  0.46640  0.98290  0.51820  1.0000 -0.1289091464
C   C10       1.0  0.03360  0.01710  0.01820  1.0000 -0.1289091464
C   C11       1.0  0.96640  0.51710  0.48180  1.0000 -0.1289091464
C   C12       1.0  0.53360  0.48290  0.98180  1.0000 -0.1289091464
C   C13       1.0  0.47940  0.89970  0.53060  1.0000 -0.0199934913
C   C14       1.0  0.02060  0.10030  0.03060  1.0000 -0.0199934913
C   C15       1.0  0.97940  0.60030  0.46940  1.0000 -0.0199934913
C   C16       1.0  0.52060  0.39970  0.96940  1.0000 -0.0199934913
C   C17       1.0  0.41320  0.86030  0.57560  1.0000 0.5613994356
C   C18       1.0  0.08680  0.13970  0.07560  1.0000 0.5613994356
C   C19       1.0  0.91320  0.63970  0.42440  1.0000 0.5613994356
C   C20       1.0  0.58680  0.36030  0.92440  1.0000 0.5613994356
C   C21       1.0  0.55240  0.84800  0.49800  1.0000 -0.1367090215
C   C22       1.0  0.94760  0.15200  0.99800  1.0000 -0.1367090215
C   C23       1.0  0.05240  0.65200  0.50200  1.0000 -0.1367090215
C   C24       1.0  0.44760  0.34800  0.00200  1.0000 -0.1367090215
C   C25       1.0  0.60090  0.96720  0.44430  1.0000 -0.1496385374
C   C26       1.0  0.89910  0.03280  0.94430  1.0000 -0.1496385374
C   C27       1.0  0.10090  0.53280  0.55570  1.0000 -0.1496385374
C   C28       1.0  0.39910  0.46720  0.05570  1.0000 -0.1496385374
C   C29       1.0  0.61020  0.88080  0.45580  1.0000 -0.0199934913
C   C30       1.0  0.88980  0.11920  0.95580  1.0000 -0.0199934913
C   C31       1.0  0.11020  0.61920  0.54420  1.0000 -0.0199934913
C   C32       1.0  0.38980  0.38080  0.04420  1.0000 -0.0199934913
C   C33       1.0  0.68370  0.82160  0.42060  1.0000 0.5697124954
C   C34       1.0  0.81630  0.17840  0.92060  1.0000 0.5697124954
C   C35       1.0  0.18370  0.67840  0.57940  1.0000 0.5697124954
C   C36       1.0  0.31630  0.32160  0.07940  1.0000 0.5697124954
C   C37       1.0  0.02010  0.64190  0.29100  1.0000 0.5546805616
C   C38       1.0  0.47990  0.35810  0.79100  1.0000 0.5546805616
C   C39       1.0  0.52010  0.85810  0.70900  1.0000 0.5546805616
C   C40       1.0  0.97990  0.14190  0.20900  1.0000 0.5546805616
C   C41       1.0  0.13770  0.58850  0.28660  1.0000 -0.030912769
C   C42       1.0  0.36230  0.41150  0.78660  1.0000 -0.030912769
C   C43       1.0  0.63770  0.91150  0.71340  1.0000 -0.030912769
C   C44       1.0  0.86230  0.08850  0.21340  1.0000 -0.030912769
C   C45       1.0  0.13350  0.51170  0.26090  1.0000 -0.1289091464
C   C46       1.0  0.36650  0.48830  0.76090  1.0000 -0.1289091464
C   C47       1.0  0.63350  0.98830  0.73910  1.0000 -0.1289091464
C   C48       1.0  0.86650  0.01170  0.23910  1.0000 -0.1289091464
C   C49       1.0  0.24150  0.46130  0.25870  1.0000 -0.0199934913
C   C50       1.0  0.25850  0.53870  0.75870  1.0000 -0.0199934913
C   C51       1.0  0.74150  0.03870  0.74130  1.0000 -0.0199934913
C   C52       1.0  0.75850  0.96130  0.24130  1.0000 -0.0199934913
C   C53       1.0  0.35270  0.48620  0.28140  1.0000 -0.110686712
C   C54       1.0  0.14730  0.51380  0.78140  1.0000 -0.110686712
C   C55       1.0  0.85270  0.01380  0.71860  1.0000 -0.110686712
C   C56       1.0  0.64730  0.98620  0.21860  1.0000 -0.110686712
C   C57       1.0  0.35950  0.56510  0.30560  1.0000 -0.030912769
C   C58       1.0  0.14050  0.43490  0.80560  1.0000 -0.030912769
C   C59       1.0  0.85950  0.93490  0.69440  1.0000 -0.030912769
C   C60       1.0  0.64050  0.06510  0.19440  1.0000 -0.030912769
C   C61       1.0  0.24860  0.61370  0.30810  1.0000 -0.1034587864
C   C62       1.0  0.25140  0.38630  0.80810  1.0000 -0.1034587864
C   C63       1.0  0.74860  0.88630  0.69190  1.0000 -0.1034587864
C   C64       1.0  0.75140  0.11370  0.19190  1.0000 -0.1034587864
C   C65       1.0  0.23320  0.37580  0.23130  1.0000 0.5361527856
C   C66       1.0  0.26680  0.62420  0.73130  1.0000 0.5361527856
C   C67       1.0  0.73320  0.12420  0.76870  1.0000 0.5361527856
C   C68       1.0  0.76680  0.87580  0.26870  1.0000 0.5361527856
C   C69       1.0  0.47780  0.59480  0.32970  1.0000 0.518141536
C   C70       1.0  0.02220  0.40520  0.82970  1.0000 0.518141536
C   C71       1.0  0.97780  0.90520  0.67030  1.0000 0.518141536
C   C72       1.0  0.52220  0.09480  0.17030  1.0000 0.518141536
C   C73       1.0  0.49260  0.60810  0.47060  1.0000 0.1005352344
C   C74       1.0  0.00740  0.39190  0.97060  1.0000 0.1005352344
C   C75       1.0  0.99260  0.89190  0.52940  1.0000 0.1005352344
C   C76       1.0  0.50740  0.10810  0.02940  1.0000 0.1005352344
C   C77       1.0  0.42690  0.55990  0.50660  1.0000 -0.1186974962
C   C78       1.0  0.07310  0.44010  0.00660  1.0000 -0.1186974962
C   C79       1.0  0.92690  0.94010  0.49340  1.0000 -0.1186974962
C   C80       1.0  0.57310  0.05990  0.99340  1.0000 -0.1186974962
C   C81       1.0  0.44950  0.47290  0.50750  1.0000 -0.110686712
C   C82       1.0  0.05050  0.52710  0.00750  1.0000 -0.110686712
C   C83       1.0  0.94950  0.02710  0.49250  1.0000 -0.110686712
C   C84       1.0  0.55050  0.97290  0.99250  1.0000 -0.110686712
C   C85       1.0  0.53800  0.43920  0.47650  1.0000 0.0433186283
C   C86       1.0  0.96200  0.56080  0.97650  1.0000 0.0433186283
C   C87       1.0  0.03800  0.06080  0.52350  1.0000 0.0433186283
C   C88       1.0  0.46200  0.93920  0.02350  1.0000 0.0433186283
C   C89       1.0  0.60420  0.49230  0.44400  1.0000 0.018385632
C   C90       1.0  0.89580  0.50770  0.94400  1.0000 0.018385632
C   C91       1.0  0.10420  0.00770  0.55600  1.0000 0.018385632
C   C92       1.0  0.39580  0.99230  0.05600  1.0000 0.018385632
C   C93       1.0  0.56330  0.34670  0.47440  1.0000 -0.1496385374
C   C94       1.0  0.93670  0.65330  0.97440  1.0000 -0.1496385374
C   C95       1.0  0.06330  0.15330  0.52560  1.0000 -0.1496385374
C   C96       1.0  0.43670  0.84670  0.02560  1.0000 -0.1496385374
C   C97       1.0  0.37560  0.31920  0.42140  1.0000 -0.0841913131
C   C98       1.0  0.12440  0.68080  0.92140  1.0000 -0.0841913131
C   C99       1.0  0.87560  0.18080  0.57860  1.0000 -0.0841913131
C   C100      1.0  0.62440  0.81920  0.07860  1.0000 -0.0841913131
C   C101      1.0  0.32330  0.26870  0.37640  1.0000 -0.189981008
C   C102      1.0  0.17670  0.73130  0.87640  1.0000 -0.189981008
C   C103      1.0  0.82330  0.23130  0.62360  1.0000 -0.189981008
C   C104      1.0  0.67670  0.76870  0.12360  1.0000 -0.189981008
C   C105      1.0  0.18250  0.27890  0.36870  1.0000 -0.189981008
C   C106      1.0  0.31750  0.72110  0.86870  1.0000 -0.189981008
C   C107      1.0  0.68250  0.22110  0.63130  1.0000 -0.189981008
C   C108      1.0  0.81750  0.77890  0.13130  1.0000 -0.189981008
C   C109      1.0  0.12820  0.22780  0.32500  1.0000 -0.0841913131
C   C110      1.0  0.37180  0.77220  0.82500  1.0000 -0.0841913131
C   C111      1.0  0.62820  0.27220  0.67500  1.0000 -0.0841913131
C   C112      1.0  0.87180  0.72780  0.17500  1.0000 -0.0841913131
C   C113      1.0  0.09700  0.09810  0.37710  1.0000 -0.1594663579
C   C114      1.0  0.40300  0.90190  0.87710  1.0000 -0.1594663579
C   C115      1.0  0.59700  0.40190  0.62290  1.0000 -0.1594663579
C   C116      1.0  0.90300  0.59810  0.12290  1.0000 -0.1594663579
C   C117      1.0  0.12240  0.00370  0.38290  1.0000 0.0313587831
C   C118      1.0  0.37760  0.99630  0.88290  1.0000 0.0313587831
C   C119      1.0  0.62240  0.49630  0.61710  1.0000 0.0313587831
C   C120      1.0  0.87760  0.50370  0.11710  1.0000 0.0313587831
C   C121      1.0  0.23260  0.97280  0.40360  1.0000 -0.110686712
C   C122      1.0  0.26740  0.02720  0.90360  1.0000 -0.110686712
C   C123      1.0  0.73260  0.52720  0.59640  1.0000 -0.110686712
C   C124      1.0  0.76740  0.47280  0.09640  1.0000 -0.110686712
C   C125      1.0  0.24690  0.88640  0.41110  1.0000 -0.1186974962
C   C126      1.0  0.25310  0.11360  0.91110  1.0000 -0.1186974962
C   C127      1.0  0.74690  0.61360  0.58890  1.0000 -0.1186974962
C   C128      1.0  0.75310  0.38640  0.08890  1.0000 -0.1186974962
C   C129      1.0  0.14960  0.83580  0.39390  1.0000 0.1005352344
C   C130      1.0  0.35040  0.16420  0.89390  1.0000 0.1005352344
C   C131      1.0  0.64960  0.66420  0.60610  1.0000 0.1005352344
C   C132      1.0  0.85040  0.33580  0.10610  1.0000 0.1005352344
C   C133      1.0  0.02880  0.94820  0.36820  1.0000 0.0011742797
C   C134      1.0  0.47120  0.05180  0.86820  1.0000 0.0011742797
C   C135      1.0  0.52880  0.55180  0.63180  1.0000 0.0011742797
C   C136      1.0  0.97120  0.44820  0.13180  1.0000 0.0011742797
N   N1        1.0  0.57920  0.57470  0.44000  1.0000 -0.2164845709
N   N2        1.0  0.92080  0.42530  0.94000  1.0000 -0.2164845709
N   N3        1.0  0.07920  0.92530  0.56000  1.0000 -0.2164845709
N   N4        1.0  0.42080  0.07470  0.06000  1.0000 -0.2164845709
N   N5        1.0  0.04150  0.86420  0.37417  1.0000 -0.1984991823
N   N6        1.0  0.45850  0.13580  0.87417  1.0000 -0.1984991823
N   N7        1.0  0.54150  0.63580  0.62583  1.0000 -0.1984991823
N   N8        1.0  0.95850  0.36420  0.12583  1.0000 -0.1984991823
N   N9        1.0  0.51120  0.30840  0.42700  1.0000 -0.167363206
N   N10       1.0  0.98880  0.69160  0.92700  1.0000 -0.167363206
N   N11       1.0  0.01120  0.19160  0.57300  1.0000 -0.167363206
N   N12       1.0  0.48880  0.80840  0.07300  1.0000 -0.167363206
N   N13       1.0  0.15310  0.13420  0.33070  1.0000 -0.1594663579
N   N14       1.0  0.34690  0.86580  0.83070  1.0000 -0.1594663579
N   N15       1.0  0.65310  0.36580  0.66930  1.0000 -0.1594663579
N   N16       1.0  0.84690  0.63420  0.16930  1.0000 -0.1594663579
O   O1        1.0  0.76390  0.85330  0.38986  1.0000 -0.5391450001
O   O2        1.0  0.73610  0.14670  0.88986  1.0000 -0.5391450001
O   O3        1.0  0.26390  0.64670  0.61014  1.0000 -0.5391450001
O   O4        1.0  0.23610  0.35330  0.11014  1.0000 -0.5391450001
O   O5        1.0  0.65790  0.74550  0.42568  1.0000 -0.5391450001
O   O6        1.0  0.84210  0.25450  0.92568  1.0000 -0.5391450001
O   O7        1.0  0.15790  0.75450  0.57432  1.0000 -0.5391450001
O   O8        1.0  0.34210  0.24550  0.07432  1.0000 -0.5391450001
O   O9        1.0  0.33300  0.90590  0.59938  1.0000 -0.5284219627
O   O10       1.0  0.16700  0.09410  0.09938  1.0000 -0.5284219627
O   O11       1.0  0.83300  0.59410  0.40062  1.0000 -0.5284219627
O   O12       1.0  0.66700  0.40590  0.90062  1.0000 -0.5284219627
O   O13       1.0  0.43760  0.78600  0.58506  1.0000 -0.5391450001
O   O14       1.0  0.06240  0.21400  0.08506  1.0000 -0.5391450001
O   O15       1.0  0.93760  0.71400  0.41494  1.0000 -0.5391450001
O   O16       1.0  0.56240  0.28600  0.91494  1.0000 -0.5391450001
O   O17       1.0  0.57340  0.14150  0.43050  1.0000 -0.5391450001
O   O18       1.0  0.92660  0.85850  0.93050  1.0000 -0.5391450001
O   O19       1.0  0.07340  0.35850  0.56950  1.0000 -0.5391450001
O   O20       1.0  0.42660  0.64150  0.06950  1.0000 -0.5391450001
O   O21       1.0  0.42050  0.14880  0.48610  1.0000 -0.601156259
O   O22       1.0  0.07950  0.85120  0.98610  1.0000 -0.601156259
O   O23       1.0  0.92050  0.35120  0.51390  1.0000 -0.601156259
O   O24       1.0  0.57950  0.64880  0.01390  1.0000 -0.601156259
O   O25       1.0  0.03100  0.70990  0.31458  1.0000 -0.5391450001
O   O26       1.0  0.46900  0.29010  0.81458  1.0000 -0.5391450001
O   O27       1.0  0.53100  0.79010  0.68542  1.0000 -0.5391450001
O   O28       1.0  0.96900  0.20990  0.18542  1.0000 -0.5391450001
O   O29       1.0  0.91750  0.61490  0.27162  1.0000 -0.5146010761
O   O30       1.0  0.58250  0.38510  0.77162  1.0000 -0.5146010761
O   O31       1.0  0.41750  0.88510  0.72838  1.0000 -0.5146010761
O   O32       1.0  0.08250  0.11490  0.22838  1.0000 -0.5146010761
O   O33       1.0  0.33010  0.33100  0.23119  1.0000 -0.4987793509
O   O34       1.0  0.16990  0.66900  0.73119  1.0000 -0.4987793509
O   O35       1.0  0.83010  0.16900  0.76881  1.0000 -0.4987793509
O   O36       1.0  0.66990  0.83100  0.26881  1.0000 -0.4987793509
O   O37       1.0  0.12850  0.35890  0.21124  1.0000 -0.5391450001
O   O38       1.0  0.37150  0.64110  0.71124  1.0000 -0.5391450001
O   O39       1.0  0.62850  0.14110  0.78876  1.0000 -0.5391450001
O   O40       1.0  0.87150  0.85890  0.28876  1.0000 -0.5391450001
O   O41       1.0  0.48030  0.66570  0.35075  1.0000 -0.4987793509
O   O42       1.0  0.01970  0.33430  0.85075  1.0000 -0.4987793509
O   O43       1.0  0.98030  0.83430  0.64925  1.0000 -0.4987793509
O   O44       1.0  0.51970  0.16570  0.14925  1.0000 -0.4987793509
O   O45       1.0  0.58010  0.55010  0.32943  1.0000 -0.5391450001
O   O46       1.0  0.91990  0.44990  0.82943  1.0000 -0.5391450001
O   O47       1.0  0.08010  0.94990  0.67057  1.0000 -0.5391450001
O   O48       1.0  0.41990  0.05010  0.17057  1.0000 -0.5391450001
O   O49       1.0  0.75060  0.70520  0.32151  1.0000 -0.2287436743
O   O50       1.0  0.74940  0.29480  0.82151  1.0000 -0.2287436743
O   O51       1.0  0.25060  0.79480  0.67849  1.0000 -0.2287436743
O   O52       1.0  0.24940  0.20520  0.17849  1.0000 -0.2287436743
