# DDEC6 charges by PACMAN v1.1 (https://github.com/mtap-research/PACMAN-charge/)
data_2010[Zn][pts]3[FSR]3
_chemical_formula_sum              "Zn4 H24 C32 O32"
_cell_length_a       8.94
_cell_length_b       14.02
_cell_length_c       15.1307
_cell_angle_alpha    90
_cell_angle_beta     124.468
_cell_angle_gamma    90

_symmetry_space_group_name_H-M    "P 1"
_symmetry_Int_Tables_number       1

loop_
  _symmetry_equiv_pos_as_xyz
  'x, y, z'

loop_
  _atom_site_type_symbol
  _atom_site_label
  _atom_site_symmetry_multiplicity
  _atom_site_fract_x
  _atom_site_fract_y
  _atom_site_fract_z
  _atom_site_occupancy
  _atom_site_charge
Zn  Zn1       1.0  0.50000  0.67367  0.25000  1.0000 0.9743689161
Zn  Zn2       1.0  0.50000  0.32633  0.75000  1.0000 0.9743689161
Zn  Zn3       1.0  0.50000  0.16126  0.25000  1.0000 1.0173644286
Zn  Zn4       1.0  0.50000  0.83874  0.75000  1.0000 1.0148566228
H   H1        1.0  0.02360  0.84750  0.46460  1.0000 0.1346720468
H   H2        1.0  0.97640  0.84750  0.03540  1.0000 0.1346720468
H   H3        1.0  0.97640  0.15250  0.53540  1.0000 0.1346720468
H   H4        1.0  0.02360  0.15250  0.96460  1.0000 0.1346720468
H   H5        1.0  0.90460  0.90610  0.35570  1.0000 0.1401570227
H   H6        1.0  0.09540  0.90610  0.14430  1.0000 0.1401570227
H   H7        1.0  0.09540  0.09390  0.64430  1.0000 0.1401570227
H   H8        1.0  0.90460  0.09390  0.85570  1.0000 0.1401570227
H   H9        1.0  0.92460  0.94440  0.54680  1.0000 0.111748067
H   H10       1.0  0.07540  0.94440  0.95320  1.0000 0.111748067
H   H11       1.0  0.07540  0.05560  0.45320  1.0000 0.111748067
H   H12       1.0  0.92460  0.05560  0.04680  1.0000 0.111748067
H   H13       1.0  0.47180  0.33780  0.49760  1.0000 0.1401570227
H   H14       1.0  0.52820  0.33780  0.00240  1.0000 0.1401570227
H   H15       1.0  0.52820  0.66220  0.50240  1.0000 0.1401570227
H   H16       1.0  0.47180  0.66220  0.99760  1.0000 0.1401570227
H   H17       1.0  0.31590  0.37530  0.38070  1.0000 0.1453607988
H   H18       1.0  0.68410  0.37530  0.11930  1.0000 0.1453607988
H   H19       1.0  0.68410  0.62470  0.61930  1.0000 0.1453607988
H   H20       1.0  0.31590  0.62470  0.88070  1.0000 0.1453607988
H   H21       1.0  0.65960  0.46740  0.50870  1.0000 0.11755252
H   H22       1.0  0.34040  0.46740  0.99130  1.0000 0.11755252
H   H23       1.0  0.34040  0.53260  0.49130  1.0000 0.11755252
H   H24       1.0  0.65960  0.53260  0.00870  1.0000 0.11755252
C   C1        1.0  0.75400  0.81170  0.37830  1.0000 0.6396424633
C   C2        1.0  0.24600  0.81170  0.12170  1.0000 0.6396424633
C   C3        1.0  0.24600  0.18830  0.62170  1.0000 0.6396424633
C   C4        1.0  0.75400  0.18830  0.87830  1.0000 0.6396424633
C   C5        1.0  0.90800  0.88250  0.41850  1.0000 -0.3084290463
C   C6        1.0  0.09200  0.88250  0.08150  1.0000 -0.3084290463
C   C7        1.0  0.09200  0.11750  0.58150  1.0000 -0.3084290463
C   C8        1.0  0.90800  0.11750  0.91850  1.0000 -0.3084290463
C   C9        1.0  0.91280  0.96870  0.48100  1.0000 -0.0845862318
C   C10       1.0  0.08720  0.96870  0.01900  1.0000 -0.0845862318
C   C11       1.0  0.08720  0.03130  0.51900  1.0000 -0.0885639676
C   C12       1.0  0.91280  0.03130  0.98100  1.0000 -0.0885639676
C   C13       1.0  0.73560  0.02670  0.41680  1.0000 0.5687539887
C   C14       1.0  0.26440  0.02670  0.08320  1.0000 0.5687539887
C   C15       1.0  0.26440  0.97330  0.58320  1.0000 0.5687539887
C   C16       1.0  0.73560  0.97330  0.91680  1.0000 0.5687539887
C   C17       1.0  0.53100  0.31280  0.38490  1.0000 0.6396424633
C   C18       1.0  0.46900  0.31280  0.11510  1.0000 0.63301243
C   C19       1.0  0.46900  0.68720  0.61510  1.0000 0.63301243
C   C20       1.0  0.53100  0.68720  0.88490  1.0000 0.6396424633
C   C21       1.0  0.44900  0.37160  0.43360  1.0000 -0.302284314
C   C22       1.0  0.55100  0.37160  0.06640  1.0000 -0.302284314
C   C23       1.0  0.55100  0.62840  0.56640  1.0000 -0.302284314
C   C24       1.0  0.44900  0.62840  0.93360  1.0000 -0.302284314
C   C25       1.0  0.52420  0.47230  0.46580  1.0000 -0.0885639676
C   C26       1.0  0.47580  0.47230  0.03420  1.0000 -0.0885639676
C   C27       1.0  0.47580  0.52770  0.53420  1.0000 -0.0885639676
C   C28       1.0  0.52420  0.52770  0.96580  1.0000 -0.0885639676
C   C29       1.0  0.46630  0.53280  0.37050  1.0000 0.5687539887
C   C30       1.0  0.53370  0.53280  0.12950  1.0000 0.5687539887
C   C31       1.0  0.53370  0.46720  0.62950  1.0000 0.5687539887
C   C32       1.0  0.46630  0.46720  0.87050  1.0000 0.5687539887
O   O1        1.0  0.71830  0.75460  0.30310  1.0000 -0.4425927066
O   O2        1.0  0.28170  0.75460  0.19690  1.0000 -0.4425927066
O   O3        1.0  0.28170  0.24540  0.69690  1.0000 -0.4425927066
O   O4        1.0  0.71830  0.24540  0.80310  1.0000 -0.4425927066
O   O5        1.0  0.62520  0.02630  0.43940  1.0000 -0.3685192752
O   O6        1.0  0.37480  0.02630  0.06060  1.0000 -0.3685192752
O   O7        1.0  0.37480  0.97370  0.56060  1.0000 -0.3685192752
O   O8        1.0  0.62520  0.97370  0.93940  1.0000 -0.3685192752
O   O9        1.0  0.71390  0.07770  0.33660  1.0000 -0.4797994707
O   O10       1.0  0.28610  0.07770  0.16340  1.0000 -0.4797994707
O   O11       1.0  0.28610  0.92230  0.66340  1.0000 -0.4797994707
O   O12       1.0  0.71390  0.92230  0.83660  1.0000 -0.4797994707
O   O13       1.0  0.43570  0.23080  0.33530  1.0000 -0.4190784135
O   O14       1.0  0.56430  0.23080  0.16470  1.0000 -0.4190784135
O   O15       1.0  0.56430  0.76920  0.66470  1.0000 -0.4190784135
O   O16       1.0  0.43570  0.76920  0.83530  1.0000 -0.4190784135
O   O17       1.0  0.66667  0.33170  0.39320  1.0000 -0.4003932986
O   O18       1.0  0.33340  0.33170  0.10680  1.0000 -0.4003932986
O   O19       1.0  0.33340  0.66830  0.60680  1.0000 -0.4003932986
O   O20       1.0  0.66667  0.66830  0.89320  1.0000 -0.4003932986
O   O21       1.0  0.58750  0.58540  0.37200  1.0000 -0.4425927066
O   O22       1.0  0.41250  0.58540  0.12800  1.0000 -0.4425927066
O   O23       1.0  0.41250  0.41460  0.62800  1.0000 -0.4425927066
O   O24       1.0  0.58750  0.41460  0.87200  1.0000 -0.4425927066
O   O25       1.0  0.30460  0.53750  0.29340  1.0000 -0.4148097474
O   O26       1.0  0.69540  0.53750  0.20660  1.0000 -0.4148097474
O   O27       1.0  0.69540  0.46250  0.70660  1.0000 -0.4190784135
O   O28       1.0  0.30460  0.46250  0.79340  1.0000 -0.4190784135
O   O29       1.0  0.67020  0.80660  0.42520  1.0000 -0.4425927066
O   O30       1.0  0.32980  0.80660  0.07480  1.0000 -0.4425927066
O   O31       1.0  0.32980  0.19340  0.57480  1.0000 -0.4425927066
O   O32       1.0  0.67020  0.19340  0.92520  1.0000 -0.4425927066
