# DDEC6 charges by PACMAN v1.1 (https://github.com/mtap-research/PACMAN-charge/)
data_2010[AgDy][nan]3[FSR]1
_chemical_formula_sum              "Dy8 Ag8 H64 C144 N32 O64"
_cell_length_a       8.4517
_cell_length_b       17.748
_cell_length_c       25.326
_cell_angle_alpha    90
_cell_angle_beta     90
_cell_angle_gamma    90

_symmetry_space_group_name_H-M    "P 1"
_symmetry_Int_Tables_number       1

loop_
  _symmetry_equiv_pos_as_xyz
  'x, y, z'

loop_
  _atom_site_type_symbol
  _atom_site_label
  _atom_site_symmetry_multiplicity
  _atom_site_fract_x
  _atom_site_fract_y
  _atom_site_fract_z
  _atom_site_occupancy
  _atom_site_charge
Dy  Dy1       1.0  0.16544  0.78231  0.97616  1.0000 2.0909385806
Dy  Dy2       1.0  0.66544  0.71769  0.02384  1.0000 2.0909385806
Dy  Dy3       1.0  0.66544  0.21769  0.47616  1.0000 2.0909385806
Dy  Dy4       1.0  0.16544  0.28231  0.52384  1.0000 2.0909385806
Dy  Dy5       1.0  0.33456  0.78231  0.52384  1.0000 2.0909385806
Dy  Dy6       1.0  0.83456  0.71769  0.47616  1.0000 2.0909385806
Dy  Dy7       1.0  0.83456  0.21769  0.02384  1.0000 2.0909385806
Dy  Dy8       1.0  0.33456  0.28231  0.97616  1.0000 2.0909385806
Ag  Ag1       1.0  0.96203  0.55003  0.72732  1.0000 0.2886259755
Ag  Ag2       1.0  0.46203  0.94997  0.27268  1.0000 0.2886259755
Ag  Ag3       1.0  0.46203  0.44997  0.22732  1.0000 0.2886259755
Ag  Ag4       1.0  0.96203  0.05003  0.77268  1.0000 0.2886259755
Ag  Ag5       1.0  0.53797  0.55003  0.77268  1.0000 0.2886259755
Ag  Ag6       1.0  0.03797  0.94997  0.22732  1.0000 0.2886259755
Ag  Ag7       1.0  0.03797  0.44997  0.27268  1.0000 0.2886259755
Ag  Ag8       1.0  0.53797  0.05003  0.72732  1.0000 0.2886259755
H   H1        1.0  0.55900  0.14250  0.90400  1.0000 0.3163528381
H   H2        1.0  0.05900  0.35750  0.09600  1.0000 0.3163528381
H   H3        1.0  0.05900  0.85750  0.40400  1.0000 0.3163528381
H   H4        1.0  0.55900  0.64250  0.59600  1.0000 0.3163528381
H   H5        1.0  0.21290  0.39420  0.87100  1.0000 0.3163528381
H   H6        1.0  0.71290  0.10580  0.12900  1.0000 0.3163528381
H   H7        1.0  0.71290  0.60580  0.37100  1.0000 0.3163528381
H   H8        1.0  0.21290  0.89420  0.62900  1.0000 0.3163528381
H   H9        1.0  0.46440  0.00790  0.95510  1.0000 0.139054689
H   H10       1.0  0.96440  0.49210  0.04490  1.0000 0.139054689
H   H11       1.0  0.96440  0.99210  0.45510  1.0000 0.139054689
H   H12       1.0  0.46440  0.50790  0.54490  1.0000 0.139054689
H   H13       1.0  0.74860  0.17440  0.83910  1.0000 0.1316311782
H   H14       1.0  0.24860  0.32560  0.16090  1.0000 0.1316311782
H   H15       1.0  0.24860  0.82560  0.33910  1.0000 0.1316311782
H   H16       1.0  0.74860  0.67440  0.66090  1.0000 0.1316311782
H   H17       1.0  0.90270  0.91780  0.86110  1.0000 0.139054689
H   H18       1.0  0.40270  0.58220  0.13890  1.0000 0.139054689
H   H19       1.0  0.40270  0.08220  0.36110  1.0000 0.139054689
H   H20       1.0  0.90270  0.41780  0.63890  1.0000 0.139054689
H   H21       1.0  0.19170  0.66000  0.79810  1.0000 0.139054689
H   H22       1.0  0.69170  0.84000  0.20190  1.0000 0.139054689
H   H23       1.0  0.69170  0.34000  0.29810  1.0000 0.139054689
H   H24       1.0  0.19170  0.16000  0.70190  1.0000 0.139054689
H   H25       1.0  0.05300  0.40030  0.79580  1.0000 0.1219755976
H   H26       1.0  0.55300  0.09970  0.20420  1.0000 0.1219755976
H   H27       1.0  0.55300  0.59970  0.29580  1.0000 0.1219755976
H   H28       1.0  0.05300  0.90030  0.70420  1.0000 0.1219755976
H   H29       1.0  0.38050  0.50290  0.93420  1.0000 0.1606439178
H   H30       1.0  0.88050  0.99710  0.06580  1.0000 0.1606439178
H   H31       1.0  0.88050  0.49710  0.43420  1.0000 0.1606439178
H   H32       1.0  0.38050  0.00290  0.56580  1.0000 0.1606439178
H   H33       1.0  0.94100  0.14250  0.59600  1.0000 0.3163528381
H   H34       1.0  0.44100  0.35750  0.40400  1.0000 0.3163528381
H   H35       1.0  0.44100  0.85750  0.09600  1.0000 0.3163528381
H   H36       1.0  0.94100  0.64250  0.90400  1.0000 0.3163528381
H   H37       1.0  0.28710  0.39420  0.62900  1.0000 0.3163528381
H   H38       1.0  0.78710  0.10580  0.37100  1.0000 0.3163528381
H   H39       1.0  0.78710  0.60580  0.12900  1.0000 0.3163528381
H   H40       1.0  0.28710  0.89420  0.87100  1.0000 0.3163528381
H   H41       1.0  0.03560  0.00790  0.54490  1.0000 0.139054689
H   H42       1.0  0.53560  0.49210  0.45510  1.0000 0.139054689
H   H43       1.0  0.53560  0.99210  0.04490  1.0000 0.139054689
H   H44       1.0  0.03560  0.50790  0.95510  1.0000 0.139054689
H   H45       1.0  0.75140  0.17440  0.66090  1.0000 0.1316311782
H   H46       1.0  0.25140  0.32560  0.33910  1.0000 0.1316311782
H   H47       1.0  0.25140  0.82560  0.16090  1.0000 0.1316311782
H   H48       1.0  0.75140  0.67440  0.83910  1.0000 0.1316311782
H   H49       1.0  0.59730  0.91780  0.63890  1.0000 0.139054689
H   H50       1.0  0.09730  0.58220  0.36110  1.0000 0.139054689
H   H51       1.0  0.09730  0.08220  0.13890  1.0000 0.139054689
H   H52       1.0  0.59730  0.41780  0.86110  1.0000 0.139054689
H   H53       1.0  0.30830  0.66000  0.70190  1.0000 0.139054689
H   H54       1.0  0.80830  0.84000  0.29810  1.0000 0.139054689
H   H55       1.0  0.80830  0.34000  0.20190  1.0000 0.139054689
H   H56       1.0  0.30830  0.16000  0.79810  1.0000 0.139054689
H   H57       1.0  0.44700  0.40030  0.70420  1.0000 0.1219755976
H   H58       1.0  0.94700  0.09970  0.29580  1.0000 0.1219755976
H   H59       1.0  0.94700  0.59970  0.20420  1.0000 0.1219755976
H   H60       1.0  0.44700  0.90030  0.79580  1.0000 0.1219755976
H   H61       1.0  0.11950  0.50290  0.56580  1.0000 0.1606439178
H   H62       1.0  0.61950  0.99710  0.43420  1.0000 0.1606439178
H   H63       1.0  0.61950  0.49710  0.06580  1.0000 0.1606439178
H   H64       1.0  0.11950  0.00290  0.93420  1.0000 0.1606439178
C   C1        1.0  0.51030  0.87069  0.98246  1.0000 0.650685144
C   C2        1.0  0.01030  0.62931  0.01754  1.0000 0.650685144
C   C3        1.0  0.01030  0.12931  0.48246  1.0000 0.650685144
C   C4        1.0  0.51030  0.37069  0.51754  1.0000 0.650685144
C   C5        1.0  0.60570  0.91661  0.94443  1.0000 -0.0420397805
C   C6        1.0  0.10570  0.58339  0.05557  1.0000 -0.0420397805
C   C7        1.0  0.10570  0.08339  0.44443  1.0000 -0.0420397805
C   C8        1.0  0.60570  0.41661  0.55557  1.0000 -0.0420397805
C   C9        1.0  0.55360  0.99017  0.93753  1.0000 -0.1917703325
C   C10       1.0  0.05360  0.50983  0.06247  1.0000 -0.1917703325
C   C11       1.0  0.05360  0.00983  0.43753  1.0000 -0.1917703325
C   C12       1.0  0.55360  0.49017  0.56247  1.0000 -0.1917703325
C   C13       1.0  0.63880  0.03630  0.90364  1.0000 0.150707153
C   C14       1.0  0.13880  0.46370  0.09636  1.0000 0.150707153
C   C15       1.0  0.13880  0.96370  0.40364  1.0000 0.150707153
C   C16       1.0  0.63880  0.53630  0.59636  1.0000 0.150707153
C   C17       1.0  0.73340  0.12680  0.85368  1.0000 0.1740267774
C   C18       1.0  0.23340  0.37320  0.14632  1.0000 0.1740267774
C   C19       1.0  0.23340  0.87320  0.35368  1.0000 0.1740267774
C   C20       1.0  0.73340  0.62680  0.64632  1.0000 0.1740267774
C   C21       1.0  0.76210  0.00850  0.87280  1.0000 0.1219755976
C   C22       1.0  0.26210  0.49150  0.12720  1.0000 0.1219755976
C   C23       1.0  0.26210  0.99150  0.37280  1.0000 0.1219755976
C   C24       1.0  0.76210  0.50850  0.62720  1.0000 0.1219755976
C   C25       1.0  0.81710  0.93600  0.88033  1.0000 -0.1812232757
C   C26       1.0  0.31710  0.56400  0.11967  1.0000 -0.1812232757
C   C27       1.0  0.31710  0.06400  0.38033  1.0000 -0.1812232757
C   C28       1.0  0.81710  0.43600  0.61967  1.0000 -0.1812232757
C   C29       1.0  0.74170  0.89108  0.91723  1.0000 -0.0420397805
C   C30       1.0  0.24170  0.60892  0.08277  1.0000 -0.0420397805
C   C31       1.0  0.24170  0.10892  0.41723  1.0000 -0.0420397805
C   C32       1.0  0.74170  0.39108  0.58277  1.0000 -0.0420397805
C   C33       1.0  0.80980  0.81350  0.92622  1.0000 0.650685144
C   C34       1.0  0.30980  0.68650  0.07378  1.0000 0.650685144
C   C35       1.0  0.30980  0.18650  0.42622  1.0000 0.650685144
C   C36       1.0  0.80980  0.31350  0.57378  1.0000 0.650685144
C   C37       1.0  0.34930  0.74210  0.86563  1.0000 0.6079241162
C   C38       1.0  0.84930  0.75790  0.13437  1.0000 0.6079241162
C   C39       1.0  0.84930  0.25790  0.36563  1.0000 0.6079241162
C   C40       1.0  0.34930  0.24210  0.63437  1.0000 0.6079241162
C   C41       1.0  0.31160  0.65900  0.86774  1.0000 -0.0345639075
C   C42       1.0  0.81160  0.84100  0.13226  1.0000 -0.0345639075
C   C43       1.0  0.81160  0.34100  0.36774  1.0000 -0.0345639075
C   C44       1.0  0.31160  0.15900  0.63226  1.0000 -0.0345639075
C   C45       1.0  0.22540  0.62935  0.82570  1.0000 -0.2368973518
C   C46       1.0  0.72540  0.87065  0.17430  1.0000 -0.2368973518
C   C47       1.0  0.72540  0.37065  0.32570  1.0000 -0.2368973518
C   C48       1.0  0.22540  0.12935  0.67430  1.0000 -0.2368973518
C   C49       1.0  0.19130  0.55290  0.82604  1.0000 0.1144798075
C   C50       1.0  0.69130  0.94710  0.17396  1.0000 0.1144798075
C   C51       1.0  0.69130  0.44710  0.32604  1.0000 0.1144798075
C   C52       1.0  0.19130  0.05290  0.67396  1.0000 0.1144798075
C   C53       1.0  0.10520  0.44090  0.81113  1.0000 0.177006123
C   C54       1.0  0.60520  0.05910  0.18887  1.0000 0.177006123
C   C55       1.0  0.60520  0.55910  0.31113  1.0000 0.177006123
C   C56       1.0  0.10520  0.94090  0.68887  1.0000 0.177006123
C   C57       1.0  0.25060  0.50520  0.86570  1.0000 0.1219755976
C   C58       1.0  0.75060  0.99480  0.13430  1.0000 0.1219755976
C   C59       1.0  0.75060  0.49480  0.36570  1.0000 0.1219755976
C   C60       1.0  0.25060  0.00520  0.63430  1.0000 0.1219755976
C   C61       1.0  0.34070  0.53430  0.90792  1.0000 -0.172963197
C   C62       1.0  0.84070  0.96570  0.09208  1.0000 -0.172963197
C   C63       1.0  0.84070  0.46570  0.40792  1.0000 -0.172963197
C   C64       1.0  0.34070  0.03430  0.59208  1.0000 -0.172963197
C   C65       1.0  0.36770  0.61140  0.90890  1.0000 -0.0602420444
C   C66       1.0  0.86770  0.88860  0.09110  1.0000 -0.0602420444
C   C67       1.0  0.86770  0.38860  0.40890  1.0000 -0.0602420444
C   C68       1.0  0.36770  0.11140  0.59110  1.0000 -0.0602420444
C   C69       1.0  0.45220  0.64480  0.95430  1.0000 0.5956903821
C   C70       1.0  0.95220  0.85520  0.04570  1.0000 0.5956903821
C   C71       1.0  0.95220  0.35520  0.45430  1.0000 0.5956903821
C   C72       1.0  0.45220  0.14480  0.54570  1.0000 0.5956903821
C   C73       1.0  0.98970  0.87069  0.51754  1.0000 0.650685144
C   C74       1.0  0.48970  0.62931  0.48246  1.0000 0.650685144
C   C75       1.0  0.48970  0.12931  0.01754  1.0000 0.650685144
C   C76       1.0  0.98970  0.37069  0.98246  1.0000 0.650685144
C   C77       1.0  0.89430  0.91661  0.55557  1.0000 -0.0420397805
C   C78       1.0  0.39430  0.58339  0.44443  1.0000 -0.0420397805
C   C79       1.0  0.39430  0.08339  0.05557  1.0000 -0.0420397805
C   C80       1.0  0.89430  0.41661  0.94443  1.0000 -0.0420397805
C   C81       1.0  0.94640  0.99017  0.56247  1.0000 -0.1917703325
C   C82       1.0  0.44640  0.50983  0.43753  1.0000 -0.1917703325
C   C83       1.0  0.44640  0.00983  0.06247  1.0000 -0.1917703325
C   C84       1.0  0.94640  0.49017  0.93753  1.0000 -0.1917703325
C   C85       1.0  0.86120  0.03630  0.59636  1.0000 0.150707153
C   C86       1.0  0.36120  0.46370  0.40364  1.0000 0.150707153
C   C87       1.0  0.36120  0.96370  0.09636  1.0000 0.150707153
C   C88       1.0  0.86120  0.53630  0.90364  1.0000 0.150707153
C   C89       1.0  0.76660  0.12680  0.64632  1.0000 0.1740267774
C   C90       1.0  0.26660  0.37320  0.35368  1.0000 0.1740267774
C   C91       1.0  0.26660  0.87320  0.14632  1.0000 0.1740267774
C   C92       1.0  0.76660  0.62680  0.85368  1.0000 0.1740267774
C   C93       1.0  0.73790  0.00850  0.62720  1.0000 0.1219755976
C   C94       1.0  0.23790  0.49150  0.37280  1.0000 0.1219755976
C   C95       1.0  0.23790  0.99150  0.12720  1.0000 0.1219755976
C   C96       1.0  0.73790  0.50850  0.87280  1.0000 0.1219755976
C   C97       1.0  0.68290  0.93600  0.61967  1.0000 -0.1812232757
C   C98       1.0  0.18290  0.56400  0.38033  1.0000 -0.1812232757
C   C99       1.0  0.18290  0.06400  0.11967  1.0000 -0.1812232757
C   C100      1.0  0.68290  0.43600  0.88033  1.0000 -0.1812232757
C   C101      1.0  0.75830  0.89108  0.58277  1.0000 -0.0420397805
C   C102      1.0  0.25830  0.60892  0.41723  1.0000 -0.0420397805
C   C103      1.0  0.25830  0.10892  0.08277  1.0000 -0.0420397805
C   C104      1.0  0.75830  0.39108  0.91723  1.0000 -0.0420397805
C   C105      1.0  0.69020  0.81350  0.57378  1.0000 0.650685144
C   C106      1.0  0.19020  0.68650  0.42622  1.0000 0.650685144
C   C107      1.0  0.19020  0.18650  0.07378  1.0000 0.650685144
C   C108      1.0  0.69020  0.31350  0.92622  1.0000 0.650685144
C   C109      1.0  0.15070  0.74210  0.63437  1.0000 0.6079241162
C   C110      1.0  0.65070  0.75790  0.36563  1.0000 0.6079241162
C   C111      1.0  0.65070  0.25790  0.13437  1.0000 0.6079241162
C   C112      1.0  0.15070  0.24210  0.86563  1.0000 0.6079241162
C   C113      1.0  0.18840  0.65900  0.63226  1.0000 -0.0345639075
C   C114      1.0  0.68840  0.84100  0.36774  1.0000 -0.0345639075
C   C115      1.0  0.68840  0.34100  0.13226  1.0000 -0.0345639075
C   C116      1.0  0.18840  0.15900  0.86774  1.0000 -0.0345639075
C   C117      1.0  0.27460  0.62935  0.67430  1.0000 -0.2368973518
C   C118      1.0  0.77460  0.87065  0.32570  1.0000 -0.2368973518
C   C119      1.0  0.77460  0.37065  0.17430  1.0000 -0.2368973518
C   C120      1.0  0.27460  0.12935  0.82570  1.0000 -0.2368973518
C   C121      1.0  0.30870  0.55290  0.67396  1.0000 0.1144798075
C   C122      1.0  0.80870  0.94710  0.32604  1.0000 0.1144798075
C   C123      1.0  0.80870  0.44710  0.17396  1.0000 0.1144798075
C   C124      1.0  0.30870  0.05290  0.82604  1.0000 0.1144798075
C   C125      1.0  0.39480  0.44090  0.68887  1.0000 0.177006123
C   C126      1.0  0.89480  0.05910  0.31113  1.0000 0.177006123
C   C127      1.0  0.89480  0.55910  0.18887  1.0000 0.177006123
C   C128      1.0  0.39480  0.94090  0.81113  1.0000 0.177006123
C   C129      1.0  0.24940  0.50520  0.63430  1.0000 0.1219755976
C   C130      1.0  0.74940  0.99480  0.36570  1.0000 0.1219755976
C   C131      1.0  0.74940  0.49480  0.13430  1.0000 0.1219755976
C   C132      1.0  0.24940  0.00520  0.86570  1.0000 0.1219755976
C   C133      1.0  0.15930  0.53430  0.59208  1.0000 -0.172963197
C   C134      1.0  0.65930  0.96570  0.40792  1.0000 -0.172963197
C   C135      1.0  0.65930  0.46570  0.09208  1.0000 -0.172963197
C   C136      1.0  0.15930  0.03430  0.90792  1.0000 -0.172963197
C   C137      1.0  0.13230  0.61140  0.59110  1.0000 -0.0602420444
C   C138      1.0  0.63230  0.88860  0.40890  1.0000 -0.0602420444
C   C139      1.0  0.63230  0.38860  0.09110  1.0000 -0.0602420444
C   C140      1.0  0.13230  0.11140  0.90890  1.0000 -0.0602420444
C   C141      1.0  0.04780  0.64480  0.54570  1.0000 0.5956903821
C   C142      1.0  0.54780  0.85520  0.45430  1.0000 0.5956903821
C   C143      1.0  0.54780  0.35520  0.04570  1.0000 0.5956903821
C   C144      1.0  0.04780  0.14480  0.95430  1.0000 0.5956903821
N   N1        1.0  0.62540  0.11113  0.89066  1.0000 -0.2198707411
N   N2        1.0  0.12540  0.38887  0.10934  1.0000 -0.2198707411
N   N3        1.0  0.12540  0.88887  0.39066  1.0000 -0.2198707411
N   N4        1.0  0.62540  0.61113  0.60934  1.0000 -0.2198707411
N   N5        1.0  0.81650  0.06603  0.84021  1.0000 -0.3084285656
N   N6        1.0  0.31650  0.43397  0.15979  1.0000 -0.3084285656
N   N7        1.0  0.31650  0.93397  0.34021  1.0000 -0.3084285656
N   N8        1.0  0.81650  0.56603  0.65979  1.0000 -0.3084285656
N   N9        1.0  0.09770  0.51054  0.79215  1.0000 -0.3084285656
N   N10       1.0  0.59770  0.98946  0.20785  1.0000 -0.3084285656
N   N11       1.0  0.59770  0.48946  0.29215  1.0000 -0.3084285656
N   N12       1.0  0.09770  0.01054  0.70785  1.0000 -0.3084285656
N   N13       1.0  0.19400  0.43495  0.85377  1.0000 -0.2198707411
N   N14       1.0  0.69400  0.06505  0.14623  1.0000 -0.2198707411
N   N15       1.0  0.69400  0.56505  0.35377  1.0000 -0.2198707411
N   N16       1.0  0.19400  0.93495  0.64623  1.0000 -0.2198707411
N   N17       1.0  0.87460  0.11113  0.60934  1.0000 -0.2198707411
N   N18       1.0  0.37460  0.38887  0.39066  1.0000 -0.2198707411
N   N19       1.0  0.37460  0.88887  0.10934  1.0000 -0.2198707411
N   N20       1.0  0.87460  0.61113  0.89066  1.0000 -0.2198707411
N   N21       1.0  0.68350  0.06603  0.65979  1.0000 -0.3084285656
N   N22       1.0  0.18350  0.43397  0.34021  1.0000 -0.3084285656
N   N23       1.0  0.18350  0.93397  0.15979  1.0000 -0.3084285656
N   N24       1.0  0.68350  0.56603  0.84021  1.0000 -0.3084285656
N   N25       1.0  0.40230  0.51054  0.70785  1.0000 -0.3084285656
N   N26       1.0  0.90230  0.98946  0.29215  1.0000 -0.3084285656
N   N27       1.0  0.90230  0.48946  0.20785  1.0000 -0.3084285656
N   N28       1.0  0.40230  0.01054  0.79215  1.0000 -0.3084285656
N   N29       1.0  0.30600  0.43495  0.64623  1.0000 -0.2198707411
N   N30       1.0  0.80600  0.06505  0.35377  1.0000 -0.2198707411
N   N31       1.0  0.80600  0.56505  0.14623  1.0000 -0.2198707411
N   N32       1.0  0.30600  0.93495  0.85377  1.0000 -0.2198707411
O   O1        1.0  0.36470  0.87117  0.97572  1.0000 -0.6242337698
O   O2        1.0  0.86470  0.62883  0.02428  1.0000 -0.6242337698
O   O3        1.0  0.86470  0.12883  0.47572  1.0000 -0.6242337698
O   O4        1.0  0.36470  0.37117  0.52428  1.0000 -0.6242337698
O   O5        1.0  0.57750  0.83891  0.02186  1.0000 -0.7062086339
O   O6        1.0  0.07750  0.66109  0.97814  1.0000 -0.7062086339
O   O7        1.0  0.07750  0.16109  0.52186  1.0000 -0.7062086339
O   O8        1.0  0.57750  0.33891  0.47814  1.0000 -0.7062086339
O   O9        1.0  0.72260  0.75981  0.94061  1.0000 -0.6633439536
O   O10       1.0  0.22260  0.74019  0.05939  1.0000 -0.6633439536
O   O11       1.0  0.22260  0.24019  0.44061  1.0000 -0.6633439536
O   O12       1.0  0.72260  0.25981  0.55939  1.0000 -0.6633439536
O   O13       1.0  0.95790  0.80714  0.91927  1.0000 -0.6712257738
O   O14       1.0  0.45790  0.69286  0.08073  1.0000 -0.6712257738
O   O15       1.0  0.45790  0.19286  0.41927  1.0000 -0.6712257738
O   O16       1.0  0.95790  0.30714  0.58073  1.0000 -0.6712257738
O   O17       1.0  0.24980  0.78555  0.88950  1.0000 -0.6961398
O   O18       1.0  0.74980  0.71445  0.11050  1.0000 -0.6961398
O   O19       1.0  0.74980  0.21445  0.38950  1.0000 -0.6961398
O   O20       1.0  0.24980  0.28555  0.61050  1.0000 -0.6961398
O   O21       1.0  0.46010  0.76506  0.83926  1.0000 -0.5229253644
O   O22       1.0  0.96010  0.73494  0.16074  1.0000 -0.5229253644
O   O23       1.0  0.96010  0.23494  0.33926  1.0000 -0.5229253644
O   O24       1.0  0.46010  0.26506  0.66074  1.0000 -0.5229253644
O   O25       1.0  0.41220  0.71108  0.96974  1.0000 -0.7298260281
O   O26       1.0  0.91220  0.78892  0.03026  1.0000 -0.7298260281
O   O27       1.0  0.91220  0.28892  0.46974  1.0000 -0.7298260281
O   O28       1.0  0.41220  0.21108  0.53026  1.0000 -0.7298260281
O   O29       1.0  0.56350  0.61143  0.97635  1.0000 -0.5765992279
O   O30       1.0  0.06350  0.88857  0.02365  1.0000 -0.5765992279
O   O31       1.0  0.06350  0.38857  0.47635  1.0000 -0.5765992279
O   O32       1.0  0.56350  0.11143  0.52365  1.0000 -0.5765992279
O   O33       1.0  0.13530  0.87117  0.52428  1.0000 -0.6242337698
O   O34       1.0  0.63530  0.62883  0.47572  1.0000 -0.6242337698
O   O35       1.0  0.63530  0.12883  0.02428  1.0000 -0.6242337698
O   O36       1.0  0.13530  0.37117  0.97572  1.0000 -0.6242337698
O   O37       1.0  0.92250  0.83891  0.47814  1.0000 -0.7062086339
O   O38       1.0  0.42250  0.66109  0.52186  1.0000 -0.7062086339
O   O39       1.0  0.42250  0.16109  0.97814  1.0000 -0.7062086339
O   O40       1.0  0.92250  0.33891  0.02186  1.0000 -0.7062086339
O   O41       1.0  0.77740  0.75981  0.55939  1.0000 -0.6633439536
O   O42       1.0  0.27740  0.74019  0.44061  1.0000 -0.6633439536
O   O43       1.0  0.27740  0.24019  0.05939  1.0000 -0.6633439536
O   O44       1.0  0.77740  0.25981  0.94061  1.0000 -0.6633439536
O   O45       1.0  0.54210  0.80714  0.58073  1.0000 -0.6712257738
O   O46       1.0  0.04210  0.69286  0.41927  1.0000 -0.6712257738
O   O47       1.0  0.04210  0.19286  0.08073  1.0000 -0.6712257738
O   O48       1.0  0.54210  0.30714  0.91927  1.0000 -0.6712257738
O   O49       1.0  0.25020  0.78555  0.61050  1.0000 -0.6961398
O   O50       1.0  0.75020  0.71445  0.38950  1.0000 -0.6961398
O   O51       1.0  0.75020  0.21445  0.11050  1.0000 -0.6961398
O   O52       1.0  0.25020  0.28555  0.88950  1.0000 -0.6961398
O   O53       1.0  0.03990  0.76506  0.66074  1.0000 -0.5229253644
O   O54       1.0  0.53990  0.73494  0.33926  1.0000 -0.5229253644
O   O55       1.0  0.53990  0.23494  0.16074  1.0000 -0.5229253644
O   O56       1.0  0.03990  0.26506  0.83926  1.0000 -0.5229253644
O   O57       1.0  0.08780  0.71108  0.53026  1.0000 -0.7298260281
O   O58       1.0  0.58780  0.78892  0.46974  1.0000 -0.7298260281
O   O59       1.0  0.58780  0.28892  0.03026  1.0000 -0.7298260281
O   O60       1.0  0.08780  0.21108  0.96974  1.0000 -0.7298260281
O   O61       1.0  0.93650  0.61143  0.52365  1.0000 -0.5765992279
O   O62       1.0  0.43650  0.88857  0.47635  1.0000 -0.5765992279
O   O63       1.0  0.43650  0.38857  0.02365  1.0000 -0.5765992279
O   O64       1.0  0.93650  0.11143  0.97635  1.0000 -0.5765992279
