# DDEC6 charges by PACMAN v1.1 (https://github.com/mtap-research/PACMAN-charge/)
data_2010[Mn][nan]3[FSR]6
_chemical_formula_sum              "Mn4 H32 C52 N4 O20"
_cell_length_a       12.7112
_cell_length_b       12.7112
_cell_length_c       14.285
_cell_angle_alpha    60.9416
_cell_angle_beta     119.058
_cell_angle_gamma    97.9203

_symmetry_space_group_name_H-M    "P 1"
_symmetry_Int_Tables_number       1

loop_
  _symmetry_equiv_pos_as_xyz
  'x, y, z'

loop_
  _atom_site_type_symbol
  _atom_site_label
  _atom_site_symmetry_multiplicity
  _atom_site_fract_x
  _atom_site_fract_y
  _atom_site_fract_z
  _atom_site_occupancy
  _atom_site_charge
Mn  Mn1       1.0  0.00000  0.00000  0.50000  1.0000 1.0461527824
Mn  Mn2       1.0  0.00000  0.00000  0.00000  1.0000 1.0461527824
Mn  Mn3       1.0  0.06269  0.06269  0.25000  1.0000 1.0569233417
Mn  Mn4       1.0  0.93731  0.93731  0.75000  1.0000 1.0569233417
H   H1        1.0  0.38670  0.03930  0.72350  1.0000 0.118435905
H   H2        1.0  0.03930  0.38670  0.77650  1.0000 0.118435905
H   H3        1.0  0.61330  0.96070  0.27650  1.0000 0.118435905
H   H4        1.0  0.96070  0.61330  0.22350  1.0000 0.118435905
H   H5        1.0  0.59350  0.04150  0.82420  1.0000 0.1100613705
H   H6        1.0  0.04150  0.59350  0.67580  1.0000 0.1100613705
H   H7        1.0  0.40650  0.95850  0.17580  1.0000 0.1100613705
H   H8        1.0  0.95850  0.40650  0.32420  1.0000 0.1100613705
H   H9        1.0  0.60850  0.12770  0.52450  1.0000 0.118435905
H   H10       1.0  0.12770  0.60850  0.97550  1.0000 0.118435905
H   H11       1.0  0.39150  0.87230  0.47550  1.0000 0.118435905
H   H12       1.0  0.87230  0.39150  0.02450  1.0000 0.118435905
H   H13       1.0  0.40190  0.13190  0.42190  1.0000 0.1307064214
H   H14       1.0  0.13190  0.40190  0.07810  1.0000 0.1307064214
H   H15       1.0  0.59810  0.86810  0.57810  1.0000 0.1307064214
H   H16       1.0  0.86810  0.59810  0.92190  1.0000 0.1307064214
H   H17       1.0  0.82300  0.22560  0.52440  1.0000 0.1390850226
H   H18       1.0  0.22560  0.82300  0.97560  1.0000 0.1390850226
H   H19       1.0  0.17700  0.77440  0.47560  1.0000 0.1390850226
H   H20       1.0  0.77440  0.17700  0.02440  1.0000 0.1390850226
H   H21       1.0  0.82400  0.42640  0.47370  1.0000 0.1390850226
H   H22       1.0  0.42640  0.82400  0.02630  1.0000 0.1390850226
H   H23       1.0  0.17600  0.57360  0.52630  1.0000 0.1390850226
H   H24       1.0  0.57360  0.17600  0.97370  1.0000 0.1390850226
H   H25       1.0  0.17280  0.39200  0.57950  1.0000 0.1390850226
H   H26       1.0  0.39200  0.17280  0.92050  1.0000 0.1390850226
H   H27       1.0  0.82720  0.60800  0.42050  1.0000 0.1390850226
H   H28       1.0  0.60800  0.82720  0.07950  1.0000 0.1390850226
H   H29       1.0  0.16560  0.19320  0.62230  1.0000 0.1307064214
H   H30       1.0  0.19320  0.16560  0.87770  1.0000 0.1307064214
H   H31       1.0  0.83440  0.80680  0.37770  1.0000 0.1390850226
H   H32       1.0  0.80680  0.83440  0.12230  1.0000 0.1390850226
C   C1        1.0  0.23980  0.07420  0.49680  1.0000 0.5916427567
C   C2        1.0  0.07420  0.23980  0.00320  1.0000 0.5916427567
C   C3        1.0  0.76020  0.92580  0.50320  1.0000 0.5916427567
C   C4        1.0  0.92580  0.76020  0.99680  1.0000 0.5916427567
C   C5        1.0  0.37310  0.08250  0.56250  1.0000 -0.0165562726
C   C6        1.0  0.08250  0.37310  0.93750  1.0000 -0.0165562726
C   C7        1.0  0.62690  0.91750  0.43750  1.0000 -0.0165562726
C   C8        1.0  0.91750  0.62690  0.06250  1.0000 -0.0165562726
C   C9        1.0  0.43110  0.05690  0.68270  1.0000 -0.1178463002
C   C10       1.0  0.05690  0.43110  0.81730  1.0000 -0.1178463002
C   C11       1.0  0.56890  0.94310  0.31730  1.0000 -0.1178463002
C   C12       1.0  0.94310  0.56890  0.18270  1.0000 -0.1178463002
C   C13       1.0  0.55560  0.05740  0.74340  1.0000 -0.1178463002
C   C14       1.0  0.05740  0.55560  0.75660  1.0000 -0.1178463002
C   C15       1.0  0.44440  0.94260  0.25660  1.0000 -0.1178463002
C   C16       1.0  0.94260  0.44440  0.24340  1.0000 -0.1178463002
C   C17       1.0  0.62350  0.08090  0.68690  1.0000 -0.0120984477
C   C18       1.0  0.08090  0.62350  0.81310  1.0000 -0.0120984477
C   C19       1.0  0.37650  0.91910  0.31310  1.0000 -0.0120984477
C   C20       1.0  0.91910  0.37650  0.18690  1.0000 -0.0120984477
C   C21       1.0  0.56420  0.10940  0.56550  1.0000 -0.1058651891
C   C22       1.0  0.10940  0.56420  0.93450  1.0000 -0.1058651891
C   C23       1.0  0.43580  0.89060  0.43450  1.0000 -0.1058651891
C   C24       1.0  0.89060  0.43580  0.06550  1.0000 -0.1058651891
C   C25       1.0  0.44030  0.11110  0.50420  1.0000 -0.1011104484
C   C26       1.0  0.11110  0.44030  0.99580  1.0000 -0.1011104484
C   C27       1.0  0.55970  0.88890  0.49580  1.0000 -0.1011104484
C   C28       1.0  0.88890  0.55970  0.00420  1.0000 -0.1011104484
C   C29       1.0  0.76040  0.06960  0.75580  1.0000 0.5916427567
C   C30       1.0  0.06960  0.76040  0.74420  1.0000 0.5916427567
C   C31       1.0  0.23960  0.93040  0.24420  1.0000 0.5916427567
C   C32       1.0  0.93040  0.23960  0.25580  1.0000 0.5916427567
C   C33       1.0  0.89490  0.25970  0.53560  1.0000 -0.0120984477
C   C34       1.0  0.25970  0.89490  0.96440  1.0000 -0.0120984477
C   C35       1.0  0.10510  0.74030  0.46440  1.0000 -0.0120984477
C   C36       1.0  0.74030  0.10510  0.03560  1.0000 -0.0120984477
C   C37       1.0  0.89530  0.38050  0.50450  1.0000 -0.189882207
C   C38       1.0  0.38050  0.89530  0.99550  1.0000 -0.189882207
C   C39       1.0  0.10470  0.61950  0.49550  1.0000 -0.189882207
C   C40       1.0  0.61950  0.10470  0.00450  1.0000 -0.189882207
C   C41       1.0  0.99890  0.43450  0.51790  1.0000 0.0915552421
C   C42       1.0  0.43450  0.99890  0.98210  1.0000 0.0915552421
C   C43       1.0  0.00110  0.56550  0.48210  1.0000 0.0915552421
C   C44       1.0  0.56550  0.00110  0.01790  1.0000 0.0915552421
C   C45       1.0  0.09950  0.36050  0.56560  1.0000 -0.1960662038
C   C46       1.0  0.36050  0.09950  0.93440  1.0000 -0.1960662038
C   C47       1.0  0.90050  0.63950  0.43440  1.0000 -0.1960662038
C   C48       1.0  0.63950  0.90050  0.06560  1.0000 -0.1960662038
C   C49       1.0  0.09600  0.24020  0.59400  1.0000 -0.0420291864
C   C50       1.0  0.24020  0.09600  0.90600  1.0000 -0.0420291864
C   C51       1.0  0.90400  0.75980  0.40600  1.0000 -0.0420291864
C   C52       1.0  0.75980  0.90400  0.09400  1.0000 -0.0420291864
N   N1        1.0  0.99460  0.19160  0.58110  1.0000 0.3065278648
N   N2        1.0  0.19160  0.99460  0.91890  1.0000 0.3065278648
N   N3        1.0  0.00540  0.80840  0.41890  1.0000 0.3065278648
N   N4        1.0  0.80840  0.00540  0.08110  1.0000 0.3065278648
O   O1        1.0  0.18540  0.03340  0.55950  1.0000 -0.5653555275
O   O2        1.0  0.03340  0.18540  0.94050  1.0000 -0.5653555275
O   O3        1.0  0.81460  0.96660  0.44050  1.0000 -0.5653555275
O   O4        1.0  0.96660  0.81460  0.05950  1.0000 -0.5653555275
O   O5        1.0  0.19270  0.10670  0.38530  1.0000 -0.5593525053
O   O6        1.0  0.10670  0.19270  0.11470  1.0000 -0.5593525053
O   O7        1.0  0.80730  0.89330  0.61470  1.0000 -0.5593525053
O   O8        1.0  0.89330  0.80730  0.88530  1.0000 -0.5593525053
O   O9        1.0  0.80920  0.05300  0.86270  1.0000 -0.5400765122
O   O10       1.0  0.05300  0.80920  0.63730  1.0000 -0.5400765122
O   O11       1.0  0.19080  0.94700  0.13730  1.0000 -0.5400765122
O   O12       1.0  0.94700  0.19080  0.36270  1.0000 -0.5400765122
O   O13       1.0  0.81578  0.07578  0.70090  1.0000 -0.5771888972
O   O14       1.0  0.07578  0.81578  0.79910  1.0000 -0.5771888972
O   O15       1.0  0.18422  0.92422  0.29910  1.0000 -0.5771888972
O   O16       1.0  0.92422  0.18422  0.20090  1.0000 -0.5771888972
O   O17       1.0  0.99420  0.07380  0.61380  1.0000 -0.5093246282
O   O18       1.0  0.07380  0.99420  0.88620  1.0000 -0.5093246282
O   O19       1.0  0.00580  0.92620  0.38620  1.0000 -0.5093246282
O   O20       1.0  0.92620  0.00580  0.11380  1.0000 -0.5093246282
