# DDEC6 charges by PACMAN v1.1 (https://github.com/mtap-research/PACMAN-charge/)
data_2010[Zn][pcu]3[FSR]28
_chemical_formula_sum              "Zn2 H48 C52 N14"
_cell_length_a       13.6774
_cell_length_b       13.6774
_cell_length_c       8.7957
_cell_angle_alpha    82.8123
_cell_angle_beta     97.1877
_cell_angle_gamma    85.6061

_symmetry_space_group_name_H-M    "P 1"
_symmetry_Int_Tables_number       1

loop_
  _symmetry_equiv_pos_as_xyz
  'x, y, z'

loop_
  _atom_site_type_symbol
  _atom_site_label
  _atom_site_symmetry_multiplicity
  _atom_site_fract_x
  _atom_site_fract_y
  _atom_site_fract_z
  _atom_site_occupancy
  _atom_site_charge
Zn  Zn1       1.0  0.32406  0.32406  0.75000  1.0000 0.6516353517
Zn  Zn2       1.0  0.67594  0.67594  0.25000  1.0000 0.6516353517
H   H1        1.0  0.42480  0.50580  0.60510  1.0000 0.097782241
H   H2        1.0  0.50580  0.42480  0.89490  1.0000 0.097782241
H   H3        1.0  0.42170  0.67430  0.58500  1.0000 0.1265406638
H   H4        1.0  0.67430  0.42170  0.91500  1.0000 0.1265406638
H   H5        1.0  0.17710  0.67430  0.78750  1.0000 0.1265406638
H   H6        1.0  0.67430  0.17710  0.71250  1.0000 0.1265406638
H   H7        1.0  0.19470  0.50630  0.81860  1.0000 0.0937236707
H   H8        1.0  0.50630  0.19470  0.68140  1.0000 0.0937236707
H   H9        1.0  0.33160  0.83080  0.58390  1.0000 0.1109757583
H   H10       1.0  0.83080  0.33160  0.91610  1.0000 0.1109757583
H   H11       1.0  0.22570  0.83390  0.63410  1.0000 0.1109757583
H   H12       1.0  0.83390  0.22570  0.86590  1.0000 0.1109757583
H   H13       1.0  0.39910  0.82010  0.83490  1.0000 0.1192602561
H   H14       1.0  0.82010  0.39910  0.66510  1.0000 0.1192602561
H   H15       1.0  0.29340  0.82360  0.88480  1.0000 0.1192602561
H   H16       1.0  0.82360  0.29340  0.61520  1.0000 0.1192602561
H   H17       1.0  0.25570  0.16350  0.56850  1.0000 0.097782241
H   H18       1.0  0.16350  0.25570  0.93150  1.0000 0.097782241
H   H19       1.0  0.25260  0.99580  0.57630  1.0000 0.1265406638
H   H20       1.0  0.99580  0.25260  0.92370  1.0000 0.1265406638
H   H21       1.0  0.39580  0.96260  0.00550  1.0000 0.1192602561
H   H22       1.0  0.96260  0.39580  0.49450  1.0000 0.1265406638
H   H23       1.0  0.39420  0.13160  0.98640  1.0000 0.097782241
H   H24       1.0  0.13160  0.39420  0.51360  1.0000 0.097782241
H   H25       1.0  0.57520  0.49420  0.39490  1.0000 0.097782241
H   H26       1.0  0.49420  0.57520  0.10510  1.0000 0.097782241
H   H27       1.0  0.57830  0.32570  0.41500  1.0000 0.1265406638
H   H28       1.0  0.32570  0.57830  0.08500  1.0000 0.1265406638
H   H29       1.0  0.82290  0.32570  0.21250  1.0000 0.1265406638
H   H30       1.0  0.32570  0.82290  0.28750  1.0000 0.1265406638
H   H31       1.0  0.80530  0.49370  0.18140  1.0000 0.0937236707
H   H32       1.0  0.49370  0.80530  0.31860  1.0000 0.0937236707
H   H33       1.0  0.66840  0.16920  0.41610  1.0000 0.1109757583
H   H34       1.0  0.16920  0.66840  0.08390  1.0000 0.1109757583
H   H35       1.0  0.77430  0.16610  0.36590  1.0000 0.1109757583
H   H36       1.0  0.16610  0.77430  0.13410  1.0000 0.1109757583
H   H37       1.0  0.60090  0.17990  0.16510  1.0000 0.1192602561
H   H38       1.0  0.17990  0.60090  0.33490  1.0000 0.1192602561
H   H39       1.0  0.70660  0.17640  0.11520  1.0000 0.1192602561
H   H40       1.0  0.17640  0.70660  0.38480  1.0000 0.1192602561
H   H41       1.0  0.74430  0.83650  0.43150  1.0000 0.097782241
H   H42       1.0  0.83650  0.74430  0.06850  1.0000 0.097782241
H   H43       1.0  0.74740  0.00420  0.42370  1.0000 0.1265406638
H   H44       1.0  0.00420  0.74740  0.07630  1.0000 0.1265406638
H   H45       1.0  0.60420  0.03740  0.99450  1.0000 0.1265406638
H   H46       1.0  0.03740  0.60420  0.50550  1.0000 0.1265406638
H   H47       1.0  0.60580  0.86840  0.01360  1.0000 0.097782241
H   H48       1.0  0.86840  0.60580  0.48640  1.0000 0.097782241
C   C1        1.0  0.34580  0.34880  0.38190  1.0000 0.4280835791
C   C2        1.0  0.34880  0.34580  0.11810  1.0000 0.4280835791
C   C3        1.0  0.37520  0.54020  0.64610  1.0000 0.0527984094
C   C4        1.0  0.54020  0.37520  0.85390  1.0000 0.0527984094
C   C5        1.0  0.37310  0.64210  0.63100  1.0000 -0.210017194
C   C6        1.0  0.64210  0.37310  0.86900  1.0000 -0.210017194
C   C7        1.0  0.29980  0.69480  0.68370  1.0000 0.1479078225
C   C8        1.0  0.69480  0.29980  0.81630  1.0000 0.1479078225
C   C9        1.0  0.23010  0.64130  0.75250  1.0000 -0.2293137233
C   C10       1.0  0.64130  0.23010  0.74750  1.0000 -0.2293137233
C   C11       1.0  0.24030  0.54030  0.76810  1.0000 0.0527984094
C   C12       1.0  0.54030  0.24030  0.73190  1.0000 0.0527984094
C   C13       1.0  0.29420  0.80780  0.66580  1.0000 -0.2521501155
C   C14       1.0  0.80780  0.29420  0.83420  1.0000 -0.2521501155
C   C15       1.0  0.33090  0.84730  0.80340  1.0000 -0.2521501155
C   C16       1.0  0.84730  0.33090  0.69660  1.0000 -0.2521501155
C   C17       1.0  0.28510  0.12270  0.65750  1.0000 0.0772765457
C   C18       1.0  0.12270  0.28510  0.84250  1.0000 0.0772765457
C   C19       1.0  0.28320  0.02180  0.66100  1.0000 -0.2203768931
C   C20       1.0  0.02180  0.28320  0.83900  1.0000 -0.2203768931
C   C21       1.0  0.32740  0.95900  0.79270  1.0000 0.1575834258
C   C22       1.0  0.95900  0.32740  0.70730  1.0000 0.1575834258
C   C23       1.0  0.36750  0.00190  0.91410  1.0000 -0.2293137233
C   C24       1.0  0.00190  0.36750  0.58590  1.0000 -0.2293137233
C   C25       1.0  0.36630  0.10390  0.90190  1.0000 0.0527984094
C   C26       1.0  0.10390  0.36630  0.59810  1.0000 0.0527984094
C   C27       1.0  0.65420  0.65120  0.61810  1.0000 0.4280835791
C   C28       1.0  0.65120  0.65420  0.88190  1.0000 0.4280835791
C   C29       1.0  0.62480  0.45980  0.35390  1.0000 0.0527984094
C   C30       1.0  0.45980  0.62480  0.14610  1.0000 0.0527984094
C   C31       1.0  0.62690  0.35790  0.36900  1.0000 -0.210017194
C   C32       1.0  0.35790  0.62690  0.13100  1.0000 -0.210017194
C   C33       1.0  0.70020  0.30520  0.31630  1.0000 0.1479078225
C   C34       1.0  0.30520  0.70020  0.18370  1.0000 0.1479078225
C   C35       1.0  0.76990  0.35870  0.24750  1.0000 -0.2293137233
C   C36       1.0  0.35870  0.76990  0.25250  1.0000 -0.2293137233
C   C37       1.0  0.75970  0.45970  0.23190  1.0000 0.0527984094
C   C38       1.0  0.45970  0.75970  0.26810  1.0000 0.0527984094
C   C39       1.0  0.70580  0.19220  0.33420  1.0000 -0.2521501155
C   C40       1.0  0.19220  0.70580  0.16580  1.0000 -0.2521501155
C   C41       1.0  0.66910  0.15270  0.19660  1.0000 -0.2521501155
C   C42       1.0  0.15270  0.66910  0.30340  1.0000 -0.2521501155
C   C43       1.0  0.71490  0.87730  0.34250  1.0000 0.0772765457
C   C44       1.0  0.87730  0.71490  0.15750  1.0000 0.0772765457
C   C45       1.0  0.71680  0.97820  0.33900  1.0000 -0.2203768931
C   C46       1.0  0.97820  0.71680  0.16100  1.0000 -0.2203768931
C   C47       1.0  0.67260  0.04100  0.20730  1.0000 0.1575834258
C   C48       1.0  0.04100  0.67260  0.29270  1.0000 0.1575834258
C   C49       1.0  0.63250  0.99810  0.08590  1.0000 -0.2293137233
C   C50       1.0  0.99810  0.63250  0.41410  1.0000 -0.2293137233
C   C51       1.0  0.63370  0.89610  0.09810  1.0000 0.0527984094
C   C52       1.0  0.89610  0.63370  0.40190  1.0000 0.0527984094
N   N1        1.0  0.32997  0.33377  0.50390  1.0000 -0.5595244587
N   N2        1.0  0.33377  0.32997  0.99610  1.0000 -0.5595244587
N   N3        1.0  0.37620  0.37620  0.25000  1.0000 -0.4649886162
N   N4        1.0  0.31107  0.48795  0.71560  1.0000 -0.2386039169
N   N5        1.0  0.48795  0.31107  0.78440  1.0000 -0.2386039169
N   N6        1.0  0.32645  0.16455  0.77340  1.0000 -0.2203768931
N   N7        1.0  0.16455  0.32645  0.72660  1.0000 -0.2293137233
N   N8        1.0  0.67003  0.66623  0.49610  1.0000 -0.5595244587
N   N9        1.0  0.66623  0.67003  0.00390  1.0000 -0.5595244587
N   N10       1.0  0.62380  0.62380  0.75000  1.0000 -0.4665634305
N   N11       1.0  0.68893  0.51205  0.28440  1.0000 -0.2386039169
N   N12       1.0  0.51205  0.68893  0.21560  1.0000 -0.2386039169
N   N13       1.0  0.67355  0.83545  0.22660  1.0000 -0.2203768931
N   N14       1.0  0.83545  0.67355  0.27340  1.0000 -0.2203768931
