# DDEC6 charges by PACMAN v1.1 (https://github.com/mtap-research/PACMAN-charge/)
data_2010[TbAg][nan]3[FSR]1
_chemical_formula_sum              "Tb8 Ag8 H64 C144 N32 O64"
_cell_length_a       8.5112
_cell_length_b       17.774
_cell_length_c       25.339
_cell_angle_alpha    90
_cell_angle_beta     90
_cell_angle_gamma    90

_symmetry_space_group_name_H-M    "P 1"
_symmetry_Int_Tables_number       1

loop_
  _symmetry_equiv_pos_as_xyz
  'x, y, z'

loop_
  _atom_site_type_symbol
  _atom_site_label
  _atom_site_symmetry_multiplicity
  _atom_site_fract_x
  _atom_site_fract_y
  _atom_site_fract_z
  _atom_site_occupancy
  _atom_site_charge
Tb  Tb1       1.0  0.83538  0.78287  0.52407  1.0000 2.0831745596
Tb  Tb2       1.0  0.33538  0.71713  0.47593  1.0000 2.0831745596
Tb  Tb3       1.0  0.33538  0.21713  0.02407  1.0000 2.0831745596
Tb  Tb4       1.0  0.83538  0.28287  0.97593  1.0000 2.0831745596
Tb  Tb5       1.0  0.66462  0.78287  0.97593  1.0000 2.0831745596
Tb  Tb6       1.0  0.16462  0.71713  0.02407  1.0000 2.0831745596
Tb  Tb7       1.0  0.16462  0.21713  0.47593  1.0000 2.0831745596
Tb  Tb8       1.0  0.66462  0.28287  0.52407  1.0000 2.0831745596
Ag  Ag1       1.0  0.53838  0.94960  0.22700  1.0000 0.2937040658
Ag  Ag2       1.0  0.03838  0.55040  0.77300  1.0000 0.2937040658
Ag  Ag3       1.0  0.03838  0.05040  0.72700  1.0000 0.2937040658
Ag  Ag4       1.0  0.53838  0.44960  0.27300  1.0000 0.2937040658
Ag  Ag5       1.0  0.96162  0.94960  0.27300  1.0000 0.2937040658
Ag  Ag6       1.0  0.46162  0.55040  0.72700  1.0000 0.2937040658
Ag  Ag7       1.0  0.46162  0.05040  0.77300  1.0000 0.2937040658
Ag  Ag8       1.0  0.96162  0.44960  0.22700  1.0000 0.2937040658
H   H1        1.0  0.93940  0.35690  0.40460  1.0000 0.3176914037
H   H2        1.0  0.43940  0.14310  0.59540  1.0000 0.3176914037
H   H3        1.0  0.43940  0.64310  0.90460  1.0000 0.3176914037
H   H4        1.0  0.93940  0.85690  0.09540  1.0000 0.3176914037
H   H5        1.0  0.28850  0.10550  0.37030  1.0000 0.3176914037
H   H6        1.0  0.78850  0.39450  0.62970  1.0000 0.3176914037
H   H7        1.0  0.78850  0.89450  0.87030  1.0000 0.3176914037
H   H8        1.0  0.28850  0.60550  0.12970  1.0000 0.3176914037
H   H9        1.0  0.59820  0.58150  0.36110  1.0000 0.1379339474
H   H10       1.0  0.09820  0.91850  0.63890  1.0000 0.1379339474
H   H11       1.0  0.09820  0.41850  0.86110  1.0000 0.1379339474
H   H12       1.0  0.59820  0.08150  0.13890  1.0000 0.1379339474
H   H13       1.0  0.75280  0.32560  0.33850  1.0000 0.1296335788
H   H14       1.0  0.25280  0.17440  0.66150  1.0000 0.1296335788
H   H15       1.0  0.25280  0.67440  0.83850  1.0000 0.1296335788
H   H16       1.0  0.75280  0.82560  0.16150  1.0000 0.1296335788
H   H17       1.0  0.03410  0.49210  0.45500  1.0000 0.1379339474
H   H18       1.0  0.53410  0.00790  0.54500  1.0000 0.1379339474
H   H19       1.0  0.53410  0.50790  0.95500  1.0000 0.1379339474
H   H20       1.0  0.03410  0.99210  0.04500  1.0000 0.1379339474
H   H21       1.0  0.12040  0.99770  0.43300  1.0000 0.164441082
H   H22       1.0  0.62040  0.50230  0.56700  1.0000 0.164441082
H   H23       1.0  0.62040  0.00230  0.93300  1.0000 0.164441082
H   H24       1.0  0.12040  0.49770  0.06700  1.0000 0.164441082
H   H25       1.0  0.44870  0.09920  0.29470  1.0000 0.1296335788
H   H26       1.0  0.94870  0.40080  0.70530  1.0000 0.1296335788
H   H27       1.0  0.94870  0.90080  0.79470  1.0000 0.1296335788
H   H28       1.0  0.44870  0.59920  0.20530  1.0000 0.1296335788
H   H29       1.0  0.30980  0.83930  0.29800  1.0000 0.1484758717
H   H30       1.0  0.80980  0.66070  0.70200  1.0000 0.1484758717
H   H31       1.0  0.80980  0.16070  0.79800  1.0000 0.1484758717
H   H32       1.0  0.30980  0.33930  0.20200  1.0000 0.1484758717
H   H33       1.0  0.56060  0.35690  0.09540  1.0000 0.3176914037
H   H34       1.0  0.06060  0.14310  0.90460  1.0000 0.3176914037
H   H35       1.0  0.06060  0.64310  0.59540  1.0000 0.3176914037
H   H36       1.0  0.56060  0.85690  0.40460  1.0000 0.3176914037
H   H37       1.0  0.21150  0.10550  0.12970  1.0000 0.3176914037
H   H38       1.0  0.71150  0.39450  0.87030  1.0000 0.3176914037
H   H39       1.0  0.71150  0.89450  0.62970  1.0000 0.3176914037
H   H40       1.0  0.21150  0.60550  0.37030  1.0000 0.3176914037
H   H41       1.0  0.90180  0.58150  0.13890  1.0000 0.1379339474
H   H42       1.0  0.40180  0.91850  0.86110  1.0000 0.1379339474
H   H43       1.0  0.40180  0.41850  0.63890  1.0000 0.1379339474
H   H44       1.0  0.90180  0.08150  0.36110  1.0000 0.1379339474
H   H45       1.0  0.74720  0.32560  0.16150  1.0000 0.1296335788
H   H46       1.0  0.24720  0.17440  0.83850  1.0000 0.1296335788
H   H47       1.0  0.24720  0.67440  0.66150  1.0000 0.1296335788
H   H48       1.0  0.74720  0.82560  0.33850  1.0000 0.1296335788
H   H49       1.0  0.46590  0.49210  0.04500  1.0000 0.1379339474
H   H50       1.0  0.96590  0.00790  0.95500  1.0000 0.1379339474
H   H51       1.0  0.96590  0.50790  0.54500  1.0000 0.1379339474
H   H52       1.0  0.46590  0.99210  0.45500  1.0000 0.1379339474
H   H53       1.0  0.37960  0.99770  0.06700  1.0000 0.164441082
H   H54       1.0  0.87960  0.50230  0.93300  1.0000 0.164441082
H   H55       1.0  0.87960  0.00230  0.56700  1.0000 0.164441082
H   H56       1.0  0.37960  0.49770  0.43300  1.0000 0.164441082
H   H57       1.0  0.05130  0.09920  0.20530  1.0000 0.1296335788
H   H58       1.0  0.55130  0.40080  0.79470  1.0000 0.1296335788
H   H59       1.0  0.55130  0.90080  0.70530  1.0000 0.1296335788
H   H60       1.0  0.05130  0.59920  0.29470  1.0000 0.1296335788
H   H61       1.0  0.19020  0.83930  0.20200  1.0000 0.1484758717
H   H62       1.0  0.69020  0.66070  0.79800  1.0000 0.1484758717
H   H63       1.0  0.69020  0.16070  0.70200  1.0000 0.1484758717
H   H64       1.0  0.19020  0.33930  0.29800  1.0000 0.1484758717
C   C1        1.0  0.69120  0.68630  0.42590  1.0000 0.6512633295
C   C2        1.0  0.19120  0.81370  0.57410  1.0000 0.6512633295
C   C3        1.0  0.19120  0.31370  0.92590  1.0000 0.6512633295
C   C4        1.0  0.69120  0.18630  0.07410  1.0000 0.6512633295
C   C5        1.0  0.75840  0.60930  0.41690  1.0000 -0.0501758947
C   C6        1.0  0.25840  0.89070  0.58310  1.0000 -0.0501758947
C   C7        1.0  0.25840  0.39070  0.91690  1.0000 -0.0501758947
C   C8        1.0  0.75840  0.10930  0.08310  1.0000 -0.0501758947
C   C9        1.0  0.68350  0.56370  0.38034  1.0000 -0.1792000762
C   C10       1.0  0.18350  0.93630  0.61966  1.0000 -0.1792000762
C   C11       1.0  0.18350  0.43630  0.88034  1.0000 -0.1792000762
C   C12       1.0  0.68350  0.06370  0.11966  1.0000 -0.1792000762
C   C13       1.0  0.73810  0.49090  0.37293  1.0000 0.1193665744
C   C14       1.0  0.23810  0.00910  0.62707  1.0000 0.1193665744
C   C15       1.0  0.23810  0.50910  0.87293  1.0000 0.1193665744
C   C16       1.0  0.73810  0.99090  0.12707  1.0000 0.1193665744
C   C17       1.0  0.76690  0.37290  0.35346  1.0000 0.1783428763
C   C18       1.0  0.26690  0.12710  0.64654  1.0000 0.1783428763
C   C19       1.0  0.26690  0.62710  0.85346  1.0000 0.1783428763
C   C20       1.0  0.76690  0.87290  0.14654  1.0000 0.1783428763
C   C21       1.0  0.86050  0.46330  0.40382  1.0000 0.1484758717
C   C22       1.0  0.36050  0.03670  0.59618  1.0000 0.1484758717
C   C23       1.0  0.36050  0.53670  0.90382  1.0000 0.1484758717
C   C24       1.0  0.86050  0.96330  0.09618  1.0000 0.1484758717
C   C25       1.0  0.94530  0.50970  0.43756  1.0000 -0.193580181
C   C26       1.0  0.44530  0.99030  0.56244  1.0000 -0.193580181
C   C27       1.0  0.44530  0.49030  0.93756  1.0000 -0.193580181
C   C28       1.0  0.94530  0.00970  0.06244  1.0000 -0.193580181
C   C29       1.0  0.89410  0.58280  0.44442  1.0000 -0.0404739135
C   C30       1.0  0.39410  0.91720  0.55558  1.0000 -0.0404739135
C   C31       1.0  0.39410  0.41720  0.94442  1.0000 -0.0404739135
C   C32       1.0  0.89410  0.08280  0.05558  1.0000 -0.0404739135
C   C33       1.0  0.98940  0.62880  0.48251  1.0000 0.6512633295
C   C34       1.0  0.48940  0.87120  0.51749  1.0000 0.6512633295
C   C35       1.0  0.48940  0.37120  0.98251  1.0000 0.6512633295
C   C36       1.0  0.98940  0.12880  0.01749  1.0000 0.6512633295
C   C37       1.0  0.04830  0.85520  0.45374  1.0000 0.5993439661
C   C38       1.0  0.54830  0.64480  0.54626  1.0000 0.5993439661
C   C39       1.0  0.54830  0.14480  0.95374  1.0000 0.5993439661
C   C40       1.0  0.04830  0.35520  0.04626  1.0000 0.5993439661
C   C41       1.0  0.13300  0.88900  0.40797  1.0000 -0.0501758947
C   C42       1.0  0.63300  0.61100  0.59203  1.0000 -0.0501758947
C   C43       1.0  0.63300  0.11100  0.90797  1.0000 -0.0501758947
C   C44       1.0  0.13300  0.38900  0.09203  1.0000 -0.0501758947
C   C45       1.0  0.16030  0.96620  0.40702  1.0000 -0.1792000762
C   C46       1.0  0.66030  0.53380  0.59298  1.0000 -0.1792000762
C   C47       1.0  0.66030  0.03380  0.90702  1.0000 -0.1792000762
C   C48       1.0  0.16030  0.46620  0.09298  1.0000 -0.1792000762
C   C49       1.0  0.25050  0.99420  0.36516  1.0000 0.1193665744
C   C50       1.0  0.75050  0.50580  0.63484  1.0000 0.1193665744
C   C51       1.0  0.75050  0.00580  0.86516  1.0000 0.1193665744
C   C52       1.0  0.25050  0.49420  0.13484  1.0000 0.1193665744
C   C53       1.0  0.39660  0.05880  0.31018  1.0000 0.1783428763
C   C54       1.0  0.89660  0.44120  0.68982  1.0000 0.1783428763
C   C55       1.0  0.89660  0.94120  0.81018  1.0000 0.1783428763
C   C56       1.0  0.39660  0.55880  0.18982  1.0000 0.1783428763
C   C57       1.0  0.30990  0.94680  0.32576  1.0000 0.1126734086
C   C58       1.0  0.80990  0.55320  0.67424  1.0000 0.1126734086
C   C59       1.0  0.80990  0.05320  0.82576  1.0000 0.1126734086
C   C60       1.0  0.30990  0.44680  0.17424  1.0000 0.1126734086
C   C61       1.0  0.27560  0.87010  0.32538  1.0000 -0.2300139728
C   C62       1.0  0.77560  0.62990  0.67462  1.0000 -0.2300139728
C   C63       1.0  0.77560  0.12990  0.82538  1.0000 -0.2300139728
C   C64       1.0  0.27560  0.37010  0.17462  1.0000 -0.2300139728
C   C65       1.0  0.18920  0.84120  0.36699  1.0000 -0.0404739135
C   C66       1.0  0.68920  0.65880  0.63301  1.0000 -0.0404739135
C   C67       1.0  0.68920  0.15880  0.86699  1.0000 -0.0404739135
C   C68       1.0  0.18920  0.34120  0.13301  1.0000 -0.0404739135
C   C69       1.0  0.15190  0.75820  0.36516  1.0000 0.6112672047
C   C70       1.0  0.65190  0.74180  0.63484  1.0000 0.6112672047
C   C71       1.0  0.65190  0.24180  0.86516  1.0000 0.6112672047
C   C72       1.0  0.15190  0.25820  0.13484  1.0000 0.6112672047
C   C73       1.0  0.80880  0.68630  0.07410  1.0000 0.6512633295
C   C74       1.0  0.30880  0.81370  0.92590  1.0000 0.6512633295
C   C75       1.0  0.30880  0.31370  0.57410  1.0000 0.6512633295
C   C76       1.0  0.80880  0.18630  0.42590  1.0000 0.6512633295
C   C77       1.0  0.74160  0.60930  0.08310  1.0000 -0.0501758947
C   C78       1.0  0.24160  0.89070  0.91690  1.0000 -0.0501758947
C   C79       1.0  0.24160  0.39070  0.58310  1.0000 -0.0501758947
C   C80       1.0  0.74160  0.10930  0.41690  1.0000 -0.0501758947
C   C81       1.0  0.81650  0.56370  0.11966  1.0000 -0.1792000762
C   C82       1.0  0.31650  0.93630  0.88034  1.0000 -0.1792000762
C   C83       1.0  0.31650  0.43630  0.61966  1.0000 -0.1792000762
C   C84       1.0  0.81650  0.06370  0.38034  1.0000 -0.1792000762
C   C85       1.0  0.76190  0.49090  0.12707  1.0000 0.1193665744
C   C86       1.0  0.26190  0.00910  0.87293  1.0000 0.1193665744
C   C87       1.0  0.26190  0.50910  0.62707  1.0000 0.1193665744
C   C88       1.0  0.76190  0.99090  0.37293  1.0000 0.1193665744
C   C89       1.0  0.73310  0.37290  0.14654  1.0000 0.1783428763
C   C90       1.0  0.23310  0.12710  0.85346  1.0000 0.1783428763
C   C91       1.0  0.23310  0.62710  0.64654  1.0000 0.1783428763
C   C92       1.0  0.73310  0.87290  0.35346  1.0000 0.1783428763
C   C93       1.0  0.63950  0.46330  0.09618  1.0000 0.1484758717
C   C94       1.0  0.13950  0.03670  0.90382  1.0000 0.1484758717
C   C95       1.0  0.13950  0.53670  0.59618  1.0000 0.1484758717
C   C96       1.0  0.63950  0.96330  0.40382  1.0000 0.1484758717
C   C97       1.0  0.55470  0.50970  0.06244  1.0000 -0.193580181
C   C98       1.0  0.05470  0.99030  0.93756  1.0000 -0.193580181
C   C99       1.0  0.05470  0.49030  0.56244  1.0000 -0.193580181
C   C100      1.0  0.55470  0.00970  0.43756  1.0000 -0.193580181
C   C101      1.0  0.60590  0.58280  0.05558  1.0000 -0.0404739135
C   C102      1.0  0.10590  0.91720  0.94442  1.0000 -0.0404739135
C   C103      1.0  0.10590  0.41720  0.55558  1.0000 -0.0404739135
C   C104      1.0  0.60590  0.08280  0.44442  1.0000 -0.0404739135
C   C105      1.0  0.51060  0.62880  0.01749  1.0000 0.6512633295
C   C106      1.0  0.01060  0.87120  0.98251  1.0000 0.6512633295
C   C107      1.0  0.01060  0.37120  0.51749  1.0000 0.6512633295
C   C108      1.0  0.51060  0.12880  0.48251  1.0000 0.6512633295
C   C109      1.0  0.45170  0.85520  0.04626  1.0000 0.5993439661
C   C110      1.0  0.95170  0.64480  0.95374  1.0000 0.5993439661
C   C111      1.0  0.95170  0.14480  0.54626  1.0000 0.5993439661
C   C112      1.0  0.45170  0.35520  0.45374  1.0000 0.5993439661
C   C113      1.0  0.36700  0.88900  0.09203  1.0000 -0.0501758947
C   C114      1.0  0.86700  0.61100  0.90797  1.0000 -0.0501758947
C   C115      1.0  0.86700  0.11100  0.59203  1.0000 -0.0501758947
C   C116      1.0  0.36700  0.38900  0.40797  1.0000 -0.0501758947
C   C117      1.0  0.33970  0.96620  0.09298  1.0000 -0.1792000762
C   C118      1.0  0.83970  0.53380  0.90702  1.0000 -0.1792000762
C   C119      1.0  0.83970  0.03380  0.59298  1.0000 -0.1792000762
C   C120      1.0  0.33970  0.46620  0.40702  1.0000 -0.1792000762
C   C121      1.0  0.24950  0.99420  0.13484  1.0000 0.1193665744
C   C122      1.0  0.74950  0.50580  0.86516  1.0000 0.1193665744
C   C123      1.0  0.74950  0.00580  0.63484  1.0000 0.1193665744
C   C124      1.0  0.24950  0.49420  0.36516  1.0000 0.1193665744
C   C125      1.0  0.10340  0.05880  0.18982  1.0000 0.1783428763
C   C126      1.0  0.60340  0.44120  0.81018  1.0000 0.1783428763
C   C127      1.0  0.60340  0.94120  0.68982  1.0000 0.1783428763
C   C128      1.0  0.10340  0.55880  0.31018  1.0000 0.1783428763
C   C129      1.0  0.19010  0.94680  0.17424  1.0000 0.1126734086
C   C130      1.0  0.69010  0.55320  0.82576  1.0000 0.1126734086
C   C131      1.0  0.69010  0.05320  0.67424  1.0000 0.1126734086
C   C132      1.0  0.19010  0.44680  0.32576  1.0000 0.1126734086
C   C133      1.0  0.22440  0.87010  0.17462  1.0000 -0.2300139728
C   C134      1.0  0.72440  0.62990  0.82538  1.0000 -0.2300139728
C   C135      1.0  0.72440  0.12990  0.67462  1.0000 -0.2300139728
C   C136      1.0  0.22440  0.37010  0.32538  1.0000 -0.2300139728
C   C137      1.0  0.31080  0.84120  0.13301  1.0000 -0.0404739135
C   C138      1.0  0.81080  0.65880  0.86699  1.0000 -0.0404739135
C   C139      1.0  0.81080  0.15880  0.63301  1.0000 -0.0404739135
C   C140      1.0  0.31080  0.34120  0.36699  1.0000 -0.0404739135
C   C141      1.0  0.34810  0.75820  0.13484  1.0000 0.6112672047
C   C142      1.0  0.84810  0.74180  0.86516  1.0000 0.6112672047
C   C143      1.0  0.84810  0.24180  0.63484  1.0000 0.6112672047
C   C144      1.0  0.34810  0.25820  0.36516  1.0000 0.6112672047
N   N1        1.0  0.68440  0.43300  0.34037  1.0000 -0.3085545233
N   N2        1.0  0.18440  0.06700  0.65963  1.0000 -0.3085545233
N   N3        1.0  0.18440  0.56700  0.84037  1.0000 -0.3085545233
N   N4        1.0  0.68440  0.93300  0.15963  1.0000 -0.3085545233
N   N5        1.0  0.87410  0.38830  0.39103  1.0000 -0.2238643883
N   N6        1.0  0.37410  0.11170  0.60897  1.0000 -0.2238643883
N   N7        1.0  0.37410  0.61170  0.89103  1.0000 -0.2238643883
N   N8        1.0  0.87410  0.88830  0.10897  1.0000 -0.2238643883
N   N9        1.0  0.40320  0.98920  0.29182  1.0000 -0.3085545233
N   N10       1.0  0.90320  0.51080  0.70818  1.0000 -0.3085545233
N   N11       1.0  0.90320  0.01080  0.79182  1.0000 -0.3085545233
N   N12       1.0  0.40320  0.48920  0.20818  1.0000 -0.3085545233
N   N13       1.0  0.30740  0.06480  0.35310  1.0000 -0.2300139728
N   N14       1.0  0.80740  0.43520  0.64690  1.0000 -0.2300139728
N   N15       1.0  0.80740  0.93520  0.85310  1.0000 -0.2300139728
N   N16       1.0  0.30740  0.56480  0.14690  1.0000 -0.2300139728
N   N17       1.0  0.81560  0.43300  0.15963  1.0000 -0.3085545233
N   N18       1.0  0.31560  0.06700  0.84037  1.0000 -0.3085545233
N   N19       1.0  0.31560  0.56700  0.65963  1.0000 -0.3085545233
N   N20       1.0  0.81560  0.93300  0.34037  1.0000 -0.3085545233
N   N21       1.0  0.62590  0.38830  0.10897  1.0000 -0.2238643883
N   N22       1.0  0.12590  0.11170  0.89103  1.0000 -0.2238643883
N   N23       1.0  0.12590  0.61170  0.60897  1.0000 -0.2238643883
N   N24       1.0  0.62590  0.88830  0.39103  1.0000 -0.2238643883
N   N25       1.0  0.09680  0.98920  0.20818  1.0000 -0.3085545233
N   N26       1.0  0.59680  0.51080  0.79182  1.0000 -0.3085545233
N   N27       1.0  0.59680  0.01080  0.70818  1.0000 -0.3085545233
N   N28       1.0  0.09680  0.48920  0.29182  1.0000 -0.3085545233
N   N29       1.0  0.19260  0.06480  0.14690  1.0000 -0.2300139728
N   N30       1.0  0.69260  0.43520  0.85310  1.0000 -0.2300139728
N   N31       1.0  0.69260  0.93520  0.64690  1.0000 -0.2300139728
N   N32       1.0  0.19260  0.56480  0.35310  1.0000 -0.2300139728
O   O1        1.0  0.54400  0.69348  0.41869  1.0000 -0.673624274
O   O2        1.0  0.04400  0.80652  0.58131  1.0000 -0.673624274
O   O3        1.0  0.04400  0.30652  0.91869  1.0000 -0.673624274
O   O4        1.0  0.54400  0.19348  0.08131  1.0000 -0.673624274
O   O5        1.0  0.77880  0.73981  0.44012  1.0000 -0.6611802845
O   O6        1.0  0.27880  0.76019  0.55988  1.0000 -0.6611802845
O   O7        1.0  0.27880  0.26019  0.94012  1.0000 -0.6611802845
O   O8        1.0  0.77880  0.23981  0.05988  1.0000 -0.6611802845
O   O9        1.0  0.92260  0.66016  0.52137  1.0000 -0.6851379021
O   O10       1.0  0.42260  0.83984  0.47863  1.0000 -0.6851379021
O   O11       1.0  0.42260  0.33984  0.02137  1.0000 -0.6851379021
O   O12       1.0  0.92260  0.16016  0.97863  1.0000 -0.6851379021
O   O13       1.0  0.13540  0.62831  0.47544  1.0000 -0.6381607322
O   O14       1.0  0.63540  0.87169  0.52456  1.0000 -0.6381607322
O   O15       1.0  0.63540  0.37169  0.97544  1.0000 -0.6381607322
O   O16       1.0  0.13540  0.12831  0.02456  1.0000 -0.6381607322
O   O17       1.0  0.93780  0.88961  0.47560  1.0000 -0.5850857764
O   O18       1.0  0.43780  0.61039  0.52440  1.0000 -0.5850857764
O   O19       1.0  0.43780  0.11039  0.97560  1.0000 -0.5850857764
O   O20       1.0  0.93780  0.38961  0.02440  1.0000 -0.5850857764
O   O21       1.0  0.08730  0.78937  0.46929  1.0000 -0.7255700795
O   O22       1.0  0.58730  0.71063  0.53071  1.0000 -0.7255700795
O   O23       1.0  0.58730  0.21063  0.96929  1.0000 -0.7255700795
O   O24       1.0  0.08730  0.28937  0.03071  1.0000 -0.7255700795
O   O25       1.0  0.25130  0.71421  0.38836  1.0000 -0.6960897117
O   O26       1.0  0.75130  0.78579  0.61164  1.0000 -0.6960897117
O   O27       1.0  0.75130  0.28579  0.88836  1.0000 -0.6960897117
O   O28       1.0  0.25130  0.21421  0.11164  1.0000 -0.6960897117
O   O29       1.0  0.03910  0.73532  0.33959  1.0000 -0.530889359
O   O30       1.0  0.53910  0.76468  0.66041  1.0000 -0.530889359
O   O31       1.0  0.53910  0.26468  0.83959  1.0000 -0.530889359
O   O32       1.0  0.03910  0.23532  0.16041  1.0000 -0.530889359
O   O33       1.0  0.95600  0.69348  0.08131  1.0000 -0.673624274
O   O34       1.0  0.45600  0.80652  0.91869  1.0000 -0.673624274
O   O35       1.0  0.45600  0.30652  0.58131  1.0000 -0.673624274
O   O36       1.0  0.95600  0.19348  0.41869  1.0000 -0.673624274
O   O37       1.0  0.72120  0.73981  0.05988  1.0000 -0.6611802845
O   O38       1.0  0.22120  0.76019  0.94012  1.0000 -0.6611802845
O   O39       1.0  0.22120  0.26019  0.55988  1.0000 -0.6611802845
O   O40       1.0  0.72120  0.23981  0.44012  1.0000 -0.6611802845
O   O41       1.0  0.57740  0.66016  0.97863  1.0000 -0.6851379021
O   O42       1.0  0.07740  0.83984  0.02137  1.0000 -0.6851379021
O   O43       1.0  0.07740  0.33984  0.47863  1.0000 -0.6851379021
O   O44       1.0  0.57740  0.16016  0.52137  1.0000 -0.6851379021
O   O45       1.0  0.36460  0.62831  0.02456  1.0000 -0.6381607322
O   O46       1.0  0.86460  0.87169  0.97544  1.0000 -0.6381607322
O   O47       1.0  0.86460  0.37169  0.52456  1.0000 -0.6381607322
O   O48       1.0  0.36460  0.12831  0.47544  1.0000 -0.6381607322
O   O49       1.0  0.56220  0.88961  0.02440  1.0000 -0.5850857764
O   O50       1.0  0.06220  0.61039  0.97560  1.0000 -0.5850857764
O   O51       1.0  0.06220  0.11039  0.52440  1.0000 -0.5850857764
O   O52       1.0  0.56220  0.38961  0.47560  1.0000 -0.5850857764
O   O53       1.0  0.41270  0.78937  0.03071  1.0000 -0.7255700795
O   O54       1.0  0.91270  0.71063  0.96929  1.0000 -0.7255700795
O   O55       1.0  0.91270  0.21063  0.53071  1.0000 -0.7255700795
O   O56       1.0  0.41270  0.28937  0.46929  1.0000 -0.7255700795
O   O57       1.0  0.24870  0.71421  0.11164  1.0000 -0.6960897117
O   O58       1.0  0.74870  0.78579  0.88836  1.0000 -0.6960897117
O   O59       1.0  0.74870  0.28579  0.61164  1.0000 -0.6960897117
O   O60       1.0  0.24870  0.21421  0.38836  1.0000 -0.6960897117
O   O61       1.0  0.46090  0.73532  0.16041  1.0000 -0.530889359
O   O62       1.0  0.96090  0.76468  0.83959  1.0000 -0.530889359
O   O63       1.0  0.96090  0.26468  0.66041  1.0000 -0.530889359
O   O64       1.0  0.46090  0.23532  0.33959  1.0000 -0.530889359
