# DDEC6 charges by PACMAN v1.1 (https://github.com/mtap-research/PACMAN-charge/)
data_2010[Zn][pts]3[FSR]2
_chemical_formula_sum              "Zn2 H4 C20 O16"
_cell_length_a       9.59203
_cell_length_b       9.59203
_cell_length_c       11.021
_cell_angle_alpha    88.5796
_cell_angle_beta     91.4204
_cell_angle_gamma    74.0205

_symmetry_space_group_name_H-M    "P 1"
_symmetry_Int_Tables_number       1

loop_
  _symmetry_equiv_pos_as_xyz
  'x, y, z'

loop_
  _atom_site_type_symbol
  _atom_site_label
  _atom_site_symmetry_multiplicity
  _atom_site_fract_x
  _atom_site_fract_y
  _atom_site_fract_z
  _atom_site_occupancy
  _atom_site_charge
Zn  Zn1       1.0  0.50539  0.50539  0.75000  1.0000 0.9424416924
Zn  Zn2       1.0  0.49461  0.49461  0.25000  1.0000 0.9424416924
H   H1        1.0  0.94630  0.53670  0.29500  1.0000 0.1412413621
H   H2        1.0  0.53670  0.94630  0.20500  1.0000 0.1412413621
H   H3        1.0  0.05370  0.46330  0.70500  1.0000 0.1412413621
H   H4        1.0  0.46330  0.05370  0.79500  1.0000 0.1412413621
C   C1        1.0  0.88931  0.49951  0.58030  1.0000 -0.0135524989
C   C2        1.0  0.49951  0.88931  0.91970  1.0000 -0.0135524989
C   C3        1.0  0.11069  0.50049  0.41970  1.0000 -0.0154412763
C   C4        1.0  0.50049  0.11069  0.08030  1.0000 -0.0135524989
C   C5        1.0  0.77594  0.49494  0.67100  1.0000 0.5326888317
C   C6        1.0  0.49494  0.77594  0.82900  1.0000 0.5326888317
C   C7        1.0  0.22406  0.50506  0.32900  1.0000 0.5326888317
C   C8        1.0  0.50506  0.22406  0.17100  1.0000 0.5326888317
C   C9        1.0  0.85721  0.52181  0.45600  1.0000 0.0092717524
C   C10       1.0  0.52181  0.85721  0.04400  1.0000 0.0092717524
C   C11       1.0  0.14279  0.47819  0.54400  1.0000 0.0092717524
C   C12       1.0  0.47819  0.14279  0.95600  1.0000 0.0092717524
C   C13       1.0  0.96789  0.52189  0.37790  1.0000 -0.0764648879
C   C14       1.0  0.52189  0.96789  0.12210  1.0000 -0.0764648879
C   C15       1.0  0.03211  0.47811  0.62210  1.0000 -0.0764648879
C   C16       1.0  0.47811  0.03211  0.87790  1.0000 -0.0764648879
C   C17       1.0  0.70744  0.55144  0.40000  1.0000 0.5465474183
C   C18       1.0  0.55144  0.70744  0.10000  1.0000 0.5465474183
C   C19       1.0  0.29256  0.44856  0.60000  1.0000 0.5465474183
C   C20       1.0  0.44856  0.29256  0.90000  1.0000 0.5465474183
O   O1        1.0  0.65817  0.47679  0.62915  1.0000 -0.4139320746
O   O2        1.0  0.47679  0.65817  0.87085  1.0000 -0.4153491056
O   O3        1.0  0.34183  0.52321  0.37085  1.0000 -0.4139320746
O   O4        1.0  0.52321  0.34183  0.12915  1.0000 -0.4139320746
O   O5        1.0  0.80154  0.50634  0.77995  1.0000 -0.3733500337
O   O6        1.0  0.50634  0.80154  0.72005  1.0000 -0.3758393919
O   O7        1.0  0.19846  0.49366  0.22005  1.0000 -0.3733500337
O   O8        1.0  0.49366  0.19846  0.27995  1.0000 -0.3733500337
O   O9        1.0  0.62569  0.67747  0.39958  1.0000 -0.3920187449
O   O10       1.0  0.67747  0.62569  0.10042  1.0000 -0.3920187449
O   O11       1.0  0.37431  0.32253  0.60042  1.0000 -0.39560611
O   O12       1.0  0.32253  0.37431  0.89958  1.0000 -0.3920187449
O   O13       1.0  0.67740  0.44616  0.34869  1.0000 -0.4293063378
O   O14       1.0  0.44616  0.67740  0.15131  1.0000 -0.4293063378
O   O15       1.0  0.32260  0.55384  0.65131  1.0000 -0.4293063378
O   O16       1.0  0.55384  0.32260  0.84869  1.0000 -0.4293063378
