# DDEC6 charges by PACMAN v1.1 (https://github.com/mtap-research/PACMAN-charge/)
data_2010[Ni][nan]3[FSR]2
_chemical_formula_sum              "Ni6 H84 C120 N12 O32"
_cell_length_a       20.3176
_cell_length_b       20.3176
_cell_length_c       11.2149
_cell_angle_alpha    87.9489
_cell_angle_beta     92.0511
_cell_angle_gamma    49.4696

_symmetry_space_group_name_H-M    "P 1"
_symmetry_Int_Tables_number       1

loop_
  _symmetry_equiv_pos_as_xyz
  'x, y, z'

loop_
  _atom_site_type_symbol
  _atom_site_label
  _atom_site_symmetry_multiplicity
  _atom_site_fract_x
  _atom_site_fract_y
  _atom_site_fract_z
  _atom_site_occupancy
  _atom_site_charge
Ni  Ni1       1.0  0.76073  0.76073  0.25000  1.0000 0.6847595193
Ni  Ni2       1.0  0.23927  0.23927  0.75000  1.0000 0.6847595193
Ni  Ni3       1.0  0.82764  0.22184  0.09149  1.0000 0.729403577
Ni  Ni4       1.0  0.22184  0.82764  0.40851  1.0000 0.729403577
Ni  Ni5       1.0  0.17236  0.77816  0.90851  1.0000 0.729403577
Ni  Ni6       1.0  0.77816  0.17236  0.59149  1.0000 0.729403577
H   H1        1.0  0.83250  0.35570  0.48990  1.0000 0.1101426773
H   H2        1.0  0.35570  0.83250  0.01010  1.0000 0.1101426773
H   H3        1.0  0.16750  0.64430  0.51010  1.0000 0.1101426773
H   H4        1.0  0.64430  0.16750  0.98990  1.0000 0.1101426773
H   H5        1.0  0.88490  0.42530  0.52630  1.0000 0.1206516306
H   H6        1.0  0.42530  0.88490  0.97370  1.0000 0.1206516306
H   H7        1.0  0.11510  0.57470  0.47370  1.0000 0.1206516306
H   H8        1.0  0.57470  0.11510  0.02630  1.0000 0.1206516306
H   H9        1.0  0.93810  0.41670  0.71580  1.0000 0.1400692984
H   H10       1.0  0.41670  0.93810  0.78420  1.0000 0.1400692984
H   H11       1.0  0.06190  0.58330  0.28420  1.0000 0.1400692984
H   H12       1.0  0.58330  0.06190  0.21580  1.0000 0.1400692984
H   H13       1.0  0.03460  0.36300  0.02960  1.0000 0.1400692984
H   H14       1.0  0.36300  0.03460  0.47040  1.0000 0.1400692984
H   H15       1.0  0.96540  0.63700  0.97040  1.0000 0.1400692984
H   H16       1.0  0.63700  0.96540  0.52960  1.0000 0.1400692984
H   H17       1.0  0.98050  0.48550  0.13160  1.0000 0.1206516306
H   H18       1.0  0.48550  0.98050  0.36840  1.0000 0.1206516306
H   H19       1.0  0.01950  0.51450  0.86840  1.0000 0.1206516306
H   H20       1.0  0.51450  0.01950  0.63160  1.0000 0.1206516306
H   H21       1.0  0.73990  0.59210  0.01470  1.0000 0.1206516306
H   H22       1.0  0.59210  0.73990  0.48530  1.0000 0.1206516306
H   H23       1.0  0.26010  0.40790  0.98530  1.0000 0.1206516306
H   H24       1.0  0.40790  0.26010  0.51470  1.0000 0.1206516306
H   H25       1.0  0.79390  0.46770  0.92060  1.0000 0.1322529632
H   H26       1.0  0.46770  0.79390  0.57940  1.0000 0.1322529632
H   H27       1.0  0.20610  0.53230  0.07940  1.0000 0.1322529632
H   H28       1.0  0.53230  0.20610  0.42060  1.0000 0.1322529632
H   H29       1.0  0.89540  0.77020  0.16890  1.0000 0.1101426773
H   H30       1.0  0.77020  0.89540  0.33110  1.0000 0.1101426773
H   H31       1.0  0.10460  0.22980  0.83110  1.0000 0.1101426773
H   H32       1.0  0.22980  0.10460  0.66890  1.0000 0.1101426773
H   H33       1.0  0.90690  0.84990  0.03640  1.0000 0.1400692984
H   H34       1.0  0.84990  0.90690  0.46360  1.0000 0.1400692984
H   H35       1.0  0.09310  0.15010  0.96360  1.0000 0.1400692984
H   H36       1.0  0.15010  0.09310  0.53640  1.0000 0.1400692984
H   H37       1.0  0.66970  0.95970  0.89170  1.0000 0.1322529632
H   H38       1.0  0.95970  0.66970  0.60830  1.0000 0.1322529632
H   H39       1.0  0.33030  0.04030  0.10830  1.0000 0.1322529632
H   H40       1.0  0.04030  0.33030  0.39170  1.0000 0.1322529632
H   H41       1.0  0.66320  0.88040  0.03250  1.0000 0.1206516306
H   H42       1.0  0.88040  0.66320  0.46750  1.0000 0.1206516306
H   H43       1.0  0.33680  0.11960  0.96750  1.0000 0.1206516306
H   H44       1.0  0.11960  0.33680  0.53250  1.0000 0.1206516306
H   H45       1.0  0.86250  0.07310  0.83430  1.0000 0.1101426773
H   H46       1.0  0.07310  0.86250  0.66570  1.0000 0.1101426773
H   H47       1.0  0.13750  0.92690  0.16570  1.0000 0.1101426773
H   H48       1.0  0.92690  0.13750  0.33430  1.0000 0.1101426773
H   H49       1.0  0.86780  0.98160  0.96610  1.0000 0.1400692984
H   H50       1.0  0.98160  0.86780  0.53390  1.0000 0.1400692984
H   H51       1.0  0.13220  0.01840  0.03390  1.0000 0.1400692984
H   H52       1.0  0.01840  0.13220  0.46610  1.0000 0.1400692984
H   H53       1.0  0.71980  0.97900  0.72490  1.0000 0.1322529632
H   H54       1.0  0.97900  0.71980  0.77510  1.0000 0.1322529632
H   H55       1.0  0.28020  0.02100  0.27510  1.0000 0.1322529632
H   H56       1.0  0.02100  0.28020  0.22490  1.0000 0.1322529632
H   H57       1.0  0.72050  0.06890  0.59920  1.0000 0.1101426773
H   H58       1.0  0.06890  0.72050  0.90080  1.0000 0.1101426773
H   H59       1.0  0.27950  0.93110  0.40080  1.0000 0.1101426773
H   H60       1.0  0.93110  0.27950  0.09920  1.0000 0.1101426773
H   H61       1.0  0.75110  0.30530  0.31870  1.0000 0.1206516306
H   H62       1.0  0.30530  0.75110  0.18130  1.0000 0.1206516306
H   H63       1.0  0.24890  0.69470  0.68130  1.0000 0.1206516306
H   H64       1.0  0.69470  0.24890  0.81870  1.0000 0.1206516306
H   H65       1.0  0.63300  0.42980  0.38750  1.0000 0.1400692984
H   H66       1.0  0.42980  0.63300  0.11250  1.0000 0.1400692984
H   H67       1.0  0.36700  0.57020  0.61250  1.0000 0.1400692984
H   H68       1.0  0.57020  0.36700  0.88750  1.0000 0.1400692984
H   H69       1.0  0.56340  0.54040  0.05330  1.0000 0.1400692984
H   H70       1.0  0.54040  0.56340  0.44670  1.0000 0.1400692984
H   H71       1.0  0.43660  0.45960  0.94670  1.0000 0.1400692984
H   H72       1.0  0.45960  0.43660  0.55330  1.0000 0.1400692984
H   H73       1.0  0.68420  0.41180  0.99390  1.0000 0.1206516306
H   H74       1.0  0.41180  0.68420  0.50610  1.0000 0.1206516306
H   H75       1.0  0.31580  0.58820  0.00610  1.0000 0.1206516306
H   H76       1.0  0.58820  0.31580  0.49390  1.0000 0.1206516306
H   H77       1.0  0.94820  0.05940  0.09860  1.0000 0.3437667407
H   H78       1.0  0.05940  0.94820  0.40140  1.0000 0.3437667407
H   H79       1.0  0.05180  0.94060  0.90140  1.0000 0.3437667407
H   H80       1.0  0.94060  0.05180  0.59860  1.0000 0.3437667407
H   H81       1.0  0.95300  0.10220  0.00440  1.0000 0.3508414098
H   H82       1.0  0.10220  0.95300  0.49560  1.0000 0.3508414098
H   H83       1.0  0.04700  0.89780  0.99560  1.0000 0.3508414098
H   H84       1.0  0.89780  0.04700  0.50440  1.0000 0.3508414098
C   C1        1.0  0.82386  0.25506  0.63090  1.0000 0.5405423559
C   C2        1.0  0.25506  0.82386  0.86910  1.0000 0.5405423559
C   C3        1.0  0.17614  0.74494  0.36910  1.0000 0.5405423559
C   C4        1.0  0.74494  0.17614  0.13090  1.0000 0.5405423559
C   C5        1.0  0.89957  0.23851  0.87840  1.0000 0.6098811247
C   C6        1.0  0.23851  0.89957  0.62160  1.0000 0.6098811247
C   C7        1.0  0.10043  0.76149  0.12160  1.0000 0.6098811247
C   C8        1.0  0.76149  0.10043  0.37840  1.0000 0.6098811247
C   C9        1.0  0.85729  0.30089  0.65820  1.0000 -0.0214656836
C   C10       1.0  0.30089  0.85729  0.84180  1.0000 -0.0214656836
C   C11       1.0  0.14271  0.69911  0.34180  1.0000 -0.0214656836
C   C12       1.0  0.69911  0.14271  0.15820  1.0000 -0.0214656836
C   C13       1.0  0.85507  0.35087  0.56650  1.0000 -0.1424536116
C   C14       1.0  0.35087  0.85507  0.93350  1.0000 -0.1424536116
C   C15       1.0  0.14493  0.64913  0.43350  1.0000 -0.1424536116
C   C16       1.0  0.64913  0.14493  0.06650  1.0000 -0.1424536116
C   C17       1.0  0.88569  0.39309  0.58840  1.0000 -0.0797418391
C   C18       1.0  0.39309  0.88569  0.91160  1.0000 -0.0797418391
C   C19       1.0  0.11431  0.60691  0.41160  1.0000 -0.0797418391
C   C20       1.0  0.60691  0.11431  0.08840  1.0000 -0.0797418391
C   C21       1.0  0.91743  0.38803  0.70110  1.0000 -0.2010161921
C   C22       1.0  0.38803  0.91743  0.79890  1.0000 -0.2010161921
C   C23       1.0  0.08257  0.61197  0.29890  1.0000 -0.2010161921
C   C24       1.0  0.61197  0.08257  0.20110  1.0000 -0.2010161921
C   C25       1.0  0.91857  0.33977  0.79360  1.0000 0.2046203606
C   C26       1.0  0.33977  0.91857  0.70640  1.0000 0.2046203606
C   C27       1.0  0.08143  0.66023  0.20640  1.0000 0.2046203606
C   C28       1.0  0.66023  0.08143  0.29360  1.0000 0.2046203606
C   C29       1.0  0.89055  0.29401  0.77450  1.0000 -0.1335291647
C   C30       1.0  0.29401  0.89055  0.72550  1.0000 -0.1335291647
C   C31       1.0  0.10945  0.70599  0.22550  1.0000 -0.1335291647
C   C32       1.0  0.70599  0.10945  0.27450  1.0000 -0.1335291647
C   C33       1.0  0.91940  0.40640  0.96260  1.0000 0.2310045727
C   C34       1.0  0.40640  0.91940  0.53740  1.0000 0.2310045727
C   C35       1.0  0.08060  0.59360  0.03740  1.0000 0.2310045727
C   C36       1.0  0.59360  0.08060  0.46260  1.0000 0.2310045727
C   C37       1.0  0.97509  0.40949  0.02630  1.0000 -0.2115516894
C   C38       1.0  0.40949  0.97509  0.47370  1.0000 -0.2115516894
C   C39       1.0  0.02491  0.59051  0.97370  1.0000 -0.2115516894
C   C40       1.0  0.59051  0.02491  0.52630  1.0000 -0.2115516894
C   C41       1.0  0.94250  0.48330  0.08730  1.0000 -0.0884982914
C   C42       1.0  0.48330  0.94250  0.41270  1.0000 -0.0884982914
C   C43       1.0  0.05750  0.51670  0.91270  1.0000 -0.0884982914
C   C44       1.0  0.51670  0.05750  0.58730  1.0000 -0.0884982914
C   C45       1.0  0.85469  0.55229  0.08190  1.0000 -0.0359963931
C   C46       1.0  0.55229  0.85469  0.41810  1.0000 -0.0359963931
C   C47       1.0  0.14531  0.44771  0.91810  1.0000 -0.0359963931
C   C48       1.0  0.44771  0.14531  0.58190  1.0000 -0.0359963931
C   C49       1.0  0.79952  0.54612  0.01850  1.0000 -0.0797418391
C   C50       1.0  0.54612  0.79952  0.48150  1.0000 -0.0797418391
C   C51       1.0  0.20048  0.45388  0.98150  1.0000 -0.0797418391
C   C52       1.0  0.45388  0.20048  0.51850  1.0000 -0.0797418391
C   C53       1.0  0.83164  0.47224  0.96040  1.0000 -0.2187819786
C   C54       1.0  0.47224  0.83164  0.53960  1.0000 -0.2187819786
C   C55       1.0  0.16836  0.52776  0.03960  1.0000 -0.2187819786
C   C56       1.0  0.52776  0.16836  0.46040  1.0000 -0.2187819786
C   C57       1.0  0.81917  0.63217  0.14360  1.0000 0.5405423559
C   C58       1.0  0.63217  0.81917  0.35640  1.0000 0.5405423559
C   C59       1.0  0.18083  0.36783  0.85640  1.0000 0.5405423559
C   C60       1.0  0.36783  0.18083  0.64360  1.0000 0.5405423559
C   C61       1.0  0.84871  0.81031  0.11380  1.0000 0.0911984399
C   C62       1.0  0.81031  0.84871  0.38620  1.0000 0.0911984399
C   C63       1.0  0.15129  0.18969  0.88620  1.0000 0.0911984399
C   C64       1.0  0.18969  0.15129  0.61380  1.0000 0.0911984399
C   C65       1.0  0.85668  0.85728  0.03350  1.0000 -0.174352289
C   C66       1.0  0.85728  0.85668  0.46650  1.0000 -0.174352289
C   C67       1.0  0.14332  0.14272  0.96650  1.0000 -0.174352289
C   C68       1.0  0.14272  0.14332  0.53350  1.0000 -0.174352289
C   C69       1.0  0.78882  0.91562  0.94870  1.0000 0.1101426773
C   C70       1.0  0.91562  0.78882  0.55130  1.0000 0.1101426773
C   C71       1.0  0.21118  0.08438  0.05130  1.0000 0.1101426773
C   C72       1.0  0.08438  0.21118  0.44870  1.0000 0.1101426773
C   C73       1.0  0.71597  0.92257  0.94880  1.0000 -0.1896695427
C   C74       1.0  0.92257  0.71597  0.55120  1.0000 -0.1896695427
C   C75       1.0  0.28403  0.07743  0.05120  1.0000 -0.1896695427
C   C76       1.0  0.07743  0.28403  0.44880  1.0000 -0.1896695427
C   C77       1.0  0.71274  0.87434  0.03340  1.0000 0.0911984399
C   C78       1.0  0.87434  0.71274  0.46660  1.0000 0.0911984399
C   C79       1.0  0.28726  0.12566  0.96660  1.0000 0.0911984399
C   C80       1.0  0.12566  0.28726  0.53340  1.0000 0.0911984399
C   C81       1.0  0.83313  0.05393  0.81220  1.0000 0.0665923126
C   C82       1.0  0.05393  0.83313  0.68780  1.0000 0.0665923126
C   C83       1.0  0.16687  0.94607  0.18780  1.0000 0.0665923126
C   C84       1.0  0.94607  0.16687  0.31220  1.0000 0.0665923126
C   C85       1.0  0.83633  0.99933  0.89220  1.0000 -0.1771692268
C   C86       1.0  0.99933  0.83633  0.60780  1.0000 -0.1771692268
C   C87       1.0  0.16367  0.00067  0.10780  1.0000 -0.1771692268
C   C88       1.0  0.00067  0.16367  0.39220  1.0000 -0.1771692268
C   C89       1.0  0.79205  0.97045  0.86210  1.0000 0.1101426773
C   C90       1.0  0.97045  0.79205  0.63790  1.0000 0.1101426773
C   C91       1.0  0.20795  0.02955  0.13790  1.0000 0.1101426773
C   C92       1.0  0.02955  0.20795  0.36210  1.0000 0.1101426773
C   C93       1.0  0.74916  0.99756  0.74980  1.0000 -0.2010161921
C   C94       1.0  0.99756  0.74916  0.75020  1.0000 -0.2010161921
C   C95       1.0  0.25084  0.00244  0.25020  1.0000 -0.2010161921
C   C96       1.0  0.00244  0.25084  0.24980  1.0000 -0.2010161921
C   C97       1.0  0.74988  0.05188  0.67460  1.0000 0.0911984399
C   C98       1.0  0.05188  0.74988  0.82540  1.0000 0.0911984399
C   C99       1.0  0.25012  0.94812  0.32540  1.0000 0.0911984399
C   C100      1.0  0.94812  0.25012  0.17460  1.0000 0.0911984399
C   C101      1.0  0.71177  0.35277  0.26410  1.0000 0.0990140058
C   C102      1.0  0.35277  0.71177  0.23590  1.0000 0.0990140058
C   C103      1.0  0.28823  0.64723  0.73590  1.0000 0.0990140058
C   C104      1.0  0.64723  0.28823  0.76410  1.0000 0.0990140058
C   C105      1.0  0.64108  0.42768  0.30620  1.0000 -0.1896695427
C   C106      1.0  0.42768  0.64108  0.19380  1.0000 -0.1896695427
C   C107      1.0  0.35892  0.57232  0.69380  1.0000 -0.1896695427
C   C108      1.0  0.57232  0.35892  0.80620  1.0000 -0.1896695427
C   C109      1.0  0.58145  0.50045  0.22900  1.0000 0.1101426773
C   C110      1.0  0.50045  0.58145  0.27100  1.0000 0.1101426773
C   C111      1.0  0.41855  0.49955  0.77100  1.0000 0.1101426773
C   C112      1.0  0.49955  0.41855  0.72900  1.0000 0.1101426773
C   C113      1.0  0.60001  0.49301  0.10900  1.0000 -0.2115516894
C   C114      1.0  0.49301  0.60001  0.39100  1.0000 -0.2115516894
C   C115      1.0  0.39999  0.50699  0.89100  1.0000 -0.2115516894
C   C116      1.0  0.50699  0.39999  0.60900  1.0000 -0.2115516894
C   C117      1.0  0.67270  0.41510  0.07400  1.0000 0.0911984399
C   C118      1.0  0.41510  0.67270  0.42600  1.0000 0.0911984399
C   C119      1.0  0.32730  0.58490  0.92600  1.0000 0.0911984399
C   C120      1.0  0.58490  0.32730  0.57400  1.0000 0.0911984399
N   N1        1.0  0.77765  0.81911  0.11690  1.0000 -0.2309713315
N   N2        1.0  0.81911  0.77765  0.38310  1.0000 -0.2309713315
N   N3        1.0  0.22235  0.18089  0.88310  1.0000 -0.2309713315
N   N4        1.0  0.18089  0.22235  0.61690  1.0000 -0.2309713315
N   N5        1.0  0.79001  0.08157  0.70340  1.0000 -0.2468796752
N   N6        1.0  0.08157  0.79001  0.79660  1.0000 -0.2468796752
N   N7        1.0  0.20999  0.91843  0.29660  1.0000 -0.2468796752
N   N8        1.0  0.91843  0.20999  0.20340  1.0000 -0.2468796752
N   N9        1.0  0.72777  0.34379  0.14820  1.0000 -0.2187819786
N   N10       1.0  0.34379  0.72777  0.35180  1.0000 -0.2187819786
N   N11       1.0  0.27223  0.65621  0.85180  1.0000 -0.2187819786
N   N12       1.0  0.65621  0.27223  0.64820  1.0000 -0.2187819786
O   O1        1.0  0.83475  0.20259  0.71052  1.0000 -0.5211341165
O   O2        1.0  0.20259  0.83475  0.78948  1.0000 -0.5211341165
O   O3        1.0  0.16525  0.79741  0.28948  1.0000 -0.5211341165
O   O4        1.0  0.79741  0.16525  0.21052  1.0000 -0.5211341165
O   O5        1.0  0.78540  0.26938  0.53040  1.0000 -0.5211341165
O   O6        1.0  0.26938  0.78540  0.96960  1.0000 -0.5211341165
O   O7        1.0  0.21460  0.73062  0.46960  1.0000 -0.5211341165
O   O8        1.0  0.73062  0.21460  0.03040  1.0000 -0.5211341165
O   O9        1.0  0.96968  0.16192  0.89480  1.0000 -0.5574540876
O   O10       1.0  0.16192  0.96968  0.60520  1.0000 -0.5574540876
O   O11       1.0  0.03032  0.83808  0.10520  1.0000 -0.5574540876
O   O12       1.0  0.83808  0.03032  0.39480  1.0000 -0.5574540876
O   O13       1.0  0.83673  0.27639  0.94478  1.0000 -0.570787885
O   O14       1.0  0.27639  0.83673  0.55522  1.0000 -0.570787885
O   O15       1.0  0.16327  0.72361  0.05522  1.0000 -0.570787885
O   O16       1.0  0.72361  0.16327  0.44478  1.0000 -0.570787885
O   O17       1.0  0.95413  0.33049  0.90830  1.0000 -0.2309713315
O   O18       1.0  0.33049  0.95413  0.59170  1.0000 -0.2309713315
O   O19       1.0  0.04587  0.66951  0.09170  1.0000 -0.2309713315
O   O20       1.0  0.66951  0.04587  0.40830  1.0000 -0.2309713315
O   O21       1.0  0.74014  0.69972  0.12350  1.0000 -0.511437156
O   O22       1.0  0.69972  0.74014  0.37650  1.0000 -0.511437156
O   O23       1.0  0.25986  0.30028  0.87650  1.0000 -0.511437156
O   O24       1.0  0.30028  0.25986  0.62350  1.0000 -0.511437156
O   O25       1.0  0.86743  0.63289  0.21710  1.0000 -0.5425874374
O   O26       1.0  0.63289  0.86743  0.28290  1.0000 -0.5425874374
O   O27       1.0  0.13257  0.36711  0.78290  1.0000 -0.5425874374
O   O28       1.0  0.36711  0.13257  0.71710  1.0000 -0.5425874374
O   O29       1.0  0.92059  0.09599  0.03860  1.0000 -0.6471212588
O   O30       1.0  0.09599  0.92059  0.46140  1.0000 -0.6471212588
O   O31       1.0  0.07941  0.90401  0.96140  1.0000 -0.6471212588
O   O32       1.0  0.90401  0.07941  0.53860  1.0000 -0.6471212588
