# DDEC6 charges by PACMAN v1.1 (https://github.com/mtap-research/PACMAN-charge/)
data_2010[Cd][nuc]3[FSR]8
_chemical_formula_sum              "Cd4 H144 C192 N48"
_cell_length_a       15.8029
_cell_length_b       15.8029
_cell_length_c       21.845
_cell_angle_alpha    90
_cell_angle_beta     90
_cell_angle_gamma    90

_symmetry_space_group_name_H-M    "P 1"
_symmetry_Int_Tables_number       1

loop_
  _symmetry_equiv_pos_as_xyz
  'x, y, z'

loop_
  _atom_site_type_symbol
  _atom_site_label
  _atom_site_symmetry_multiplicity
  _atom_site_fract_x
  _atom_site_fract_y
  _atom_site_fract_z
  _atom_site_occupancy
  _atom_site_charge
Cd  Cd1       1.0  0.94051  0.05949  0.75000  1.0000 0.6401809594
Cd  Cd2       1.0  0.05949  0.94051  0.25000  1.0000 0.6401809594
Cd  Cd3       1.0  0.44051  0.44051  0.50000  1.0000 0.6401809594
Cd  Cd4       1.0  0.55949  0.55949  0.00000  1.0000 0.6401809594
H   H1        1.0  0.25700  0.50540  0.42960  1.0000 0.0998477867
H   H2        1.0  0.74300  0.49460  0.92960  1.0000 0.0998477867
H   H3        1.0  0.99460  0.75700  0.17960  1.0000 0.0998477867
H   H4        1.0  0.00540  0.24300  0.67960  1.0000 0.0998477867
H   H5        1.0  0.24300  0.00540  0.32040  1.0000 0.0998477867
H   H6        1.0  0.75700  0.99460  0.82040  1.0000 0.0998477867
H   H7        1.0  0.50540  0.25700  0.57040  1.0000 0.0998477867
H   H8        1.0  0.49460  0.74300  0.07040  1.0000 0.0998477867
H   H9        1.0  0.14680  0.59680  0.44190  1.0000 0.1304599336
H   H10       1.0  0.85320  0.40320  0.94190  1.0000 0.1304599336
H   H11       1.0  0.90320  0.64680  0.19190  1.0000 0.1304599336
H   H12       1.0  0.09680  0.35320  0.69190  1.0000 0.1304599336
H   H13       1.0  0.35320  0.09680  0.30810  1.0000 0.1304599336
H   H14       1.0  0.64680  0.90320  0.80810  1.0000 0.1304599336
H   H15       1.0  0.59680  0.14680  0.55810  1.0000 0.1304599336
H   H16       1.0  0.40320  0.85320  0.05810  1.0000 0.1304599336
H   H17       1.0  0.23650  0.65410  0.60670  1.0000 0.1304599336
H   H18       1.0  0.76350  0.34590  0.10670  1.0000 0.1304599336
H   H19       1.0  0.84590  0.73650  0.35670  1.0000 0.1304599336
H   H20       1.0  0.15410  0.26350  0.85670  1.0000 0.1304599336
H   H21       1.0  0.26350  0.15410  0.14330  1.0000 0.1304599336
H   H22       1.0  0.73650  0.84590  0.64330  1.0000 0.1304599336
H   H23       1.0  0.65410  0.23650  0.39330  1.0000 0.1304599336
H   H24       1.0  0.34590  0.76350  0.89330  1.0000 0.1304599336
H   H25       1.0  0.34230  0.55930  0.59110  1.0000 0.0998477867
H   H26       1.0  0.65770  0.44070  0.09110  1.0000 0.0998477867
H   H27       1.0  0.94070  0.84230  0.34110  1.0000 0.0998477867
H   H28       1.0  0.05930  0.15770  0.84110  1.0000 0.0998477867
H   H29       1.0  0.15770  0.05930  0.15890  1.0000 0.0998477867
H   H30       1.0  0.84230  0.94070  0.65890  1.0000 0.0998477867
H   H31       1.0  0.55930  0.34230  0.40890  1.0000 0.0998477867
H   H32       1.0  0.44070  0.65770  0.90890  1.0000 0.0998477867
H   H33       1.0  0.03290  0.66360  0.46670  1.0000 0.1102715502
H   H34       1.0  0.96710  0.33640  0.96670  1.0000 0.1102715502
H   H35       1.0  0.83640  0.53290  0.21670  1.0000 0.1102715502
H   H36       1.0  0.16360  0.46710  0.71670  1.0000 0.1102715502
H   H37       1.0  0.46710  0.16360  0.28330  1.0000 0.1102715502
H   H38       1.0  0.53290  0.83640  0.78330  1.0000 0.1102715502
H   H39       1.0  0.66360  0.03290  0.53330  1.0000 0.1102715502
H   H40       1.0  0.33640  0.96710  0.03330  1.0000 0.1102715502
H   H41       1.0  0.93320  0.76620  0.47750  1.0000 0.1102715502
H   H42       1.0  0.06680  0.23380  0.97750  1.0000 0.1102715502
H   H43       1.0  0.73380  0.43320  0.22750  1.0000 0.1102715502
H   H44       1.0  0.26620  0.56680  0.72750  1.0000 0.1102715502
H   H45       1.0  0.56680  0.26620  0.27250  1.0000 0.1102715502
H   H46       1.0  0.43320  0.73380  0.77250  1.0000 0.1102715502
H   H47       1.0  0.76620  0.93320  0.52250  1.0000 0.1102715502
H   H48       1.0  0.23380  0.06680  0.02250  1.0000 0.1102715502
H   H49       1.0  0.95390  0.87910  0.54170  1.0000 0.1102715502
H   H50       1.0  0.04610  0.12090  0.04170  1.0000 0.1102715502
H   H51       1.0  0.62090  0.45390  0.29170  1.0000 0.1102715502
H   H52       1.0  0.37910  0.54610  0.79170  1.0000 0.1102715502
H   H53       1.0  0.54610  0.37910  0.20830  1.0000 0.1102715502
H   H54       1.0  0.45390  0.62090  0.70830  1.0000 0.1102715502
H   H55       1.0  0.87910  0.95390  0.45830  1.0000 0.1102715502
H   H56       1.0  0.12090  0.04610  0.95830  1.0000 0.1102715502
H   H57       1.0  0.17490  0.77610  0.59480  1.0000 0.0998477867
H   H58       1.0  0.82510  0.22390  0.09480  1.0000 0.0998477867
H   H59       1.0  0.72390  0.67490  0.34480  1.0000 0.0998477867
H   H60       1.0  0.27610  0.32510  0.84480  1.0000 0.0998477867
H   H61       1.0  0.32510  0.27610  0.15520  1.0000 0.0998477867
H   H62       1.0  0.67490  0.72390  0.65520  1.0000 0.0998477867
H   H63       1.0  0.77610  0.17490  0.40520  1.0000 0.0998477867
H   H64       1.0  0.22390  0.82510  0.90520  1.0000 0.0998477867
H   H65       1.0  0.19820  0.99850  0.79050  1.0000 0.1102715502
H   H66       1.0  0.80180  0.00150  0.29050  1.0000 0.1102715502
H   H67       1.0  0.50150  0.69820  0.54050  1.0000 0.1102715502
H   H68       1.0  0.49850  0.30180  0.04050  1.0000 0.1102715502
H   H69       1.0  0.30180  0.49850  0.95950  1.0000 0.1102715502
H   H70       1.0  0.69820  0.50150  0.45950  1.0000 0.1102715502
H   H71       1.0  0.99850  0.19820  0.20950  1.0000 0.1102715502
H   H72       1.0  0.00150  0.80180  0.70950  1.0000 0.1102715502
H   H73       1.0  0.29420  0.09190  0.83500  1.0000 0.1102715502
H   H74       1.0  0.70580  0.90810  0.33500  1.0000 0.1102715502
H   H75       1.0  0.40810  0.79420  0.58500  1.0000 0.1102715502
H   H76       1.0  0.59190  0.20580  0.08500  1.0000 0.1102715502
H   H77       1.0  0.20580  0.59190  0.91500  1.0000 0.1102715502
H   H78       1.0  0.79420  0.40810  0.41500  1.0000 0.1102715502
H   H79       1.0  0.09190  0.29420  0.16500  1.0000 0.1102715502
H   H80       1.0  0.90810  0.70580  0.66500  1.0000 0.1102715502
H   H81       1.0  0.34400  0.20620  0.78040  1.0000 0.0998477867
H   H82       1.0  0.65600  0.79380  0.28040  1.0000 0.0998477867
H   H83       1.0  0.29380  0.84400  0.53040  1.0000 0.0998477867
H   H84       1.0  0.70620  0.15600  0.03040  1.0000 0.0998477867
H   H85       1.0  0.15600  0.70620  0.96960  1.0000 0.0998477867
H   H86       1.0  0.84400  0.29380  0.46960  1.0000 0.0998477867
H   H87       1.0  0.20620  0.34400  0.21960  1.0000 0.0998477867
H   H88       1.0  0.79380  0.65600  0.71960  1.0000 0.0998477867
H   H89       1.0  0.19700  0.13960  0.63930  1.0000 0.1102715502
H   H90       1.0  0.80300  0.86040  0.13930  1.0000 0.1102715502
H   H91       1.0  0.36040  0.69700  0.38930  1.0000 0.1102715502
H   H92       1.0  0.63960  0.30300  0.88930  1.0000 0.1102715502
H   H93       1.0  0.30300  0.63960  0.11070  1.0000 0.1102715502
H   H94       1.0  0.69700  0.36040  0.61070  1.0000 0.1102715502
H   H95       1.0  0.13960  0.19700  0.36070  1.0000 0.1102715502
H   H96       1.0  0.86040  0.80300  0.86070  1.0000 0.1102715502
H   H97       1.0  0.41350  0.28610  0.71480  1.0000 0.1304599336
H   H98       1.0  0.58650  0.71390  0.21480  1.0000 0.1304599336
H   H99       1.0  0.21390  0.91350  0.46480  1.0000 0.1304599336
H   H100      1.0  0.78610  0.08650  0.96480  1.0000 0.1304599336
H   H101      1.0  0.08650  0.78610  0.03520  1.0000 0.1304599336
H   H102      1.0  0.91350  0.21390  0.53520  1.0000 0.1304599336
H   H103      1.0  0.28610  0.41350  0.28520  1.0000 0.1304599336
H   H104      1.0  0.71390  0.58650  0.78520  1.0000 0.1304599336
H   H105      1.0  0.46420  0.38610  0.64860  1.0000 0.0998477867
H   H106      1.0  0.53580  0.61390  0.14860  1.0000 0.0998477867
H   H107      1.0  0.11390  0.96420  0.39860  1.0000 0.0998477867
H   H108      1.0  0.88610  0.03580  0.89860  1.0000 0.0998477867
H   H109      1.0  0.03580  0.88610  0.10140  1.0000 0.0998477867
H   H110      1.0  0.96420  0.11390  0.60140  1.0000 0.0998477867
H   H111      1.0  0.38610  0.46420  0.35140  1.0000 0.0998477867
H   H112      1.0  0.61390  0.53580  0.85140  1.0000 0.0998477867
H   H113      1.0  0.26820  0.35980  0.54290  1.0000 0.0998477867
H   H114      1.0  0.73180  0.64020  0.04290  1.0000 0.0998477867
H   H115      1.0  0.14020  0.76820  0.29290  1.0000 0.0998477867
H   H116      1.0  0.85980  0.23180  0.79290  1.0000 0.0998477867
H   H117      1.0  0.23180  0.85980  0.20710  1.0000 0.0998477867
H   H118      1.0  0.76820  0.14020  0.70710  1.0000 0.0998477867
H   H119      1.0  0.35980  0.26820  0.45710  1.0000 0.0998477867
H   H120      1.0  0.64020  0.73180  0.95710  1.0000 0.0998477867
H   H121      1.0  0.21060  0.26400  0.60630  1.0000 0.1304599336
H   H122      1.0  0.78940  0.73600  0.10630  1.0000 0.1304599336
H   H123      1.0  0.23600  0.71060  0.35630  1.0000 0.1304599336
H   H124      1.0  0.76400  0.28940  0.85630  1.0000 0.1304599336
H   H125      1.0  0.28940  0.76400  0.14370  1.0000 0.1304599336
H   H126      1.0  0.71060  0.23600  0.64370  1.0000 0.1304599336
H   H127      1.0  0.26400  0.21060  0.39370  1.0000 0.1304599336
H   H128      1.0  0.73600  0.78940  0.89370  1.0000 0.1304599336
H   H129      1.0  0.25860  0.97370  0.61360  1.0000 0.2479953012
H   H130      1.0  0.74140  0.02630  0.11360  1.0000 0.2479953012
H   H131      1.0  0.52630  0.75860  0.36360  1.0000 0.2479953012
H   H132      1.0  0.47370  0.24140  0.86360  1.0000 0.2479953012
H   H133      1.0  0.24140  0.47370  0.13640  1.0000 0.2479953012
H   H134      1.0  0.75860  0.52630  0.63640  1.0000 0.2479953012
H   H135      1.0  0.97370  0.25860  0.38640  1.0000 0.2479953012
H   H136      1.0  0.02630  0.74140  0.88640  1.0000 0.2479953012
H   H137      1.0  0.25730  0.89440  0.64710  1.0000 0.2372549168
H   H138      1.0  0.74270  0.10560  0.14710  1.0000 0.2372549168
H   H139      1.0  0.60560  0.75730  0.39710  1.0000 0.2372549168
H   H140      1.0  0.39440  0.24270  0.89710  1.0000 0.2372549168
H   H141      1.0  0.24270  0.39440  0.10290  1.0000 0.2372549168
H   H142      1.0  0.75730  0.60560  0.60290  1.0000 0.2372549168
H   H143      1.0  0.89440  0.25730  0.35290  1.0000 0.2372549168
H   H144      1.0  0.10560  0.74270  0.85290  1.0000 0.2372549168
C   C1        1.0  0.25310  0.53600  0.46580  1.0000 0.048870375
C   C2        1.0  0.74690  0.46400  0.96580  1.0000 0.048870375
C   C3        1.0  0.96400  0.75310  0.21580  1.0000 0.048870375
C   C4        1.0  0.03600  0.24690  0.71580  1.0000 0.048870375
C   C5        1.0  0.24690  0.03600  0.28420  1.0000 0.048870375
C   C6        1.0  0.75310  0.96400  0.78420  1.0000 0.048870375
C   C7        1.0  0.53600  0.25310  0.53420  1.0000 0.048870375
C   C8        1.0  0.46400  0.74690  0.03420  1.0000 0.048870375
C   C9        1.0  0.18700  0.59210  0.47270  1.0000 -0.2011168198
C   C10       1.0  0.81300  0.40790  0.97270  1.0000 -0.2011168198
C   C11       1.0  0.90790  0.68700  0.22270  1.0000 -0.2011168198
C   C12       1.0  0.09210  0.31300  0.72270  1.0000 -0.2011168198
C   C13       1.0  0.31300  0.09210  0.27730  1.0000 -0.2011168198
C   C14       1.0  0.68700  0.90790  0.77730  1.0000 -0.2011168198
C   C15       1.0  0.59210  0.18700  0.52730  1.0000 -0.2011168198
C   C16       1.0  0.40790  0.81300  0.02730  1.0000 -0.2011168198
C   C17       1.0  0.17950  0.64100  0.52390  1.0000 0.1102715502
C   C18       1.0  0.82050  0.35900  0.02390  1.0000 0.1102715502
C   C19       1.0  0.85900  0.67950  0.27390  1.0000 0.1102715502
C   C20       1.0  0.14100  0.32050  0.77390  1.0000 0.1102715502
C   C21       1.0  0.32050  0.14100  0.22610  1.0000 0.1102715502
C   C22       1.0  0.67950  0.85900  0.72610  1.0000 0.1102715502
C   C23       1.0  0.64100  0.17950  0.47610  1.0000 0.1102715502
C   C24       1.0  0.35900  0.82050  0.97610  1.0000 0.1102715502
C   C25       1.0  0.23970  0.62530  0.56960  1.0000 -0.2069939663
C   C26       1.0  0.76030  0.37470  0.06960  1.0000 -0.2069939663
C   C27       1.0  0.87470  0.73970  0.31960  1.0000 -0.2069939663
C   C28       1.0  0.12530  0.26030  0.81960  1.0000 -0.2069939663
C   C29       1.0  0.26030  0.12530  0.18040  1.0000 -0.2069939663
C   C30       1.0  0.73970  0.87470  0.68040  1.0000 -0.2069939663
C   C31       1.0  0.62530  0.23970  0.43040  1.0000 -0.2069939663
C   C32       1.0  0.37470  0.76030  0.93040  1.0000 -0.2069939663
C   C33       1.0  0.30310  0.56780  0.56000  1.0000 0.0683881073
C   C34       1.0  0.69690  0.43220  0.06000  1.0000 0.0683881073
C   C35       1.0  0.93220  0.80310  0.31000  1.0000 0.0683881073
C   C36       1.0  0.06780  0.19690  0.81000  1.0000 0.0683881073
C   C37       1.0  0.19690  0.06780  0.19000  1.0000 0.0683881073
C   C38       1.0  0.80310  0.93220  0.69000  1.0000 0.0683881073
C   C39       1.0  0.56780  0.30310  0.44000  1.0000 0.0683881073
C   C40       1.0  0.43220  0.69690  0.94000  1.0000 0.0683881073
C   C41       1.0  0.11450  0.70720  0.53070  1.0000 0.0683881073
C   C42       1.0  0.88550  0.29280  0.03070  1.0000 0.0683881073
C   C43       1.0  0.79280  0.61450  0.28070  1.0000 0.0683881073
C   C44       1.0  0.20720  0.38550  0.78070  1.0000 0.0683881073
C   C45       1.0  0.38550  0.20720  0.21930  1.0000 0.0683881073
C   C46       1.0  0.61450  0.79280  0.71930  1.0000 0.0683881073
C   C47       1.0  0.70720  0.11450  0.46930  1.0000 0.0683881073
C   C48       1.0  0.29280  0.88550  0.96930  1.0000 0.0683881073
C   C49       1.0  0.04150  0.70690  0.49490  1.0000 -0.1635064631
C   C50       1.0  0.95850  0.29310  0.99490  1.0000 -0.1635064631
C   C51       1.0  0.79310  0.54150  0.24490  1.0000 -0.1635064631
C   C52       1.0  0.20690  0.45850  0.74490  1.0000 -0.1635064631
C   C53       1.0  0.45850  0.20690  0.25510  1.0000 -0.1635064631
C   C54       1.0  0.54150  0.79310  0.75510  1.0000 -0.1635064631
C   C55       1.0  0.70690  0.04150  0.50510  1.0000 -0.1635064631
C   C56       1.0  0.29310  0.95850  0.00510  1.0000 -0.1635064631
C   C57       1.0  0.98250  0.76920  0.50060  1.0000 -0.1089716362
C   C58       1.0  0.01750  0.23080  0.00060  1.0000 -0.1089716362
C   C59       1.0  0.73080  0.48250  0.25060  1.0000 -0.1089716362
C   C60       1.0  0.26920  0.51750  0.75060  1.0000 -0.1089716362
C   C61       1.0  0.51750  0.26920  0.24940  1.0000 -0.1089716362
C   C62       1.0  0.48250  0.73080  0.74940  1.0000 -0.1089716362
C   C63       1.0  0.76920  0.98250  0.49940  1.0000 -0.1089716362
C   C64       1.0  0.23080  0.01750  0.99940  1.0000 -0.1089716362
C   C65       1.0  0.99400  0.83610  0.53950  1.0000 -0.1635064631
C   C66       1.0  0.00600  0.16390  0.03950  1.0000 -0.1635064631
C   C67       1.0  0.66390  0.49400  0.28950  1.0000 -0.1635064631
C   C68       1.0  0.33610  0.50600  0.78950  1.0000 -0.1635064631
C   C69       1.0  0.50600  0.33610  0.21050  1.0000 -0.1635064631
C   C70       1.0  0.49400  0.66390  0.71050  1.0000 -0.1635064631
C   C71       1.0  0.83610  0.99400  0.46050  1.0000 -0.1635064631
C   C72       1.0  0.16390  0.00600  0.96050  1.0000 -0.1635064631
C   C73       1.0  0.06710  0.83910  0.57610  1.0000 0.0286631147
C   C74       1.0  0.93290  0.16090  0.07610  1.0000 0.0286631147
C   C75       1.0  0.66090  0.56710  0.32610  1.0000 0.0286631147
C   C76       1.0  0.33910  0.43290  0.82610  1.0000 0.0286631147
C   C77       1.0  0.43290  0.33910  0.17390  1.0000 0.0286631147
C   C78       1.0  0.56710  0.66090  0.67390  1.0000 0.0286631147
C   C79       1.0  0.83910  0.06710  0.42390  1.0000 0.0286631147
C   C80       1.0  0.16090  0.93290  0.92390  1.0000 0.0286631147
C   C81       1.0  0.12630  0.77440  0.57080  1.0000 -0.2011168198
C   C82       1.0  0.87370  0.22560  0.07080  1.0000 -0.2011168198
C   C83       1.0  0.72560  0.62630  0.32080  1.0000 -0.2011168198
C   C84       1.0  0.27440  0.37370  0.82080  1.0000 -0.2011168198
C   C85       1.0  0.37370  0.27440  0.17920  1.0000 -0.2011168198
C   C86       1.0  0.62630  0.72560  0.67920  1.0000 -0.2011168198
C   C87       1.0  0.77440  0.12630  0.42920  1.0000 -0.2011168198
C   C88       1.0  0.22560  0.87370  0.92920  1.0000 -0.2011168198
C   C89       1.0  0.07530  0.90870  0.61910  1.0000 0.1707912079
C   C90       1.0  0.92470  0.09130  0.11910  1.0000 0.1707912079
C   C91       1.0  0.59130  0.57530  0.36910  1.0000 0.1707912079
C   C92       1.0  0.40870  0.42470  0.86910  1.0000 0.1707912079
C   C93       1.0  0.42470  0.40870  0.13090  1.0000 0.1707912079
C   C94       1.0  0.57530  0.59130  0.63090  1.0000 0.1707912079
C   C95       1.0  0.90870  0.07530  0.38090  1.0000 0.1707912079
C   C96       1.0  0.09130  0.92470  0.88090  1.0000 0.1707912079
C   C97       1.0  0.12620  0.00480  0.68040  1.0000 0.1707912079
C   C98       1.0  0.87380  0.99520  0.18040  1.0000 0.1707912079
C   C99       1.0  0.49520  0.62620  0.43040  1.0000 0.1707912079
C   C100      1.0  0.50480  0.37380  0.93040  1.0000 0.1707912079
C   C101      1.0  0.37380  0.50480  0.06960  1.0000 0.1707912079
C   C102      1.0  0.62620  0.49520  0.56960  1.0000 0.1707912079
C   C103      1.0  0.00480  0.12620  0.31960  1.0000 0.1707912079
C   C104      1.0  0.99520  0.87380  0.81960  1.0000 0.1707912079
C   C105      1.0  0.18760  0.06200  0.71040  1.0000 0.0215851637
C   C106      1.0  0.81240  0.93800  0.21040  1.0000 0.0215851637
C   C107      1.0  0.43800  0.68760  0.46040  1.0000 0.0215851637
C   C108      1.0  0.56200  0.31240  0.96040  1.0000 0.0215851637
C   C109      1.0  0.31240  0.56200  0.03960  1.0000 0.0215851637
C   C110      1.0  0.68760  0.43800  0.53960  1.0000 0.0215851637
C   C111      1.0  0.06200  0.18760  0.28960  1.0000 0.0215851637
C   C112      1.0  0.93800  0.81240  0.78960  1.0000 0.0215851637
C   C113      1.0  0.21700  0.04570  0.76910  1.0000 -0.16921983
C   C114      1.0  0.78300  0.95430  0.26910  1.0000 -0.16921983
C   C115      1.0  0.45430  0.71700  0.51910  1.0000 -0.16921983
C   C116      1.0  0.54570  0.28300  0.01910  1.0000 -0.16921983
C   C117      1.0  0.28300  0.54570  0.98090  1.0000 -0.16921983
C   C118      1.0  0.71700  0.45430  0.48090  1.0000 -0.16921983
C   C119      1.0  0.04570  0.21700  0.23090  1.0000 -0.16921983
C   C120      1.0  0.95430  0.78300  0.73090  1.0000 -0.16921983
C   C121      1.0  0.27520  0.10120  0.79530  1.0000 -0.1089716362
C   C122      1.0  0.72480  0.89880  0.29530  1.0000 -0.1089716362
C   C123      1.0  0.39880  0.77520  0.54530  1.0000 -0.1089716362
C   C124      1.0  0.60120  0.22480  0.04530  1.0000 -0.1089716362
C   C125      1.0  0.22480  0.60120  0.95470  1.0000 -0.1089716362
C   C126      1.0  0.77520  0.39880  0.45470  1.0000 -0.1089716362
C   C127      1.0  0.10120  0.27520  0.20470  1.0000 -0.1089716362
C   C128      1.0  0.89880  0.72480  0.70470  1.0000 -0.1089716362
C   C129      1.0  0.30470  0.16990  0.76260  1.0000 -0.16921983
C   C130      1.0  0.69530  0.83010  0.26260  1.0000 -0.16921983
C   C131      1.0  0.33010  0.80470  0.51260  1.0000 -0.16921983
C   C132      1.0  0.66990  0.19530  0.01260  1.0000 -0.16921983
C   C133      1.0  0.19530  0.66990  0.98740  1.0000 -0.16921983
C   C134      1.0  0.80470  0.33010  0.48740  1.0000 -0.16921983
C   C135      1.0  0.16990  0.30470  0.23740  1.0000 -0.16921983
C   C136      1.0  0.83010  0.69530  0.73740  1.0000 -0.16921983
C   C137      1.0  0.27660  0.18540  0.70350  1.0000 0.0683881073
C   C138      1.0  0.72340  0.81460  0.20350  1.0000 0.0683881073
C   C139      1.0  0.31460  0.77660  0.45350  1.0000 0.0683881073
C   C140      1.0  0.68540  0.22340  0.95350  1.0000 0.0683881073
C   C141      1.0  0.22340  0.68540  0.04650  1.0000 0.0683881073
C   C142      1.0  0.77660  0.31460  0.54650  1.0000 0.0683881073
C   C143      1.0  0.18540  0.27660  0.29650  1.0000 0.0683881073
C   C144      1.0  0.81460  0.72340  0.79650  1.0000 0.0683881073
C   C145      1.0  0.21710  0.12990  0.67870  1.0000 -0.2011168198
C   C146      1.0  0.78290  0.87010  0.17870  1.0000 -0.2011168198
C   C147      1.0  0.37010  0.71710  0.42870  1.0000 -0.2011168198
C   C148      1.0  0.62990  0.28290  0.92870  1.0000 -0.2011168198
C   C149      1.0  0.28290  0.62990  0.07130  1.0000 -0.2011168198
C   C150      1.0  0.71710  0.37010  0.57130  1.0000 -0.2011168198
C   C151      1.0  0.12990  0.21710  0.32130  1.0000 -0.2011168198
C   C152      1.0  0.87010  0.78290  0.82130  1.0000 -0.2011168198
C   C153      1.0  0.30720  0.25770  0.66590  1.0000 0.1102715502
C   C154      1.0  0.69280  0.74230  0.16590  1.0000 0.1102715502
C   C155      1.0  0.24230  0.80720  0.41590  1.0000 0.1102715502
C   C156      1.0  0.75770  0.19280  0.91590  1.0000 0.1102715502
C   C157      1.0  0.19280  0.75770  0.08410  1.0000 0.1102715502
C   C158      1.0  0.80720  0.24230  0.58410  1.0000 0.1102715502
C   C159      1.0  0.25770  0.30720  0.33410  1.0000 0.1102715502
C   C160      1.0  0.74230  0.69280  0.83410  1.0000 0.1102715502
C   C161      1.0  0.38360  0.29900  0.67930  1.0000 -0.2069939663
C   C162      1.0  0.61640  0.70100  0.17930  1.0000 -0.2069939663
C   C163      1.0  0.20100  0.88360  0.42930  1.0000 -0.2069939663
C   C164      1.0  0.79900  0.11640  0.92930  1.0000 -0.2069939663
C   C165      1.0  0.11640  0.79900  0.07070  1.0000 -0.2069939663
C   C166      1.0  0.88360  0.20100  0.57070  1.0000 -0.2069939663
C   C167      1.0  0.29900  0.38360  0.32070  1.0000 -0.2069939663
C   C168      1.0  0.70100  0.61640  0.82070  1.0000 -0.2069939663
C   C169      1.0  0.41370  0.35890  0.63910  1.0000 0.048870375
C   C170      1.0  0.58630  0.64110  0.13910  1.0000 0.048870375
C   C171      1.0  0.14110  0.91370  0.38910  1.0000 0.048870375
C   C172      1.0  0.85890  0.08630  0.88910  1.0000 0.048870375
C   C173      1.0  0.08630  0.85890  0.11090  1.0000 0.048870375
C   C174      1.0  0.91370  0.14110  0.61090  1.0000 0.048870375
C   C175      1.0  0.35890  0.41370  0.36090  1.0000 0.048870375
C   C176      1.0  0.64110  0.58630  0.86090  1.0000 0.048870375
C   C177      1.0  0.29860  0.34390  0.57750  1.0000 0.0286631147
C   C178      1.0  0.70140  0.65610  0.07750  1.0000 0.0286631147
C   C179      1.0  0.15610  0.79860  0.32750  1.0000 0.0286631147
C   C180      1.0  0.84390  0.20140  0.82750  1.0000 0.0286631147
C   C181      1.0  0.20140  0.84390  0.17250  1.0000 0.0286631147
C   C182      1.0  0.79860  0.15610  0.67250  1.0000 0.0286631147
C   C183      1.0  0.34390  0.29860  0.42250  1.0000 0.0286631147
C   C184      1.0  0.65610  0.70140  0.92250  1.0000 0.0286631147
C   C185      1.0  0.26410  0.28560  0.61500  1.0000 -0.2069939663
C   C186      1.0  0.73590  0.71440  0.11500  1.0000 -0.2069939663
C   C187      1.0  0.21440  0.76410  0.36500  1.0000 -0.2069939663
C   C188      1.0  0.78560  0.23590  0.86500  1.0000 -0.2069939663
C   C189      1.0  0.23590  0.78560  0.13500  1.0000 -0.2069939663
C   C190      1.0  0.76410  0.21440  0.63500  1.0000 -0.2069939663
C   C191      1.0  0.28560  0.26410  0.38500  1.0000 -0.2069939663
C   C192      1.0  0.71440  0.73590  0.88500  1.0000 -0.2069939663
N   N1        1.0  0.31150  0.52380  0.50890  1.0000 -0.22907993
N   N2        1.0  0.68850  0.47620  0.00890  1.0000 -0.22907993
N   N3        1.0  0.97620  0.81150  0.25890  1.0000 -0.22907993
N   N4        1.0  0.02380  0.18850  0.75890  1.0000 -0.22907993
N   N5        1.0  0.18850  0.02380  0.24110  1.0000 -0.22907993
N   N6        1.0  0.81150  0.97620  0.74110  1.0000 -0.22907993
N   N7        1.0  0.52380  0.31150  0.49110  1.0000 -0.22907993
N   N8        1.0  0.47620  0.68850  0.99110  1.0000 -0.22907993
N   N9        1.0  0.01170  0.94570  0.64551  1.0000 -0.2775524267
N   N10       1.0  0.98830  0.05430  0.14551  1.0000 -0.2775524267
N   N11       1.0  0.55430  0.51170  0.39551  1.0000 -0.2775524267
N   N12       1.0  0.44570  0.48830  0.89551  1.0000 -0.2775524267
N   N13       1.0  0.48830  0.44570  0.10449  1.0000 -0.2775524267
N   N14       1.0  0.51170  0.55430  0.60449  1.0000 -0.2775524267
N   N15       1.0  0.94570  0.01170  0.35449  1.0000 -0.2775524267
N   N16       1.0  0.05430  0.98830  0.85449  1.0000 -0.2775524267
N   N17       1.0  0.04450  0.00670  0.68410  1.0000 -0.22907993
N   N18       1.0  0.95550  0.99330  0.18410  1.0000 -0.22907993
N   N19       1.0  0.49330  0.54450  0.43410  1.0000 -0.22907993
N   N20       1.0  0.50670  0.45550  0.93410  1.0000 -0.22907993
N   N21       1.0  0.45550  0.50670  0.06590  1.0000 -0.22907993
N   N22       1.0  0.54450  0.49330  0.56590  1.0000 -0.22907993
N   N23       1.0  0.00670  0.04450  0.31590  1.0000 -0.22907993
N   N24       1.0  0.99330  0.95550  0.81590  1.0000 -0.22907993
N   N25       1.0  0.14900  0.94410  0.64010  1.0000 0.0551056974
N   N26       1.0  0.85100  0.05590  0.14010  1.0000 0.0551056974
N   N27       1.0  0.55590  0.64900  0.39010  1.0000 0.0551056974
N   N28       1.0  0.44410  0.35100  0.89010  1.0000 0.0551056974
N   N29       1.0  0.35100  0.44410  0.10990  1.0000 0.0551056974
N   N30       1.0  0.64900  0.55590  0.60990  1.0000 0.0551056974
N   N31       1.0  0.94410  0.14900  0.35990  1.0000 0.0551056974
N   N32       1.0  0.05590  0.85100  0.85990  1.0000 0.0551056974
N   N33       1.0  0.23070  0.92560  0.61910  1.0000 -0.5064819911
N   N34       1.0  0.76930  0.07440  0.11910  1.0000 -0.5064819911
N   N35       1.0  0.57440  0.73070  0.36910  1.0000 -0.5064819911
N   N36       1.0  0.42560  0.26930  0.86910  1.0000 -0.5064819911
N   N37       1.0  0.26930  0.42560  0.13090  1.0000 -0.5064819911
N   N38       1.0  0.73070  0.57440  0.63090  1.0000 -0.5064819911
N   N39       1.0  0.92560  0.23070  0.38090  1.0000 -0.5064819911
N   N40       1.0  0.07440  0.76930  0.88090  1.0000 -0.5064819911
N   N41       1.0  0.37440  0.38040  0.58695  1.0000 -0.2370216371
N   N42       1.0  0.62560  0.61960  0.08695  1.0000 -0.2370216371
N   N43       1.0  0.11960  0.87440  0.33695  1.0000 -0.2370216371
N   N44       1.0  0.88040  0.12560  0.83695  1.0000 -0.2370216371
N   N45       1.0  0.12560  0.88040  0.16305  1.0000 -0.2370216371
N   N46       1.0  0.87440  0.11960  0.66305  1.0000 -0.2370216371
N   N47       1.0  0.38040  0.37440  0.41305  1.0000 -0.2370216371
N   N48       1.0  0.61960  0.62560  0.91305  1.0000 -0.2370216371
