# DDEC6 charges by PACMAN v1.1 (https://github.com/mtap-research/PACMAN-charge/)
data_2010[Zn][rtl]3[FSR]2
_chemical_formula_sum              "Zn12 P8 H24 C64 O56"
_cell_length_a       17.4534
_cell_length_b       17.4534
_cell_length_c       17.4534
_cell_angle_alpha    117.08
_cell_angle_beta     117.08
_cell_angle_gamma    95.1367

_symmetry_space_group_name_H-M    "P 1"
_symmetry_Int_Tables_number       1

loop_
  _symmetry_equiv_pos_as_xyz
  'x, y, z'

loop_
  _atom_site_type_symbol
  _atom_site_label
  _atom_site_symmetry_multiplicity
  _atom_site_fract_x
  _atom_site_fract_y
  _atom_site_fract_z
  _atom_site_occupancy
  _atom_site_charge
Zn  Zn1       1.0  0.29972  0.31159  0.55431  1.0000 1.0354383828
Zn  Zn2       1.0  0.75728  0.74541  0.44569  1.0000 1.0342809401
Zn  Zn3       1.0  0.68841  0.24272  0.98813  1.0000 1.0354383828
Zn  Zn4       1.0  0.25459  0.70028  0.01187  1.0000 1.0354383828
Zn  Zn5       1.0  0.99272  0.93841  0.48813  1.0000 1.0342809401
Zn  Zn6       1.0  0.45028  0.50459  0.51187  1.0000 1.0354383828
Zn  Zn7       1.0  0.49541  0.00728  0.94569  1.0000 1.0354383828
Zn  Zn8       1.0  0.06159  0.54972  0.05431  1.0000 1.0354383828
Zn  Zn9       1.0  0.37500  0.25568  0.38068  1.0000 1.0084682546
Zn  Zn10      1.0  0.87500  0.99432  0.61932  1.0000 1.0084682546
Zn  Zn11      1.0  0.74432  0.12500  0.11932  1.0000 1.0084682546
Zn  Zn12      1.0  0.00568  0.62500  0.88068  1.0000 1.0084682546
P   P1        1.0  0.24802  0.36979  0.40223  1.0000 1.3093499086
P   P2        1.0  0.96756  0.84579  0.59777  1.0000 1.3093499086
P   P3        1.0  0.63021  0.03244  0.87823  1.0000 1.3093499086
P   P4        1.0  0.15421  0.75198  0.12177  1.0000 1.3093499086
P   P5        1.0  0.78244  0.88021  0.37823  1.0000 1.3093499086
P   P6        1.0  0.50198  0.40421  0.62177  1.0000 1.3093499086
P   P7        1.0  0.59579  0.21756  0.09777  1.0000 1.3093499086
P   P8        1.0  0.11979  0.49802  0.90223  1.0000 1.3093499086
H   H1        1.0  0.20470  0.45420  0.29150  1.0000 0.1482080741
H   H2        1.0  0.16270  0.91320  0.70850  1.0000 0.1482080741
H   H3        1.0  0.54580  0.83730  0.75050  1.0000 0.1482080741
H   H4        1.0  0.08680  0.79530  0.24950  1.0000 0.1482080741
H   H5        1.0  0.58730  0.79580  0.25050  1.0000 0.1482080741
H   H6        1.0  0.54530  0.33680  0.74950  1.0000 0.1482080741
H   H7        1.0  0.66320  0.41270  0.20850  1.0000 0.1482080741
H   H8        1.0  0.20420  0.45470  0.79150  1.0000 0.1482080741
H   H9        1.0  0.92870  0.37370  0.12080  1.0000 0.1482080741
H   H10       1.0  0.25290  0.80790  0.87920  1.0000 0.1482080741
H   H11       1.0  0.62630  0.74710  0.55500  1.0000 0.1482080741
H   H12       1.0  0.19210  0.07130  0.44500  1.0000 0.1482080741
H   H13       1.0  0.49710  0.87630  0.05500  1.0000 0.1482080741
H   H14       1.0  0.82130  0.44210  0.94500  1.0000 0.1482080741
H   H15       1.0  0.55790  0.50290  0.37920  1.0000 0.1482080741
H   H16       1.0  0.12370  0.17870  0.62080  1.0000 0.1482080741
H   H17       1.0  0.04930  0.28050  0.29960  1.0000 0.1482080741
H   H18       1.0  0.98090  0.74970  0.70040  1.0000 0.1482080741
H   H19       1.0  0.71950  0.01910  0.76880  1.0000 0.1482080741
H   H20       1.0  0.25030  0.95070  0.23120  1.0000 0.1482080741
H   H21       1.0  0.76910  0.96950  0.26880  1.0000 0.1482080741
H   H22       1.0  0.70070  0.50030  0.73120  1.0000 0.1482080741
H   H23       1.0  0.49970  0.23090  0.20040  1.0000 0.1482080741
H   H24       1.0  0.03050  0.29930  0.79960  1.0000 0.1482080741
C   C1        1.0  0.14260  0.37060  0.31360  1.0000 -0.1485147205
C   C2        1.0  0.05700  0.82900  0.68640  1.0000 -0.1485147205
C   C3        1.0  0.62940  0.94300  0.77200  1.0000 -0.1485147205
C   C4        1.0  0.17100  0.85740  0.22800  1.0000 -0.1485147205
C   C5        1.0  0.69300  0.87940  0.27200  1.0000 -0.1485147205
C   C6        1.0  0.60740  0.42100  0.72800  1.0000 -0.1485147205
C   C7        1.0  0.57900  0.30700  0.18640  1.0000 -0.1485147205
C   C8        1.0  0.12060  0.39260  0.81360  1.0000 -0.1485147205
C   C9        1.0  0.14690  0.42040  0.27110  1.0000 -0.0531231415
C   C10       1.0  0.14930  0.87580  0.72890  1.0000 -0.0531231415
C   C11       1.0  0.57960  0.85070  0.72650  1.0000 -0.0531231415
C   C12       1.0  0.12420  0.85310  0.27350  1.0000 -0.0531231415
C   C13       1.0  0.60070  0.82960  0.22650  1.0000 -0.0531231415
C   C14       1.0  0.60310  0.37420  0.77350  1.0000 -0.0531231415
C   C15       1.0  0.62580  0.39930  0.22890  1.0000 -0.0531231415
C   C16       1.0  0.17040  0.39690  0.77110  1.0000 -0.0531231415
C   C17       1.0  0.06720  0.42110  0.19870  1.0000 0.0077139323
C   C18       1.0  0.22240  0.86850  0.80130  1.0000 0.0077139323
C   C19       1.0  0.57890  0.77760  0.64610  1.0000 0.0077139323
C   C20       1.0  0.13150  0.93280  0.35390  1.0000 0.0077139323
C   C21       1.0  0.52760  0.82890  0.14610  1.0000 0.0077139323
C   C22       1.0  0.68280  0.38150  0.85390  1.0000 0.0077139323
C   C23       1.0  0.61850  0.47240  0.30130  1.0000 0.0077139323
C   C24       1.0  0.17110  0.31720  0.69870  1.0000 0.0077139323
C   C25       1.0  0.98180  0.37110  0.16650  1.0000 -0.0842889257
C   C26       1.0  0.20460  0.81530  0.83350  1.0000 -0.0842889257
C   C27       1.0  0.62890  0.79540  0.61070  1.0000 -0.0842889257
C   C28       1.0  0.18470  0.01820  0.38930  1.0000 -0.0842889257
C   C29       1.0  0.54540  0.87890  0.11070  1.0000 -0.0842889257
C   C30       1.0  0.76820  0.43470  0.88930  1.0000 -0.0842889257
C   C31       1.0  0.56530  0.45460  0.33350  1.0000 -0.0842889257
C   C32       1.0  0.12110  0.23180  0.66650  1.0000 -0.0842889257
C   C33       1.0  0.97500  0.31660  0.20240  1.0000 0.0005278812
C   C34       1.0  0.11420  0.77260  0.79760  1.0000 0.0005278812
C   C35       1.0  0.68340  0.88580  0.65840  1.0000 0.0005278812
C   C36       1.0  0.22740  0.02500  0.34160  1.0000 0.0005278812
C   C37       1.0  0.63580  0.93340  0.15840  1.0000 0.0005278812
C   C38       1.0  0.77500  0.47740  0.84160  1.0000 0.0005278812
C   C39       1.0  0.52260  0.36420  0.29760  1.0000 0.0005278812
C   C40       1.0  0.06660  0.22500  0.70240  1.0000 0.0005278812
C   C41       1.0  0.05510  0.31720  0.27570  1.0000 -0.0608000633
C   C42       1.0  0.04150  0.77940  0.72430  1.0000 -0.0608000633
C   C43       1.0  0.68280  0.95850  0.73790  1.0000 -0.0608000633
C   C44       1.0  0.22060  0.94490  0.26210  1.0000 -0.0608000633
C   C45       1.0  0.70850  0.93280  0.23790  1.0000 -0.0608000633
C   C46       1.0  0.69490  0.47060  0.76210  1.0000 -0.0608000633
C   C47       1.0  0.52940  0.29150  0.22430  1.0000 -0.0608000633
C   C48       1.0  0.06720  0.30510  0.77570  1.0000 -0.0608000633
C   C49       1.0  0.07670  0.48050  0.15820  1.0000 0.5558373771
C   C50       1.0  0.32230  0.91850  0.84180  1.0000 0.5558373771
C   C51       1.0  0.51950  0.67770  0.59620  1.0000 0.5558373771
C   C52       1.0  0.08150  0.92330  0.40380  1.0000 0.5558373771
C   C53       1.0  0.42770  0.76950  0.09620  1.0000 0.5558373771
C   C54       1.0  0.67330  0.33150  0.90380  1.0000 0.5558373771
C   C55       1.0  0.66850  0.57230  0.34180  1.0000 0.5558373771
C   C56       1.0  0.23050  0.32670  0.65820  1.0000 0.5558373771
C   C57       1.0  0.87910  0.25690  0.16080  1.0000 0.6106438182
C   C58       1.0  0.09610  0.71830  0.83920  1.0000 0.6106438182
C   C59       1.0  0.74310  0.90390  0.62220  1.0000 0.6106438182
C   C60       1.0  0.28170  0.12090  0.37780  1.0000 0.6106438182
C   C61       1.0  0.65390  0.99310  0.12220  1.0000 0.6106438182
C   C62       1.0  0.87090  0.53170  0.87780  1.0000 0.6106438182
C   C63       1.0  0.46830  0.34610  0.33920  1.0000 0.6106438182
C   C64       1.0  0.00690  0.12910  0.66080  1.0000 0.6106438182
O   O1        1.0  0.22730  0.35370  0.47020  1.0000 -0.7114021041
O   O2        1.0  0.88350  0.75710  0.52980  1.0000 -0.7114021041
O   O3        1.0  0.64630  0.11650  0.87360  1.0000 -0.7114021041
O   O4        1.0  0.24290  0.77270  0.12640  1.0000 -0.7114021041
O   O5        1.0  0.86650  0.89630  0.37360  1.0000 -0.7114021041
O   O6        1.0  0.52270  0.49290  0.62640  1.0000 -0.7114021041
O   O7        1.0  0.50710  0.13350  0.02980  1.0000 -0.7114021041
O   O8        1.0  0.10370  0.47730  0.97020  1.0000 -0.7114021041
O   O9        1.0  0.26910  0.29200  0.33850  1.0000 -0.746278257
O   O10       1.0  0.95350  0.93060  0.66150  1.0000 -0.746278257
O   O11       1.0  0.70800  0.04650  0.97710  1.0000 -0.746278257
O   O12       1.0  0.06940  0.73090  0.02290  1.0000 -0.746278257
O   O13       1.0  0.79650  0.95800  0.47710  1.0000 -0.746278257
O   O14       1.0  0.48090  0.31940  0.52290  1.0000 -0.746278257
O   O15       1.0  0.68060  0.20350  0.16150  1.0000 -0.746278257
O   O16       1.0  0.04200  0.51910  0.83850  1.0000 -0.746278257
O   O17       1.0  0.32190  0.46400  0.46130  1.0000 -0.7114021041
O   O18       1.0  0.00270  0.86060  0.53870  1.0000 -0.7114021041
O   O19       1.0  0.53600  0.99730  0.85790  1.0000 -0.7114021041
O   O20       1.0  0.13940  0.67810  0.14210  1.0000 -0.7114021041
O   O21       1.0  0.74730  0.78600  0.35790  1.0000 -0.7114021041
O   O22       1.0  0.42810  0.38940  0.64210  1.0000 -0.7114021041
O   O23       1.0  0.61060  0.25270  0.03870  1.0000 -0.7114021041
O   O24       1.0  0.21400  0.57190  0.96130  1.0000 -0.7114021041
O   O25       1.0  0.00800  0.47650  0.09050  1.0000 -0.4620087751
O   O26       1.0  0.38600  0.91750  0.90950  1.0000 -0.4620087751
O   O27       1.0  0.52350  0.61400  0.53150  1.0000 -0.4620087751
O   O28       1.0  0.08250  0.99200  0.46850  1.0000 -0.4620087751
O   O29       1.0  0.36400  0.77350  0.03150  1.0000 -0.4620087751
O   O30       1.0  0.74200  0.33250  0.96850  1.0000 -0.4620087751
O   O31       1.0  0.66750  0.63600  0.40950  1.0000 -0.4620087751
O   O32       1.0  0.22650  0.25800  0.59050  1.0000 -0.4620087751
O   O33       1.0  0.15640  0.52660  0.19160  1.0000 -0.4686568238
O   O34       1.0  0.33500  0.96480  0.80840  1.0000 -0.4686568238
O   O35       1.0  0.47340  0.66500  0.62980  1.0000 -0.4686568238
O   O36       1.0  0.03520  0.84360  0.37020  1.0000 -0.4686568238
O   O37       1.0  0.41500  0.72340  0.12980  1.0000 -0.4686568238
O   O38       1.0  0.59360  0.28520  0.87020  1.0000 -0.4686568238
O   O39       1.0  0.71480  0.58500  0.30840  1.0000 -0.4686568238
O   O40       1.0  0.27660  0.40640  0.69160  1.0000 -0.4686568238
O   O41       1.0  0.81190  0.26810  0.10600  1.0000 -0.5191827946
O   O42       1.0  0.16210  0.70590  0.89400  1.0000 -0.5191827946
O   O43       1.0  0.73190  0.83790  0.54380  1.0000 -0.5191827946
O   O44       1.0  0.29410  0.18810  0.45620  1.0000 -0.5191827946
O   O45       1.0  0.58790  0.98190  0.04380  1.0000 -0.5191827946
O   O46       1.0  0.93810  0.54410  0.95620  1.0000 -0.5191827946
O   O47       1.0  0.45590  0.41210  0.39400  1.0000 -0.5191827946
O   O48       1.0  0.01810  0.06190  0.60600  1.0000 -0.5191827946
O   O49       1.0  0.87540  0.20390  0.19210  1.0000 -0.5024225794
O   O50       1.0  0.01180  0.68330  0.80790  1.0000 -0.5024225794
O   O51       1.0  0.79610  0.98820  0.67150  1.0000 -0.5024225794
O   O52       1.0  0.31670  0.12460  0.32850  1.0000 -0.5024225794
O   O53       1.0  0.73820  0.04610  0.17150  1.0000 -0.5024225794
O   O54       1.0  0.87460  0.56670  0.82850  1.0000 -0.5024225794
O   O55       1.0  0.43330  0.26180  0.30790  1.0000 -0.5024225794
O   O56       1.0  0.95390  0.12540  0.69210  1.0000 -0.5024225794
