# DDEC6 charges by PACMAN v1.1 (https://github.com/mtap-research/PACMAN-charge/)
data_2010[Fe][nbo]3[FSR]4
_chemical_formula_sum              "Fe3 H48 C72 N30"
_cell_length_a       18.9792
_cell_length_b       18.9792
_cell_length_c       18.9792
_cell_angle_alpha    115.752
_cell_angle_beta     115.752
_cell_angle_gamma    115.752

_symmetry_space_group_name_H-M    "P 1"
_symmetry_Int_Tables_number       1

loop_
  _symmetry_equiv_pos_as_xyz
  'x, y, z'

loop_
  _atom_site_type_symbol
  _atom_site_label
  _atom_site_symmetry_multiplicity
  _atom_site_fract_x
  _atom_site_fract_y
  _atom_site_fract_z
  _atom_site_occupancy
  _atom_site_charge
Fe  Fe1       1.0  0.50000  0.00000  0.50000  1.0000 0.3039868818
Fe  Fe2       1.0  0.00000  0.50000  0.50000  1.0000 0.3039868818
Fe  Fe3       1.0  0.50000  0.50000  0.00000  1.0000 0.3039868818
H   H1        1.0  0.76200  0.07790  0.82610  1.0000 0.1418094582
H   H2        1.0  0.07790  0.82610  0.76200  1.0000 0.1418094582
H   H3        1.0  0.82610  0.76200  0.07790  1.0000 0.1418094582
H   H4        1.0  0.23800  0.92210  0.17390  1.0000 0.1418094582
H   H5        1.0  0.92210  0.17390  0.23800  1.0000 0.1418094582
H   H6        1.0  0.17390  0.23800  0.92210  1.0000 0.1418094582
H   H7        1.0  0.94960  0.22730  0.91210  1.0000 0.1089584625
H   H8        1.0  0.22730  0.91210  0.94960  1.0000 0.1089584625
H   H9        1.0  0.91210  0.94960  0.22730  1.0000 0.1089584625
H   H10       1.0  0.05040  0.77270  0.08790  1.0000 0.1089584625
H   H11       1.0  0.77270  0.08790  0.05040  1.0000 0.1089584625
H   H12       1.0  0.08790  0.05040  0.77270  1.0000 0.1089584625
H   H13       1.0  0.95340  0.28890  0.82810  1.0000 0.1317429141
H   H14       1.0  0.28890  0.82810  0.95340  1.0000 0.1317429141
H   H15       1.0  0.82810  0.95340  0.28890  1.0000 0.1317429141
H   H16       1.0  0.04660  0.71110  0.17190  1.0000 0.1317429141
H   H17       1.0  0.71110  0.17190  0.04660  1.0000 0.1317429141
H   H18       1.0  0.17190  0.04660  0.71110  1.0000 0.1317429141
H   H19       1.0  0.77860  0.20510  0.66790  1.0000 0.102803518
H   H20       1.0  0.20510  0.66790  0.77860  1.0000 0.102803518
H   H21       1.0  0.66790  0.77860  0.20510  1.0000 0.102803518
H   H22       1.0  0.22140  0.79490  0.33210  1.0000 0.102803518
H   H23       1.0  0.79490  0.33210  0.22140  1.0000 0.102803518
H   H24       1.0  0.33210  0.22140  0.79490  1.0000 0.102803518
H   H25       1.0  0.14560  0.67340  0.39890  1.0000 0.1317429141
H   H26       1.0  0.67340  0.39890  0.14560  1.0000 0.1317429141
H   H27       1.0  0.39890  0.14560  0.67340  1.0000 0.1317429141
H   H28       1.0  0.85440  0.32660  0.60110  1.0000 0.1317429141
H   H29       1.0  0.32660  0.60110  0.85440  1.0000 0.1317429141
H   H30       1.0  0.60110  0.85440  0.32660  1.0000 0.1317429141
H   H31       1.0  0.00700  0.55090  0.37470  1.0000 0.1089584625
H   H32       1.0  0.55090  0.37470  0.00700  1.0000 0.1089584625
H   H33       1.0  0.37470  0.00700  0.55090  1.0000 0.1089584625
H   H34       1.0  0.99300  0.44910  0.62530  1.0000 0.1089584625
H   H35       1.0  0.44910  0.62530  0.99300  1.0000 0.1089584625
H   H36       1.0  0.62530  0.99300  0.44910  1.0000 0.1089584625
H   H37       1.0  0.26920  0.68600  0.67820  1.0000 0.1089584625
H   H38       1.0  0.68600  0.67820  0.26920  1.0000 0.1089584625
H   H39       1.0  0.67820  0.26920  0.68600  1.0000 0.1089584625
H   H40       1.0  0.73080  0.31400  0.32180  1.0000 0.1089584625
H   H41       1.0  0.31400  0.32180  0.73080  1.0000 0.1089584625
H   H42       1.0  0.32180  0.73080  0.31400  1.0000 0.1089584625
H   H43       1.0  0.41480  0.81270  0.70950  1.0000 0.1317429141
H   H44       1.0  0.81270  0.70950  0.41480  1.0000 0.1317429141
H   H45       1.0  0.70950  0.41480  0.81270  1.0000 0.1317429141
H   H46       1.0  0.58520  0.18730  0.29050  1.0000 0.1317429141
H   H47       1.0  0.18730  0.29050  0.58520  1.0000 0.1317429141
H   H48       1.0  0.29050  0.58520  0.18730  1.0000 0.1317429141
C   C1        1.0  0.54230  0.96350  0.63520  1.0000 0.2341813342
C   C2        1.0  0.96350  0.63520  0.54230  1.0000 0.2341813342
C   C3        1.0  0.63520  0.54230  0.96350  1.0000 0.2341813342
C   C4        1.0  0.45770  0.03650  0.36480  1.0000 0.2341813342
C   C5        1.0  0.03650  0.36480  0.45770  1.0000 0.2341813342
C   C6        1.0  0.36480  0.45770  0.03650  1.0000 0.2341813342
C   C7        1.0  0.38361  0.83554  0.57145  1.0000 0.2245462284
C   C8        1.0  0.83554  0.57145  0.38361  1.0000 0.2245462284
C   C9        1.0  0.57145  0.38361  0.83554  1.0000 0.2245462284
C   C10       1.0  0.61639  0.16446  0.42855  1.0000 0.2245462284
C   C11       1.0  0.16446  0.42855  0.61639  1.0000 0.2245462284
C   C12       1.0  0.42855  0.61639  0.16446  1.0000 0.2245462284
C   C13       1.0  0.66497  0.05728  0.69805  1.0000 0.1418094582
C   C14       1.0  0.05728  0.69805  0.66497  1.0000 0.1418094582
C   C15       1.0  0.69805  0.66497  0.05728  1.0000 0.1418094582
C   C16       1.0  0.33503  0.94272  0.30195  1.0000 0.1418094582
C   C17       1.0  0.94272  0.30195  0.33503  1.0000 0.1418094582
C   C18       1.0  0.30195  0.33503  0.94272  1.0000 0.1418094582
C   C19       1.0  0.76709  0.10490  0.79461  1.0000 -0.1676428918
C   C20       1.0  0.10490  0.79461  0.76709  1.0000 -0.1676428918
C   C21       1.0  0.79461  0.76709  0.10490  1.0000 -0.1676428918
C   C22       1.0  0.23291  0.89510  0.20539  1.0000 -0.1676428918
C   C23       1.0  0.89510  0.20539  0.23291  1.0000 -0.1676428918
C   C24       1.0  0.20539  0.23291  0.89510  1.0000 -0.1676428918
C   C25       1.0  0.87729  0.19266  0.84535  1.0000 -0.0579587287
C   C26       1.0  0.19266  0.84535  0.87729  1.0000 -0.0579587287
C   C27       1.0  0.84535  0.87729  0.19266  1.0000 -0.0579587287
C   C28       1.0  0.12271  0.80734  0.15465  1.0000 -0.0579587287
C   C29       1.0  0.80734  0.15465  0.12271  1.0000 -0.0579587287
C   C30       1.0  0.15465  0.12271  0.80734  1.0000 -0.0579587287
C   C31       1.0  0.87895  0.22874  0.79531  1.0000 -0.1676428918
C   C32       1.0  0.22874  0.79531  0.87895  1.0000 -0.1676428918
C   C33       1.0  0.79531  0.87895  0.22874  1.0000 -0.1676428918
C   C34       1.0  0.12105  0.77126  0.20469  1.0000 -0.1676428918
C   C35       1.0  0.77126  0.20469  0.12105  1.0000 -0.1676428918
C   C36       1.0  0.20469  0.12105  0.77126  1.0000 -0.1676428918
C   C37       1.0  0.77450  0.17825  0.69975  1.0000 0.0465859555
C   C38       1.0  0.17825  0.69975  0.77450  1.0000 0.0448043168
C   C39       1.0  0.69975  0.77450  0.17825  1.0000 0.0465859555
C   C40       1.0  0.22550  0.82175  0.30025  1.0000 0.0448043168
C   C41       1.0  0.82175  0.30025  0.22550  1.0000 0.0465859555
C   C42       1.0  0.30025  0.22550  0.82175  1.0000 0.0448043168
C   C43       1.0  0.29609  0.75694  0.55607  1.0000 0.0809339777
C   C44       1.0  0.75694  0.55607  0.29609  1.0000 0.0809339777
C   C45       1.0  0.55607  0.29609  0.75694  1.0000 0.0809339777
C   C46       1.0  0.70391  0.24306  0.44393  1.0000 0.0809339777
C   C47       1.0  0.24306  0.44393  0.70391  1.0000 0.0809339777
C   C48       1.0  0.44393  0.70391  0.24306  1.0000 0.0809339777
C   C49       1.0  0.17312  0.67753  0.45755  1.0000 -0.186035852
C   C50       1.0  0.67753  0.45755  0.17312  1.0000 -0.186035852
C   C51       1.0  0.45755  0.17312  0.67753  1.0000 -0.186035852
C   C52       1.0  0.82688  0.32247  0.54245  1.0000 -0.186035852
C   C53       1.0  0.32247  0.54245  0.82688  1.0000 -0.186035852
C   C54       1.0  0.54245  0.82688  0.32247  1.0000 -0.186035852
C   C55       1.0  0.09083  0.60483  0.44364  1.0000 0.0465859555
C   C56       1.0  0.60483  0.44364  0.09083  1.0000 0.0465859555
C   C57       1.0  0.44364  0.09083  0.60483  1.0000 0.0465859555
C   C58       1.0  0.90917  0.39517  0.55636  1.0000 0.0465859555
C   C59       1.0  0.39517  0.55636  0.90917  1.0000 0.0465859555
C   C60       1.0  0.55636  0.90917  0.39517  1.0000 0.0465859555
C   C61       1.0  0.24394  0.68368  0.62088  1.0000 0.0560545446
C   C62       1.0  0.68368  0.62088  0.24394  1.0000 0.0560545446
C   C63       1.0  0.62088  0.24394  0.68368  1.0000 0.0560545446
C   C64       1.0  0.75606  0.31632  0.37912  1.0000 0.0560545446
C   C65       1.0  0.31632  0.37912  0.75606  1.0000 0.0560545446
C   C66       1.0  0.37912  0.75606  0.31632  1.0000 0.0560545446
C   C67       1.0  0.33142  0.75937  0.64011  1.0000 -0.182815197
C   C68       1.0  0.75937  0.64011  0.33142  1.0000 -0.182815197
C   C69       1.0  0.64011  0.33142  0.75937  1.0000 -0.182815197
C   C70       1.0  0.66858  0.24063  0.35989  1.0000 -0.182815197
C   C71       1.0  0.24063  0.35989  0.66858  1.0000 -0.182815197
C   C72       1.0  0.35989  0.66858  0.24063  1.0000 -0.182815197
N   N1        1.0  0.45241  0.92309  0.53870  1.0000 -0.1676428918
N   N2        1.0  0.92309  0.53870  0.45241  1.0000 -0.1676428918
N   N3        1.0  0.53870  0.45241  0.92309  1.0000 -0.1676428918
N   N4        1.0  0.54759  0.07691  0.46130  1.0000 -0.1676428918
N   N5        1.0  0.07691  0.46130  0.54759  1.0000 -0.1676428918
N   N6        1.0  0.46130  0.54759  0.07691  1.0000 -0.1676428918
N   N7        1.0  0.34761  0.83933  0.49566  1.0000 -0.2714528098
N   N8        1.0  0.83933  0.49566  0.34761  1.0000 -0.2714528098
N   N9        1.0  0.49566  0.34761  0.83933  1.0000 -0.2714528098
N   N10       1.0  0.65239  0.16067  0.50434  1.0000 -0.2714528098
N   N11       1.0  0.16067  0.50434  0.65239  1.0000 -0.2714528098
N   N12       1.0  0.50434  0.65239  0.16067  1.0000 -0.2714528098
N   N13       1.0  0.50495  0.91182  0.66033  1.0000 -0.4156756058
N   N14       1.0  0.91182  0.66033  0.50495  1.0000 -0.4156756058
N   N15       1.0  0.66033  0.50495  0.91182  1.0000 -0.4156756058
N   N16       1.0  0.49505  0.08818  0.33967  1.0000 -0.4156756058
N   N17       1.0  0.08818  0.33967  0.49505  1.0000 -0.4156756058
N   N18       1.0  0.33967  0.49505  0.08818  1.0000 -0.4156756058
N   N19       1.0  0.66519  0.09179  0.64772  1.0000 -0.182815197
N   N20       1.0  0.09179  0.64772  0.66519  1.0000 -0.182815197
N   N21       1.0  0.64772  0.66519  0.09179  1.0000 -0.182815197
N   N22       1.0  0.33481  0.90821  0.35228  1.0000 -0.182815197
N   N23       1.0  0.90821  0.35228  0.33481  1.0000 -0.182815197
N   N24       1.0  0.35228  0.33481  0.90821  1.0000 -0.182815197
N   N25       1.0  0.12402  0.60639  0.52469  1.0000 -0.1488351156
N   N26       1.0  0.60639  0.52469  0.12402  1.0000 -0.1488351156
N   N27       1.0  0.52469  0.12402  0.60639  1.0000 -0.1488351156
N   N28       1.0  0.87598  0.39361  0.47531  1.0000 -0.1488351156
N   N29       1.0  0.39361  0.47531  0.87598  1.0000 -0.1488351156
N   N30       1.0  0.47531  0.87598  0.39361  1.0000 -0.1488351156
