# DDEC6 charges by PACMAN v1.1 (https://github.com/mtap-research/PACMAN-charge/)
data_2010[HoAg][nan]3[FSR]2
_chemical_formula_sum              "Ho4 Ag4 H52 C56 N8 O28"
_cell_length_a       7.9573
_cell_length_b       14.9781
_cell_length_c       16.2107
_cell_angle_alpha    90
_cell_angle_beta     92.069
_cell_angle_gamma    90

_symmetry_space_group_name_H-M    "P 1"
_symmetry_Int_Tables_number       1

loop_
  _symmetry_equiv_pos_as_xyz
  'x, y, z'

loop_
  _atom_site_type_symbol
  _atom_site_label
  _atom_site_symmetry_multiplicity
  _atom_site_fract_x
  _atom_site_fract_y
  _atom_site_fract_z
  _atom_site_occupancy
  _atom_site_charge
Ho  Ho1       1.0  0.05013  0.61626  0.45478  1.0000 2.087176719
Ho  Ho2       1.0  0.44987  0.11626  0.54522  1.0000 2.087176719
Ho  Ho3       1.0  0.94987  0.38374  0.54522  1.0000 2.087176719
Ho  Ho4       1.0  0.55013  0.88374  0.45478  1.0000 2.087176719
Ag  Ag1       1.0  0.60021  0.74071  0.97302  1.0000 0.2034391102
Ag  Ag2       1.0  0.89979  0.24071  0.02698  1.0000 0.2034391102
Ag  Ag3       1.0  0.39979  0.25929  0.02698  1.0000 0.2034391102
Ag  Ag4       1.0  0.10021  0.75929  0.97302  1.0000 0.2034391102
H   H1        1.0  0.47550  0.61790  0.10610  1.0000 0.0888704595
H   H2        1.0  0.02450  0.11790  0.89390  1.0000 0.0888704595
H   H3        1.0  0.52450  0.38210  0.89390  1.0000 0.0888704595
H   H4        1.0  0.97550  0.88210  0.10610  1.0000 0.0888704595
H   H5        1.0  0.36650  0.61720  0.23600  1.0000 0.1325092048
H   H6        1.0  0.13350  0.11720  0.76400  1.0000 0.1325092048
H   H7        1.0  0.63350  0.38280  0.76400  1.0000 0.1325092048
H   H8        1.0  0.86650  0.88280  0.23600  1.0000 0.1325092048
H   H9        1.0  0.40090  0.88460  0.23880  1.0000 0.1405449671
H   H10       1.0  0.09910  0.38460  0.76120  1.0000 0.1405449671
H   H11       1.0  0.59910  0.11540  0.76120  1.0000 0.1405449671
H   H12       1.0  0.90090  0.61540  0.23880  1.0000 0.1405449671
H   H13       1.0  0.50480  0.87880  0.10820  1.0000 0.0888704595
H   H14       1.0  0.99520  0.37880  0.89180  1.0000 0.0888704595
H   H15       1.0  0.49520  0.12120  0.89180  1.0000 0.0888704595
H   H16       1.0  0.00480  0.62120  0.10820  1.0000 0.0888704595
H   H17       1.0  0.67620  0.80710  0.79070  1.0000 0.1034316116
H   H18       1.0  0.82380  0.30710  0.20930  1.0000 0.1034316116
H   H19       1.0  0.32380  0.19290  0.20930  1.0000 0.1034316116
H   H20       1.0  0.17620  0.69290  0.79070  1.0000 0.1034316116
H   H21       1.0  0.76130  0.74940  0.66770  1.0000 0.1577504438
H   H22       1.0  0.73870  0.24940  0.33230  1.0000 0.1577504438
H   H23       1.0  0.23870  0.25060  0.33230  1.0000 0.1577504438
H   H24       1.0  0.26130  0.75060  0.66770  1.0000 0.1577504438
H   H25       1.0  0.82280  0.51250  0.77930  1.0000 0.1325092048
H   H26       1.0  0.67720  0.01250  0.22070  1.0000 0.1325092048
H   H27       1.0  0.17720  0.48750  0.22070  1.0000 0.1325092048
H   H28       1.0  0.32280  0.98750  0.77930  1.0000 0.1325092048
H   H29       1.0  0.73950  0.57640  0.89980  1.0000 0.0840770092
H   H30       1.0  0.76050  0.07640  0.10020  1.0000 0.0840770092
H   H31       1.0  0.26050  0.42360  0.10020  1.0000 0.0840770092
H   H32       1.0  0.23950  0.92360  0.89980  1.0000 0.0840770092
H   H33       1.0  0.43470  0.55430  0.67270  1.0000 0.1405449671
H   H34       1.0  0.06530  0.05430  0.32730  1.0000 0.1405449671
H   H35       1.0  0.56530  0.44570  0.32730  1.0000 0.1405449671
H   H36       1.0  0.93470  0.94570  0.67270  1.0000 0.1405449671
H   H37       1.0  0.34950  0.46010  0.66490  1.0000 0.1577504438
H   H38       1.0  0.15050  0.96010  0.33510  1.0000 0.1577504438
H   H39       1.0  0.65050  0.53990  0.33510  1.0000 0.1577504438
H   H40       1.0  0.84950  0.03990  0.66490  1.0000 0.1577504438
H   H41       1.0  0.50290  0.48360  0.61090  1.0000 0.1753672895
H   H42       1.0  0.99710  0.98360  0.38910  1.0000 0.1753672895
H   H43       1.0  0.49710  0.51640  0.38910  1.0000 0.1753672895
H   H44       1.0  0.00290  0.01640  0.61090  1.0000 0.1753672895
H   H45       1.0  0.00300  0.80100  0.51500  1.0000 0.3362242964
H   H46       1.0  0.49700  0.30100  0.48500  1.0000 0.3362242964
H   H47       1.0  0.99700  0.19900  0.48500  1.0000 0.3362242964
H   H48       1.0  0.50300  0.69900  0.51500  1.0000 0.3362242964
H   H49       1.0  0.14700  0.80100  0.48000  1.0000 0.3264128652
H   H50       1.0  0.35300  0.30100  0.52000  1.0000 0.3264128652
H   H51       1.0  0.85300  0.19900  0.52000  1.0000 0.3264128652
H   H52       1.0  0.64700  0.69900  0.48000  1.0000 0.3264128652
C   C1        1.0  0.45940  0.67190  0.13300  1.0000 0.020416721
C   C2        1.0  0.04060  0.17190  0.86700  1.0000 0.020416721
C   C3        1.0  0.54060  0.32810  0.86700  1.0000 0.020416721
C   C4        1.0  0.95940  0.82810  0.13300  1.0000 0.020416721
C   C5        1.0  0.39470  0.67100  0.21130  1.0000 -0.1591199848
C   C6        1.0  0.10530  0.17100  0.78870  1.0000 -0.1591199848
C   C7        1.0  0.60530  0.32900  0.78870  1.0000 -0.1591199848
C   C8        1.0  0.89470  0.82900  0.21130  1.0000 -0.1591199848
C   C9        1.0  0.37220  0.75140  0.25270  1.0000 0.020416721
C   C10       1.0  0.12780  0.25140  0.74730  1.0000 0.020416721
C   C11       1.0  0.62780  0.24860  0.74730  1.0000 0.020416721
C   C12       1.0  0.87220  0.74860  0.25270  1.0000 0.020416721
C   C13       1.0  0.41450  0.82980  0.21290  1.0000 -0.1591199848
C   C14       1.0  0.08550  0.32980  0.78710  1.0000 -0.1591199848
C   C15       1.0  0.58550  0.17020  0.78710  1.0000 -0.1591199848
C   C16       1.0  0.91450  0.67020  0.21290  1.0000 -0.1591199848
C   C17       1.0  0.47720  0.82580  0.13440  1.0000 0.0290805982
C   C18       1.0  0.02280  0.32580  0.86560  1.0000 0.0290805982
C   C19       1.0  0.52280  0.17420  0.86560  1.0000 0.0290805982
C   C20       1.0  0.97720  0.67420  0.13440  1.0000 0.0290805982
C   C21       1.0  0.30230  0.75090  0.33760  1.0000 0.6259417322
C   C22       1.0  0.19770  0.25090  0.66240  1.0000 0.6259417322
C   C23       1.0  0.69770  0.24910  0.66240  1.0000 0.6259417322
C   C24       1.0  0.80230  0.74910  0.33760  1.0000 0.6259417322
C   C25       1.0  0.70600  0.74720  0.78810  1.0000 0.0290805982
C   C26       1.0  0.79400  0.24720  0.21190  1.0000 0.0290805982
C   C27       1.0  0.29400  0.25280  0.21190  1.0000 0.0290805982
C   C28       1.0  0.20600  0.75280  0.78810  1.0000 0.0290805982
C   C29       1.0  0.75700  0.71310  0.71420  1.0000 -0.1467648733
C   C30       1.0  0.74300  0.21310  0.28580  1.0000 -0.1467648733
C   C31       1.0  0.24300  0.28690  0.28580  1.0000 -0.1467648733
C   C32       1.0  0.25700  0.78690  0.71420  1.0000 -0.1467648733
C   C33       1.0  0.80200  0.62350  0.71000  1.0000 0.0290805982
C   C34       1.0  0.69800  0.12350  0.29000  1.0000 0.0290805982
C   C35       1.0  0.19800  0.37650  0.29000  1.0000 0.0290805982
C   C36       1.0  0.30200  0.87650  0.71000  1.0000 0.0290805982
C   C37       1.0  0.79390  0.57260  0.78040  1.0000 -0.1689172003
C   C38       1.0  0.70610  0.07260  0.21960  1.0000 -0.1689172003
C   C39       1.0  0.20610  0.42740  0.21960  1.0000 -0.1689172003
C   C40       1.0  0.29390  0.92740  0.78040  1.0000 -0.1689172003
C   C41       1.0  0.74280  0.61130  0.85240  1.0000 0.020416721
C   C42       1.0  0.75720  0.11130  0.14760  1.0000 0.020416721
C   C43       1.0  0.25720  0.38870  0.14760  1.0000 0.020416721
C   C44       1.0  0.24280  0.88870  0.85240  1.0000 0.020416721
C   C45       1.0  0.86040  0.58130  0.63170  1.0000 0.6216053155
C   C46       1.0  0.63960  0.08130  0.36830  1.0000 0.6216053155
C   C47       1.0  0.13960  0.41870  0.36830  1.0000 0.6216053155
C   C48       1.0  0.36040  0.91870  0.63170  1.0000 0.6216053155
C   C49       1.0  0.28640  0.54170  0.56910  1.0000 0.7216380325
C   C50       1.0  0.21360  0.04170  0.43090  1.0000 0.7216380325
C   C51       1.0  0.71360  0.45830  0.43090  1.0000 0.7216380325
C   C52       1.0  0.78640  0.95830  0.56910  1.0000 0.7216380325
C   C53       1.0  0.40390  0.50680  0.63530  1.0000 -0.6213101211
C   C54       1.0  0.09610  0.00680  0.36470  1.0000 -0.6213101211
C   C55       1.0  0.59610  0.49320  0.36470  1.0000 -0.6213101211
C   C56       1.0  0.90390  0.99320  0.63530  1.0000 -0.6213101211
N   N1        1.0  0.49970  0.74830  0.09479  1.0000 -0.2036270456
N   N2        1.0  0.00030  0.24830  0.90521  1.0000 -0.2064534787
N   N3        1.0  0.50030  0.25170  0.90521  1.0000 -0.2036270456
N   N4        1.0  0.99970  0.75170  0.09479  1.0000 -0.2036270456
N   N5        1.0  0.69770  0.69710  0.85670  1.0000 -0.2036270456
N   N6        1.0  0.80230  0.19710  0.14330  1.0000 -0.2036270456
N   N7        1.0  0.30230  0.30290  0.14330  1.0000 -0.2036270456
N   N8        1.0  0.19770  0.80290  0.85670  1.0000 -0.2036270456
O   O1        1.0  0.21890  0.68456  0.35891  1.0000 -0.6479810912
O   O2        1.0  0.28110  0.18456  0.64109  1.0000 -0.6479810912
O   O3        1.0  0.78110  0.31544  0.64109  1.0000 -0.6479810912
O   O4        1.0  0.71890  0.81544  0.35891  1.0000 -0.6479810912
O   O5        1.0  0.33150  0.81890  0.38288  1.0000 -0.6958786461
O   O6        1.0  0.16850  0.31890  0.61712  1.0000 -0.6949310514
O   O7        1.0  0.66850  0.18110  0.61712  1.0000 -0.6949310514
O   O8        1.0  0.83150  0.68110  0.38288  1.0000 -0.6958786461
O   O9        1.0  0.90420  0.63303  0.57479  1.0000 -0.6580252263
O   O10       1.0  0.59580  0.13303  0.42521  1.0000 -0.6580252263
O   O11       1.0  0.09580  0.36697  0.42521  1.0000 -0.6580252263
O   O12       1.0  0.40420  0.86697  0.57479  1.0000 -0.6580252263
O   O13       1.0  0.85870  0.49704  0.62904  1.0000 -0.6717741701
O   O14       1.0  0.64130  0.99704  0.37096  1.0000 -0.6717741701
O   O15       1.0  0.14130  0.50296  0.37096  1.0000 -0.6717741701
O   O16       1.0  0.35870  0.00296  0.62904  1.0000 -0.6717741701
O   O17       1.0  0.15700  0.49734  0.54864  1.0000 -0.7592172983
O   O18       1.0  0.34300  0.99734  0.45136  1.0000 -0.7592172983
O   O19       1.0  0.84300  0.50266  0.45136  1.0000 -0.7592172983
O   O20       1.0  0.65700  0.00266  0.54864  1.0000 -0.7592172983
O   O21       1.0  0.31250  0.61525  0.53407  1.0000 -0.6479810912
O   O22       1.0  0.18750  0.11525  0.46593  1.0000 -0.6479810912
O   O23       1.0  0.68750  0.38475  0.46593  1.0000 -0.6479810912
O   O24       1.0  0.81250  0.88475  0.53407  1.0000 -0.6479810912
O   O25       1.0  0.07630  0.76845  0.49859  1.0000 -0.7295794997
O   O26       1.0  0.42370  0.26845  0.50141  1.0000 -0.7295794997
O   O27       1.0  0.92370  0.23155  0.50141  1.0000 -0.7295794997
O   O28       1.0  0.57630  0.73155  0.49859  1.0000 -0.7295794997
