# DDEC6 charges by PACMAN v1.1 (https://github.com/mtap-research/PACMAN-charge/)
data_2010[Cu][nbo]3[FSR]1
_chemical_formula_sum              "Cu12 H72 C120 N48 O48"
_cell_length_a       25.2869
_cell_length_b       25.2869
_cell_length_c       25.2869
_cell_angle_alpha    118.978
_cell_angle_beta     118.978
_cell_angle_gamma    118.978

_symmetry_space_group_name_H-M    "P 1"
_symmetry_Int_Tables_number       1

loop_
  _symmetry_equiv_pos_as_xyz
  'x, y, z'

loop_
  _atom_site_type_symbol
  _atom_site_label
  _atom_site_symmetry_multiplicity
  _atom_site_fract_x
  _atom_site_fract_y
  _atom_site_fract_z
  _atom_site_occupancy
  _atom_site_charge
Cu  Cu1       1.0  0.25327  0.24745  0.00073  1.0000 0.7570830625
Cu  Cu2       1.0  0.24745  0.00073  0.25327  1.0000 0.7570830625
Cu  Cu3       1.0  0.00073  0.25327  0.24745  1.0000 0.7570830625
Cu  Cu4       1.0  0.74673  0.75255  0.99927  1.0000 0.7570830625
Cu  Cu5       1.0  0.75255  0.99927  0.74673  1.0000 0.7570830625
Cu  Cu6       1.0  0.99927  0.74673  0.75255  1.0000 0.7570830625
Cu  Cu7       1.0  0.74893  0.49240  0.24976  1.0000 0.7570830625
Cu  Cu8       1.0  0.49240  0.24976  0.74893  1.0000 0.7570830625
Cu  Cu9       1.0  0.24976  0.74893  0.49240  1.0000 0.7570830625
Cu  Cu10      1.0  0.25107  0.50760  0.75024  1.0000 0.7570830625
Cu  Cu11      1.0  0.50760  0.75024  0.25107  1.0000 0.7570830625
Cu  Cu12      1.0  0.75024  0.25107  0.50760  1.0000 0.7570830625
H   H1        1.0  0.01480  0.93190  0.69240  1.0000 0.1094265351
H   H2        1.0  0.93190  0.69240  0.01480  1.0000 0.1094265351
H   H3        1.0  0.69240  0.01480  0.93190  1.0000 0.1094265351
H   H4        1.0  0.98520  0.06810  0.30760  1.0000 0.1094265351
H   H5        1.0  0.06810  0.30760  0.98520  1.0000 0.1094265351
H   H6        1.0  0.30760  0.98520  0.06810  1.0000 0.1094265351
H   H7        1.0  0.52140  0.43110  0.15150  1.0000 0.1094265351
H   H8        1.0  0.43110  0.15150  0.52140  1.0000 0.1094265351
H   H9        1.0  0.15150  0.52140  0.43110  1.0000 0.1094265351
H   H10       1.0  0.47860  0.56890  0.84850  1.0000 0.1094265351
H   H11       1.0  0.56890  0.84850  0.47860  1.0000 0.1094265351
H   H12       1.0  0.84850  0.47860  0.56890  1.0000 0.1094265351
H   H13       1.0  0.27090  0.06650  0.77960  1.0000 0.1094265351
H   H14       1.0  0.06650  0.77960  0.27090  1.0000 0.1094265351
H   H15       1.0  0.77960  0.27090  0.06650  1.0000 0.1094265351
H   H16       1.0  0.72910  0.93350  0.22040  1.0000 0.1094265351
H   H17       1.0  0.93350  0.22040  0.72910  1.0000 0.1094265351
H   H18       1.0  0.22040  0.72910  0.93350  1.0000 0.1094265351
H   H19       1.0  0.48710  0.06200  0.80160  1.0000 0.1094265351
H   H20       1.0  0.06200  0.80160  0.48710  1.0000 0.1094265351
H   H21       1.0  0.80160  0.48710  0.06200  1.0000 0.1094265351
H   H22       1.0  0.51290  0.93800  0.19840  1.0000 0.1094265351
H   H23       1.0  0.93800  0.19840  0.51290  1.0000 0.1094265351
H   H24       1.0  0.19840  0.51290  0.93800  1.0000 0.1094265351
H   H25       1.0  0.98990  0.56320  0.35220  1.0000 0.1094265351
H   H26       1.0  0.56320  0.35220  0.98990  1.0000 0.1094265351
H   H27       1.0  0.35220  0.98990  0.56320  1.0000 0.1094265351
H   H28       1.0  0.01010  0.43680  0.64780  1.0000 0.1094265351
H   H29       1.0  0.43680  0.64780  0.01010  1.0000 0.1094265351
H   H30       1.0  0.64780  0.01010  0.43680  1.0000 0.1094265351
H   H31       1.0  0.23420  0.92070  0.72150  1.0000 0.1167399838
H   H32       1.0  0.92070  0.72150  0.23420  1.0000 0.1167399838
H   H33       1.0  0.72150  0.23420  0.92070  1.0000 0.1167399838
H   H34       1.0  0.76580  0.07930  0.27850  1.0000 0.1167399838
H   H35       1.0  0.07930  0.27850  0.76580  1.0000 0.1167399838
H   H36       1.0  0.27850  0.76580  0.07930  1.0000 0.1167399838
H   H37       1.0  0.78000  0.76620  0.57420  1.0000 0.1167399838
H   H38       1.0  0.76620  0.57420  0.78000  1.0000 0.1167399838
H   H39       1.0  0.57420  0.78000  0.76620  1.0000 0.1167399838
H   H40       1.0  0.22000  0.23380  0.42580  1.0000 0.1167399838
H   H41       1.0  0.23380  0.42580  0.22000  1.0000 0.1167399838
H   H42       1.0  0.42580  0.22000  0.23380  1.0000 0.1167399838
H   H43       1.0  0.14800  0.01270  0.93650  1.0000 0.1094265351
H   H44       1.0  0.01270  0.93650  0.14800  1.0000 0.1094265351
H   H45       1.0  0.93650  0.14800  0.01270  1.0000 0.1094265351
H   H46       1.0  0.85200  0.98730  0.06350  1.0000 0.1094265351
H   H47       1.0  0.98730  0.06350  0.85200  1.0000 0.1094265351
H   H48       1.0  0.06350  0.85200  0.98730  1.0000 0.1094265351
H   H49       1.0  0.69070  0.50740  0.43750  1.0000 0.1094265351
H   H50       1.0  0.50740  0.43750  0.69070  1.0000 0.1094265351
H   H51       1.0  0.43750  0.69070  0.50740  1.0000 0.1094265351
H   H52       1.0  0.30930  0.49260  0.56250  1.0000 0.1094265351
H   H53       1.0  0.49260  0.56250  0.30930  1.0000 0.1094265351
H   H54       1.0  0.56250  0.30930  0.49260  1.0000 0.1094265351
H   H55       1.0  0.82240  0.99230  0.56670  1.0000 0.1094265351
H   H56       1.0  0.99230  0.56670  0.82240  1.0000 0.1094265351
H   H57       1.0  0.56670  0.82240  0.99230  1.0000 0.1094265351
H   H58       1.0  0.17760  0.00770  0.43330  1.0000 0.1094265351
H   H59       1.0  0.00770  0.43330  0.17760  1.0000 0.1094265351
H   H60       1.0  0.43330  0.17760  0.00770  1.0000 0.1094265351
H   H61       1.0  0.35850  0.48350  0.06610  1.0000 0.1094265351
H   H62       1.0  0.48350  0.06610  0.35850  1.0000 0.1094265351
H   H63       1.0  0.06610  0.35850  0.48350  1.0000 0.1094265351
H   H64       1.0  0.64150  0.51650  0.93390  1.0000 0.1094265351
H   H65       1.0  0.51650  0.93390  0.64150  1.0000 0.1094265351
H   H66       1.0  0.93390  0.64150  0.51650  1.0000 0.1094265351
H   H67       1.0  0.72640  0.72880  0.42640  1.0000 0.1167399838
H   H68       1.0  0.72880  0.42640  0.72640  1.0000 0.1167399838
H   H69       1.0  0.42640  0.72640  0.72880  1.0000 0.1167399838
H   H70       1.0  0.27360  0.27120  0.57360  1.0000 0.1167399838
H   H71       1.0  0.27120  0.57360  0.27360  1.0000 0.1167399838
H   H72       1.0  0.57360  0.27360  0.27120  1.0000 0.1167399838
C   C1        1.0  0.94375  0.77021  0.52314  1.0000 0.5640056573
C   C2        1.0  0.77021  0.52314  0.94375  1.0000 0.5640056573
C   C3        1.0  0.52314  0.94375  0.77021  1.0000 0.5640056573
C   C4        1.0  0.05625  0.22979  0.47686  1.0000 0.5640056573
C   C5        1.0  0.22979  0.47686  0.05625  1.0000 0.5640056573
C   C6        1.0  0.47686  0.05625  0.22979  1.0000 0.5640056573
C   C7        1.0  0.11634  0.96714  0.70832  1.0000 -0.0792109046
C   C8        1.0  0.96714  0.70832  0.11634  1.0000 -0.0792109046
C   C9        1.0  0.70832  0.11634  0.96714  1.0000 -0.0792109046
C   C10       1.0  0.88366  0.03286  0.29168  1.0000 -0.0792109046
C   C11       1.0  0.03286  0.29168  0.88366  1.0000 -0.0792109046
C   C12       1.0  0.29168  0.88366  0.03286  1.0000 -0.0792109046
C   C13       1.0  0.12036  0.01944  0.76840  1.0000 0.1094265351
C   C14       1.0  0.01944  0.76840  0.12036  1.0000 0.1004715133
C   C15       1.0  0.76840  0.12036  0.01944  1.0000 0.1094265351
C   C16       1.0  0.87964  0.98056  0.23160  1.0000 0.1094265351
C   C17       1.0  0.98056  0.23160  0.87964  1.0000 0.1094265351
C   C18       1.0  0.23160  0.87964  0.98056  1.0000 0.1094265351
C   C19       1.0  0.41510  0.30970  0.03450  1.0000 0.2380392601
C   C20       1.0  0.30970  0.03450  0.41510  1.0000 0.2380392601
C   C21       1.0  0.03450  0.41510  0.30970  1.0000 0.2380392601
C   C22       1.0  0.58490  0.69030  0.96550  1.0000 0.2380392601
C   C23       1.0  0.69030  0.96550  0.58490  1.0000 0.2380392601
C   C24       1.0  0.96550  0.58490  0.69030  1.0000 0.2380392601
C   C25       1.0  0.27188  0.09932  0.82110  1.0000 0.0929762253
C   C26       1.0  0.09932  0.82110  0.27188  1.0000 0.0929762253
C   C27       1.0  0.82110  0.27188  0.09932  1.0000 0.0929762253
C   C28       1.0  0.72812  0.90068  0.17890  1.0000 0.0929762253
C   C29       1.0  0.90068  0.17890  0.72812  1.0000 0.0929762253
C   C30       1.0  0.17890  0.72812  0.90068  1.0000 0.0929762253
C   C31       1.0  0.56000  0.22050  0.97640  1.0000 0.5640056573
C   C32       1.0  0.22050  0.97640  0.56000  1.0000 0.5640056573
C   C33       1.0  0.97640  0.56000  0.22050  1.0000 0.5640056573
C   C34       1.0  0.44000  0.77950  0.02360  1.0000 0.5640056573
C   C35       1.0  0.77950  0.02360  0.44000  1.0000 0.5640056573
C   C36       1.0  0.02360  0.44000  0.77950  1.0000 0.5640056573
C   C37       1.0  0.38920  0.02570  0.79270  1.0000 -0.0792109046
C   C38       1.0  0.02570  0.79270  0.38920  1.0000 -0.0792109046
C   C39       1.0  0.79270  0.38920  0.02570  1.0000 -0.0792109046
C   C40       1.0  0.61080  0.97430  0.20730  1.0000 -0.0792109046
C   C41       1.0  0.97430  0.20730  0.61080  1.0000 -0.0792109046
C   C42       1.0  0.20730  0.61080  0.97430  1.0000 -0.0792109046
C   C43       1.0  0.38360  0.97420  0.72860  1.0000 0.1004715133
C   C44       1.0  0.97420  0.72860  0.38360  1.0000 0.1004715133
C   C45       1.0  0.72860  0.38360  0.97420  1.0000 0.1004715133
C   C46       1.0  0.61640  0.02580  0.27140  1.0000 0.1004715133
C   C47       1.0  0.02580  0.27140  0.61640  1.0000 0.1004715133
C   C48       1.0  0.27140  0.61640  0.02580  1.0000 0.1004715133
C   C49       1.0  0.09400  0.68390  0.46760  1.0000 0.2380392601
C   C50       1.0  0.68390  0.46760  0.09400  1.0000 0.2380392601
C   C51       1.0  0.46760  0.09400  0.68390  1.0000 0.2380392601
C   C52       1.0  0.90600  0.31610  0.53240  1.0000 0.2380392601
C   C53       1.0  0.31610  0.53240  0.90600  1.0000 0.2380392601
C   C54       1.0  0.53240  0.90600  0.31610  1.0000 0.2380392601
C   C55       1.0  0.23410  0.89010  0.68020  1.0000 0.1004715133
C   C56       1.0  0.89010  0.68020  0.23410  1.0000 0.1004715133
C   C57       1.0  0.68020  0.23410  0.89010  1.0000 0.1004715133
C   C58       1.0  0.76590  0.10990  0.31980  1.0000 0.1004715133
C   C59       1.0  0.10990  0.31980  0.76590  1.0000 0.1004715133
C   C60       1.0  0.31980  0.76590  0.10990  1.0000 0.1004715133
C   C61       1.0  0.52310  0.43950  0.27790  1.0000 0.5640056573
C   C62       1.0  0.43950  0.27790  0.52310  1.0000 0.5640056573
C   C63       1.0  0.27790  0.52310  0.43950  1.0000 0.5640056573
C   C64       1.0  0.47690  0.56050  0.72210  1.0000 0.5640056573
C   C65       1.0  0.56050  0.72210  0.47690  1.0000 0.5640056573
C   C66       1.0  0.72210  0.47690  0.56050  1.0000 0.5640056573
C   C67       1.0  0.70670  0.61090  0.47340  1.0000 -0.0792109046
C   C68       1.0  0.61090  0.47340  0.70670  1.0000 -0.0792109046
C   C69       1.0  0.47340  0.70670  0.61090  1.0000 -0.0792109046
C   C70       1.0  0.29330  0.38910  0.52660  1.0000 -0.0792109046
C   C71       1.0  0.38910  0.52660  0.29330  1.0000 -0.0792109046
C   C72       1.0  0.52660  0.29330  0.38910  1.0000 -0.0792109046
C   C73       1.0  0.82050  0.76600  0.60620  1.0000 0.0825424609
C   C74       1.0  0.76600  0.60620  0.82050  1.0000 0.0825424609
C   C75       1.0  0.60620  0.82050  0.76600  1.0000 0.0825424609
C   C76       1.0  0.17950  0.23400  0.39380  1.0000 0.0825424609
C   C77       1.0  0.23400  0.39380  0.17950  1.0000 0.0825424609
C   C78       1.0  0.39380  0.17950  0.23400  1.0000 0.0825424609
C   C79       1.0  0.03200  0.90760  0.81530  1.0000 0.2380392601
C   C80       1.0  0.90760  0.81530  0.03200  1.0000 0.2380392601
C   C81       1.0  0.81530  0.03200  0.90760  1.0000 0.2380392601
C   C82       1.0  0.96800  0.09240  0.18470  1.0000 0.2380392601
C   C83       1.0  0.09240  0.18470  0.96800  1.0000 0.2380392601
C   C84       1.0  0.18470  0.96800  0.09240  1.0000 0.2380392601
C   C85       1.0  0.76630  0.61280  0.52470  1.0000 0.1004715133
C   C86       1.0  0.61280  0.52470  0.76630  1.0000 0.1004715133
C   C87       1.0  0.52470  0.76630  0.61280  1.0000 0.1004715133
C   C88       1.0  0.23370  0.38720  0.47530  1.0000 0.1004715133
C   C89       1.0  0.38720  0.47530  0.23370  1.0000 0.1004715133
C   C90       1.0  0.47530  0.23370  0.38720  1.0000 0.1004715133
C   C91       1.0  0.98550  0.05690  0.72330  1.0000 0.567607993
C   C92       1.0  0.05690  0.72330  0.98550  1.0000 0.567607993
C   C93       1.0  0.72330  0.98550  0.05690  1.0000 0.567607993
C   C94       1.0  0.01450  0.94310  0.27670  1.0000 0.567607993
C   C95       1.0  0.94310  0.27670  0.01450  1.0000 0.567607993
C   C96       1.0  0.27670  0.01450  0.94310  1.0000 0.567607993
C   C97       1.0  0.80260  0.88670  0.52830  1.0000 -0.0792109046
C   C98       1.0  0.88670  0.52830  0.80260  1.0000 -0.0792109046
C   C99       1.0  0.52830  0.80260  0.88670  1.0000 -0.0792109046
C   C100      1.0  0.19740  0.11330  0.47170  1.0000 -0.0792109046
C   C101      1.0  0.11330  0.47170  0.19740  1.0000 -0.0792109046
C   C102      1.0  0.47170  0.19740  0.11330  1.0000 -0.0792109046
C   C103      1.0  0.74430  0.88530  0.47790  1.0000 0.1094265351
C   C104      1.0  0.88530  0.47790  0.74430  1.0000 0.1094265351
C   C105      1.0  0.47790  0.74430  0.88530  1.0000 0.1094265351
C   C106      1.0  0.25570  0.11470  0.52210  1.0000 0.1094265351
C   C107      1.0  0.11470  0.52210  0.25570  1.0000 0.1094265351
C   C108      1.0  0.52210  0.25570  0.11470  1.0000 0.1094265351
C   C109      1.0  0.47590  0.58960  0.18730  1.0000 0.2322790515
C   C110      1.0  0.58960  0.18730  0.47590  1.0000 0.2322790515
C   C111      1.0  0.18730  0.47590  0.58960  1.0000 0.2322790515
C   C112      1.0  0.52410  0.41040  0.81270  1.0000 0.2322790515
C   C113      1.0  0.41040  0.81270  0.52410  1.0000 0.2322790515
C   C114      1.0  0.81270  0.52410  0.41040  1.0000 0.2322790515
C   C115      1.0  0.68720  0.73000  0.39510  1.0000 0.0929762253
C   C116      1.0  0.73000  0.39510  0.68720  1.0000 0.0929762253
C   C117      1.0  0.39510  0.68720  0.73000  1.0000 0.0929762253
C   C118      1.0  0.31280  0.27000  0.60490  1.0000 0.0929762253
C   C119      1.0  0.27000  0.60490  0.31280  1.0000 0.0929762253
C   C120      1.0  0.60490  0.31280  0.27000  1.0000 0.0929762253
N   N1        1.0  0.26892  0.19125  0.93193  1.0000 -0.2629085075
N   N2        1.0  0.19125  0.93193  0.26892  1.0000 -0.2629085075
N   N3        1.0  0.93193  0.26892  0.19125  1.0000 -0.2629085075
N   N4        1.0  0.73108  0.80875  0.06807  1.0000 -0.2629085075
N   N5        1.0  0.80875  0.06807  0.73108  1.0000 -0.2629085075
N   N6        1.0  0.06807  0.73108  0.80875  1.0000 -0.2629085075
N   N7        1.0  0.42529  0.27397  0.98864  1.0000 -0.2866380148
N   N8        1.0  0.27397  0.98864  0.42529  1.0000 -0.2866380148
N   N9        1.0  0.98864  0.42529  0.27397  1.0000 -0.2866380148
N   N10       1.0  0.57471  0.72603  0.01136  1.0000 -0.2866380148
N   N11       1.0  0.72603  0.01136  0.57471  1.0000 -0.2866380148
N   N12       1.0  0.01136  0.57471  0.72603  1.0000 -0.2866380148
N   N13       1.0  0.23517  0.80238  0.56495  1.0000 -0.2629085075
N   N14       1.0  0.80238  0.56495  0.23517  1.0000 -0.2629085075
N   N15       1.0  0.56495  0.23517  0.80238  1.0000 -0.2629085075
N   N16       1.0  0.76483  0.19762  0.43505  1.0000 -0.2629085075
N   N17       1.0  0.19762  0.43505  0.76483  1.0000 -0.2629085075
N   N18       1.0  0.43505  0.76483  0.19762  1.0000 -0.2629085075
N   N19       1.0  0.08273  0.71620  0.51407  1.0000 -0.2866380148
N   N20       1.0  0.71620  0.51407  0.08273  1.0000 -0.2866380148
N   N21       1.0  0.51407  0.08273  0.71620  1.0000 -0.2866380148
N   N22       1.0  0.91727  0.28380  0.48593  1.0000 -0.2866380148
N   N23       1.0  0.28380  0.48593  0.91727  1.0000 -0.2866380148
N   N24       1.0  0.48593  0.91727  0.28380  1.0000 -0.2866380148
N   N25       1.0  0.93097  0.76353  0.69770  1.0000 -0.2629085075
N   N26       1.0  0.76353  0.69770  0.93097  1.0000 -0.2629085075
N   N27       1.0  0.69770  0.93097  0.76353  1.0000 -0.2629085075
N   N28       1.0  0.06903  0.23647  0.30230  1.0000 -0.2629085075
N   N29       1.0  0.23647  0.30230  0.06903  1.0000 -0.2629085075
N   N30       1.0  0.30230  0.06903  0.23647  1.0000 -0.2629085075
N   N31       1.0  0.98790  0.91990  0.78140  1.0000 -0.2866380148
N   N32       1.0  0.91990  0.78140  0.98790  1.0000 -0.2866380148
N   N33       1.0  0.78140  0.98790  0.91990  1.0000 -0.2866380148
N   N34       1.0  0.01210  0.08010  0.21860  1.0000 -0.2866380148
N   N35       1.0  0.08010  0.21860  0.01210  1.0000 -0.2866380148
N   N36       1.0  0.21860  0.01210  0.08010  1.0000 -0.2866380148
N   N37       1.0  0.58009  0.73717  0.30664  1.0000 -0.2659474421
N   N38       1.0  0.73717  0.30664  0.58009  1.0000 -0.2659474421
N   N39       1.0  0.30664  0.58009  0.73717  1.0000 -0.2659474421
N   N40       1.0  0.41991  0.26283  0.69336  1.0000 -0.2659474421
N   N41       1.0  0.26283  0.69336  0.41991  1.0000 -0.2659474421
N   N42       1.0  0.69336  0.41991  0.26283  1.0000 -0.2659474421
N   N43       1.0  0.52030  0.57780  0.22160  1.0000 -0.2866380148
N   N44       1.0  0.57780  0.22160  0.52030  1.0000 -0.2866380148
N   N45       1.0  0.22160  0.52030  0.57780  1.0000 -0.2866380148
N   N46       1.0  0.47970  0.42220  0.77840  1.0000 -0.2866380148
N   N47       1.0  0.42220  0.77840  0.47970  1.0000 -0.2866380148
N   N48       1.0  0.77840  0.47970  0.42220  1.0000 -0.2866380148
O   O1        1.0  0.96068  0.73523  0.48959  1.0000 -0.559898874
O   O2        1.0  0.73523  0.48959  0.96068  1.0000 -0.559898874
O   O3        1.0  0.48959  0.96068  0.73523  1.0000 -0.559898874
O   O4        1.0  0.03932  0.26477  0.51041  1.0000 -0.559898874
O   O5        1.0  0.26477  0.51041  0.03932  1.0000 -0.559898874
O   O6        1.0  0.51041  0.03932  0.26477  1.0000 -0.559898874
O   O7        1.0  0.80956  0.66563  0.42561  1.0000 -0.519353773
O   O8        1.0  0.66563  0.42561  0.80956  1.0000 -0.519353773
O   O9        1.0  0.42561  0.80956  0.66563  1.0000 -0.519353773
O   O10       1.0  0.19044  0.33437  0.57439  1.0000 -0.519353773
O   O11       1.0  0.33437  0.57439  0.19044  1.0000 -0.519353773
O   O12       1.0  0.57439  0.19044  0.33437  1.0000 -0.519353773
O   O13       1.0  0.54403  0.25226  0.01431  1.0000 -0.559898874
O   O14       1.0  0.25226  0.01431  0.54403  1.0000 -0.559898874
O   O15       1.0  0.01431  0.54403  0.25226  1.0000 -0.559898874
O   O16       1.0  0.45597  0.74774  0.98569  1.0000 -0.559898874
O   O17       1.0  0.74774  0.98569  0.45597  1.0000 -0.559898874
O   O18       1.0  0.98569  0.45597  0.74774  1.0000 -0.559898874
O   O19       1.0  0.69320  0.32730  0.07120  1.0000 -0.519353773
O   O20       1.0  0.32730  0.07120  0.69320  1.0000 -0.519353773
O   O21       1.0  0.07120  0.69320  0.32730  1.0000 -0.519353773
O   O22       1.0  0.30680  0.67270  0.92880  1.0000 -0.519353773
O   O23       1.0  0.67270  0.92880  0.30680  1.0000 -0.519353773
O   O24       1.0  0.92880  0.30680  0.67270  1.0000 -0.519353773
O   O25       1.0  0.49077  0.45679  0.24434  1.0000 -0.5497775732
O   O26       1.0  0.45679  0.24434  0.49077  1.0000 -0.5497775732
O   O27       1.0  0.24434  0.49077  0.45679  1.0000 -0.5497775732
O   O28       1.0  0.50923  0.54321  0.75566  1.0000 -0.5497775732
O   O29       1.0  0.54321  0.75566  0.50923  1.0000 -0.5497775732
O   O30       1.0  0.75566  0.50923  0.54321  1.0000 -0.5497775732
O   O31       1.0  0.42466  0.30391  0.17173  1.0000 -0.5295862514
O   O32       1.0  0.30391  0.17173  0.42466  1.0000 -0.5295862514
O   O33       1.0  0.17173  0.42466  0.30391  1.0000 -0.5295862514
O   O34       1.0  0.57534  0.69609  0.82827  1.0000 -0.5295862514
O   O35       1.0  0.69609  0.82827  0.57534  1.0000 -0.5295862514
O   O36       1.0  0.82827  0.57534  0.69609  1.0000 -0.5295862514
O   O37       1.0  0.01616  0.03878  0.75726  1.0000 -0.5497775732
O   O38       1.0  0.03878  0.75726  0.01616  1.0000 -0.5497775732
O   O39       1.0  0.75726  0.01616  0.03878  1.0000 -0.5497775732
O   O40       1.0  0.98384  0.96122  0.24274  1.0000 -0.5497775732
O   O41       1.0  0.96122  0.24274  0.98384  1.0000 -0.5497775732
O   O42       1.0  0.24274  0.98384  0.96122  1.0000 -0.5497775732
O   O43       1.0  0.08842  0.19545  0.83103  1.0000 -0.5368013738
O   O44       1.0  0.19545  0.83103  0.08842  1.0000 -0.5368013738
O   O45       1.0  0.83103  0.08842  0.19545  1.0000 -0.5368013738
O   O46       1.0  0.91158  0.80455  0.16897  1.0000 -0.5368013738
O   O47       1.0  0.80455  0.16897  0.91158  1.0000 -0.5368013738
O   O48       1.0  0.16897  0.91158  0.80455  1.0000 -0.5368013738
