# DDEC6 charges by PACMAN v1.1 (https://github.com/mtap-research/PACMAN-charge/)
data_2010[Zn][sra]3[FSR]1
_chemical_formula_sum              "Zn4 H12 C36 O24"
_cell_length_a       9.4801
_cell_length_b       16.3027
_cell_length_c       14.003
_cell_angle_alpha    90
_cell_angle_beta     125.065
_cell_angle_gamma    90

_symmetry_space_group_name_H-M    "P 1"
_symmetry_Int_Tables_number       1

loop_
  _symmetry_equiv_pos_as_xyz
  'x, y, z'

loop_
  _atom_site_type_symbol
  _atom_site_label
  _atom_site_symmetry_multiplicity
  _atom_site_fract_x
  _atom_site_fract_y
  _atom_site_fract_z
  _atom_site_occupancy
  _atom_site_charge
Zn  Zn1       1.0  0.18336  0.07972  0.54709  1.0000 0.9602023648
Zn  Zn2       1.0  0.81664  0.57972  0.95291  1.0000 0.9602023648
Zn  Zn3       1.0  0.81664  0.92028  0.45291  1.0000 0.9602023648
Zn  Zn4       1.0  0.18336  0.42028  0.04709  1.0000 0.9602023648
H   H1        1.0  0.76820  0.24820  0.83170  1.0000 0.1335734861
H   H2        1.0  0.23180  0.74820  0.66830  1.0000 0.1335734861
H   H3        1.0  0.23180  0.75180  0.16830  1.0000 0.1335734861
H   H4        1.0  0.76820  0.25180  0.33170  1.0000 0.1335734861
H   H5        1.0  0.12500  0.18060  0.77900  1.0000 0.1390975999
H   H6        1.0  0.87500  0.68060  0.72100  1.0000 0.1390975999
H   H7        1.0  0.87500  0.81940  0.22100  1.0000 0.1390975999
H   H8        1.0  0.12500  0.31940  0.27900  1.0000 0.1390975999
H   H9        1.0  0.66900  0.06500  0.61030  1.0000 0.1390975999
H   H10       1.0  0.33100  0.56500  0.88970  1.0000 0.1390975999
H   H11       1.0  0.33100  0.93500  0.38970  1.0000 0.1390975999
H   H12       1.0  0.66900  0.43500  0.11030  1.0000 0.1390975999
C   C1        1.0  0.51110  0.14730  0.68700  1.0000 0.5461370187
C   C2        1.0  0.48890  0.64730  0.81300  1.0000 0.5461370187
C   C3        1.0  0.48890  0.85270  0.31300  1.0000 0.5461370187
C   C4        1.0  0.51110  0.35270  0.18700  1.0000 0.5461370187
C   C5        1.0  0.08210  0.29223  0.89770  1.0000 0.5412802236
C   C6        1.0  0.91790  0.79223  0.60230  1.0000 0.5412802236
C   C7        1.0  0.91790  0.70777  0.10230  1.0000 0.5412802236
C   C8        1.0  0.08210  0.20777  0.39770  1.0000 0.5412802236
C   C9        1.0  0.95770  0.06276  0.62160  1.0000 0.6007347839
C   C10       1.0  0.04230  0.56276  0.87840  1.0000 0.6007347839
C   C11       1.0  0.04230  0.93724  0.37840  1.0000 0.6007347839
C   C12       1.0  0.95770  0.43724  0.12160  1.0000 0.6007347839
C   C13       1.0  0.69060  0.15501  0.71710  1.0000 -0.0092050058
C   C14       1.0  0.30940  0.65501  0.78290  1.0000 -0.0092050058
C   C15       1.0  0.30940  0.84499  0.28290  1.0000 -0.0092050058
C   C16       1.0  0.69060  0.34499  0.21710  1.0000 -0.0092050058
C   C17       1.0  0.80250  0.21466  0.79480  1.0000 -0.0861449987
C   C18       1.0  0.19750  0.71466  0.70520  1.0000 -0.0861449987
C   C19       1.0  0.19750  0.78534  0.20520  1.0000 -0.0861449987
C   C20       1.0  0.80250  0.28534  0.29480  1.0000 -0.0861449987
C   C21       1.0  0.96430  0.22488  0.81790  1.0000 -0.004690507
C   C22       1.0  0.03570  0.72488  0.68210  1.0000 -0.004690507
C   C23       1.0  0.03570  0.77512  0.18210  1.0000 -0.004690507
C   C24       1.0  0.96430  0.27512  0.31790  1.0000 -0.004690507
C   C25       1.0  0.01590  0.17438  0.76320  1.0000 -0.0861449987
C   C26       1.0  0.98410  0.67438  0.73680  1.0000 -0.0861449987
C   C27       1.0  0.98410  0.82562  0.23680  1.0000 -0.0861449987
C   C28       1.0  0.01590  0.32562  0.26320  1.0000 -0.0861449987
C   C29       1.0  0.90490  0.11456  0.68490  1.0000 -0.0244852792
C   C30       1.0  0.09510  0.61456  0.81510  1.0000 -0.0244852792
C   C31       1.0  0.09510  0.88544  0.31510  1.0000 -0.0244852792
C   C32       1.0  0.90490  0.38544  0.18490  1.0000 -0.0244852792
C   C33       1.0  0.74310  0.10507  0.66240  1.0000 -0.0861449987
C   C34       1.0  0.25690  0.60507  0.83760  1.0000 -0.0861449987
C   C35       1.0  0.25690  0.89493  0.33760  1.0000 -0.0861449987
C   C36       1.0  0.74310  0.39493  0.16240  1.0000 -0.0861449987
O   O1        1.0  0.43273  0.08134  0.63628  1.0000 -0.4634016691
O   O2        1.0  0.56727  0.58134  0.86372  1.0000 -0.4634016691
O   O3        1.0  0.56727  0.91866  0.36372  1.0000 -0.4634016691
O   O4        1.0  0.43273  0.41866  0.13628  1.0000 -0.4634016691
O   O5        1.0  0.44999  0.20285  0.71278  1.0000 -0.3898151977
O   O6        1.0  0.55001  0.70285  0.78722  1.0000 -0.3898151977
O   O7        1.0  0.55001  0.79715  0.28722  1.0000 -0.3898151977
O   O8        1.0  0.44999  0.29715  0.21278  1.0000 -0.3834146721
O   O9        1.0  0.03024  0.33260  0.94944  1.0000 -0.4933993457
O   O10       1.0  0.96976  0.83260  0.55056  1.0000 -0.4933993457
O   O11       1.0  0.96976  0.66740  0.05056  1.0000 -0.4933993457
O   O12       1.0  0.03024  0.16740  0.44944  1.0000 -0.4933993457
O   O13       1.0  0.21570  0.30703  0.90640  1.0000 -0.4116833372
O   O14       1.0  0.78430  0.80703  0.59360  1.0000 -0.4116833372
O   O15       1.0  0.78430  0.69297  0.09360  1.0000 -0.4116833372
O   O16       1.0  0.21570  0.19297  0.40640  1.0000 -0.4116833372
O   O17       1.0  0.11117  0.06736  0.65317  1.0000 -0.4933993457
O   O18       1.0  0.88883  0.56736  0.84683  1.0000 -0.4933993457
O   O19       1.0  0.88883  0.93264  0.34683  1.0000 -0.4933993457
O   O20       1.0  0.11117  0.43264  0.15317  1.0000 -0.4933993457
O   O21       1.0  0.84168  0.01976  0.54002  1.0000 -0.5132085247
O   O22       1.0  0.15832  0.51976  0.95998  1.0000 -0.5132085247
O   O23       1.0  0.15832  0.98024  0.45998  1.0000 -0.5132085247
O   O24       1.0  0.84168  0.48024  0.04002  1.0000 -0.5132085247
