# DDEC6 charges by PACMAN v1.1 (https://github.com/mtap-research/PACMAN-charge/)
data_2010[ErAg][nan]3[FSR]1
_chemical_formula_sum              "Er8 Ag8 H64 C144 N32 O64"
_cell_length_a       8.4759
_cell_length_b       17.765
_cell_length_c       25.285
_cell_angle_alpha    90
_cell_angle_beta     90
_cell_angle_gamma    90

_symmetry_space_group_name_H-M    "P 1"
_symmetry_Int_Tables_number       1

loop_
  _symmetry_equiv_pos_as_xyz
  'x, y, z'

loop_
  _atom_site_type_symbol
  _atom_site_label
  _atom_site_symmetry_multiplicity
  _atom_site_fract_x
  _atom_site_fract_y
  _atom_site_fract_z
  _atom_site_occupancy
  _atom_site_charge
Er  Er1       1.0  0.16668  0.28237  0.52325  1.0000 2.0904491301
Er  Er2       1.0  0.66667  0.21763  0.47675  1.0000 2.0904491301
Er  Er3       1.0  0.66667  0.71763  0.02325  1.0000 2.0904491301
Er  Er4       1.0  0.16668  0.78237  0.97675  1.0000 2.0904491301
Er  Er5       1.0  0.33333  0.28237  0.97675  1.0000 2.0904491301
Er  Er6       1.0  0.83332  0.21763  0.02325  1.0000 2.0904491301
Er  Er7       1.0  0.83332  0.71763  0.47675  1.0000 2.0904491301
Er  Er8       1.0  0.33333  0.78237  0.52325  1.0000 2.0904491301
Ag  Ag1       1.0  0.46142  0.45213  0.22767  1.0000 0.2871853764
Ag  Ag2       1.0  0.96142  0.04787  0.77233  1.0000 0.2871853764
Ag  Ag3       1.0  0.96142  0.54787  0.72767  1.0000 0.2871853764
Ag  Ag4       1.0  0.46142  0.95213  0.27233  1.0000 0.2871853764
Ag  Ag5       1.0  0.03858  0.45213  0.27233  1.0000 0.2871853764
Ag  Ag6       1.0  0.53858  0.04787  0.72767  1.0000 0.2871853764
Ag  Ag7       1.0  0.53858  0.54787  0.77233  1.0000 0.2871853764
Ag  Ag8       1.0  0.03858  0.95213  0.22767  1.0000 0.2871853764
H   H1        1.0  0.68569  0.34090  0.29820  1.0000 0.1397292073
H   H2        1.0  0.18569  0.15910  0.70180  1.0000 0.1397292073
H   H3        1.0  0.18569  0.65910  0.79820  1.0000 0.1397292073
H   H4        1.0  0.68569  0.84090  0.20180  1.0000 0.1397292073
H   H5        1.0  0.56029  0.64230  0.59660  1.0000 0.3169640246
H   H6        1.0  0.06029  0.85770  0.40340  1.0000 0.3169640246
H   H7        1.0  0.06029  0.35770  0.09660  1.0000 0.3169640246
H   H8        1.0  0.56029  0.14230  0.90340  1.0000 0.3169640246
H   H9        1.0  0.74399  0.67210  0.66370  1.0000 0.1321067493
H   H10       1.0  0.24399  0.82790  0.33630  1.0000 0.1321067493
H   H11       1.0  0.24399  0.32790  0.16370  1.0000 0.1321067493
H   H12       1.0  0.74399  0.17210  0.83630  1.0000 0.1321067493
H   H13       1.0  0.89959  0.41710  0.64060  1.0000 0.1321067493
H   H14       1.0  0.39959  0.08290  0.35940  1.0000 0.1321067493
H   H15       1.0  0.39959  0.58290  0.14060  1.0000 0.1321067493
H   H16       1.0  0.89959  0.91710  0.85940  1.0000 0.1321067493
H   H17       1.0  0.46599  0.50840  0.54510  1.0000 0.1397292073
H   H18       1.0  0.96599  0.99160  0.45490  1.0000 0.1397292073
H   H19       1.0  0.96599  0.49160  0.04510  1.0000 0.1397292073
H   H20       1.0  0.46599  0.00840  0.95490  1.0000 0.1397292073
H   H21       1.0  0.72289  0.60660  0.36950  1.0000 0.3169640246
H   H22       1.0  0.22289  0.89340  0.63050  1.0000 0.3169640246
H   H23       1.0  0.22289  0.39340  0.86950  1.0000 0.3169640246
H   H24       1.0  0.72289  0.10660  0.13050  1.0000 0.3169640246
H   H25       1.0  0.88649  0.49660  0.43270  1.0000 0.1621856483
H   H26       1.0  0.38649  0.00340  0.56730  1.0000 0.1621856483
H   H27       1.0  0.38649  0.50340  0.93270  1.0000 0.1621856483
H   H28       1.0  0.88649  0.99660  0.06730  1.0000 0.1621856483
H   H29       1.0  0.55909  0.60140  0.29440  1.0000 0.1207740809
H   H30       1.0  0.05909  0.89860  0.70560  1.0000 0.1207740809
H   H31       1.0  0.05909  0.39860  0.79440  1.0000 0.1207740809
H   H32       1.0  0.55909  0.10140  0.20560  1.0000 0.1207740809
H   H33       1.0  0.81431  0.34090  0.20180  1.0000 0.1397292073
H   H34       1.0  0.31431  0.15910  0.79820  1.0000 0.1397292073
H   H35       1.0  0.31431  0.65910  0.70180  1.0000 0.1397292073
H   H36       1.0  0.81431  0.84090  0.29820  1.0000 0.1397292073
H   H37       1.0  0.93971  0.64230  0.90340  1.0000 0.3169640246
H   H38       1.0  0.43971  0.85770  0.09660  1.0000 0.3169640246
H   H39       1.0  0.43971  0.35770  0.40340  1.0000 0.3169640246
H   H40       1.0  0.93971  0.14230  0.59660  1.0000 0.3169640246
H   H41       1.0  0.75601  0.67210  0.83630  1.0000 0.1321067493
H   H42       1.0  0.25601  0.82790  0.16370  1.0000 0.1321067493
H   H43       1.0  0.25601  0.32790  0.33630  1.0000 0.1321067493
H   H44       1.0  0.75601  0.17210  0.66370  1.0000 0.1321067493
H   H45       1.0  0.60041  0.41710  0.85940  1.0000 0.1321067493
H   H46       1.0  0.10041  0.08290  0.14060  1.0000 0.1321067493
H   H47       1.0  0.10041  0.58290  0.35940  1.0000 0.1321067493
H   H48       1.0  0.60041  0.91710  0.64060  1.0000 0.1321067493
H   H49       1.0  0.03401  0.50840  0.95490  1.0000 0.1397292073
H   H50       1.0  0.53401  0.99160  0.04510  1.0000 0.1397292073
H   H51       1.0  0.53401  0.49160  0.45490  1.0000 0.1397292073
H   H52       1.0  0.03401  0.00840  0.54510  1.0000 0.1397292073
H   H53       1.0  0.77711  0.60660  0.13050  1.0000 0.3169640246
H   H54       1.0  0.27711  0.89340  0.86950  1.0000 0.3169640246
H   H55       1.0  0.27711  0.39340  0.63050  1.0000 0.3169640246
H   H56       1.0  0.77711  0.10660  0.36950  1.0000 0.3169640246
H   H57       1.0  0.61351  0.49660  0.06730  1.0000 0.1621856483
H   H58       1.0  0.11351  0.00340  0.93270  1.0000 0.1621856483
H   H59       1.0  0.11351  0.50340  0.56730  1.0000 0.1621856483
H   H60       1.0  0.61351  0.99660  0.43270  1.0000 0.1621856483
H   H61       1.0  0.94091  0.60140  0.20560  1.0000 0.1207740809
H   H62       1.0  0.44091  0.89860  0.79440  1.0000 0.1207740809
H   H63       1.0  0.44091  0.39860  0.70560  1.0000 0.1207740809
H   H64       1.0  0.94091  0.10140  0.29440  1.0000 0.1207740809
C   C1        1.0  0.95359  0.35390  0.45330  1.0000 0.6004428621
C   C2        1.0  0.45359  0.14610  0.54670  1.0000 0.6004428621
C   C3        1.0  0.45359  0.64610  0.95330  1.0000 0.6004428621
C   C4        1.0  0.95359  0.85390  0.04670  1.0000 0.6004428621
C   C5        1.0  0.86629  0.38800  0.40770  1.0000 -0.0367827288
C   C6        1.0  0.36629  0.11200  0.59230  1.0000 -0.0367827288
C   C7        1.0  0.36629  0.61200  0.90770  1.0000 -0.0367827288
C   C8        1.0  0.86629  0.88800  0.09230  1.0000 -0.0367827288
C   C9        1.0  0.80879  0.34080  0.36630  1.0000 -0.0367827288
C   C10       1.0  0.30879  0.15920  0.63370  1.0000 -0.0367827288
C   C11       1.0  0.30879  0.65920  0.86630  1.0000 -0.0367827288
C   C12       1.0  0.80879  0.84080  0.13370  1.0000 -0.0367827288
C   C13       1.0  0.72269  0.37130  0.32550  1.0000 -0.2296976942
C   C14       1.0  0.22269  0.12870  0.67450  1.0000 -0.2296976942
C   C15       1.0  0.22269  0.62870  0.82550  1.0000 -0.2296976942
C   C16       1.0  0.72269  0.87130  0.17450  1.0000 -0.2296976942
C   C17       1.0  0.84139  0.25700  0.36390  1.0000 0.6071379538
C   C18       1.0  0.34139  0.24300  0.63610  1.0000 0.6071379538
C   C19       1.0  0.34139  0.74300  0.86390  1.0000 0.6071379538
C   C20       1.0  0.84139  0.75700  0.13610  1.0000 0.6071379538
C   C21       1.0  0.51039  0.37060  0.51760  1.0000 0.6500003244
C   C22       1.0  0.01039  0.12940  0.48240  1.0000 0.6500003244
C   C23       1.0  0.01039  0.62940  0.01760  1.0000 0.6500003244
C   C24       1.0  0.51039  0.87060  0.98240  1.0000 0.6500003244
C   C25       1.0  0.81139  0.31440  0.57330  1.0000 0.6500003244
C   C26       1.0  0.31139  0.18560  0.42670  1.0000 0.6500003244
C   C27       1.0  0.31139  0.68560  0.07330  1.0000 0.6500003244
C   C28       1.0  0.81139  0.81440  0.92670  1.0000 0.6500003244
C   C29       1.0  0.74119  0.38950  0.58360  1.0000 -0.0584056825
C   C30       1.0  0.24119  0.11050  0.41640  1.0000 -0.0584056825
C   C31       1.0  0.24119  0.61050  0.08360  1.0000 -0.0584056825
C   C32       1.0  0.74119  0.88950  0.91640  1.0000 -0.0584056825
C   C33       1.0  0.73099  0.62510  0.64820  1.0000 0.1727721662
C   C34       1.0  0.23099  0.87490  0.35180  1.0000 0.1727721662
C   C35       1.0  0.23099  0.37490  0.14820  1.0000 0.1727721662
C   C36       1.0  0.73099  0.12510  0.85180  1.0000 0.1727721662
C   C37       1.0  0.81509  0.43510  0.62080  1.0000 -0.1771844561
C   C38       1.0  0.31509  0.06490  0.37920  1.0000 -0.1771844561
C   C39       1.0  0.31509  0.56490  0.12080  1.0000 -0.1771844561
C   C40       1.0  0.81509  0.93510  0.87920  1.0000 -0.1771844561
C   C41       1.0  0.60459  0.41620  0.55600  1.0000 -0.0302176441
C   C42       1.0  0.10459  0.08380  0.44400  1.0000 -0.0302176441
C   C43       1.0  0.10459  0.58380  0.05600  1.0000 -0.0302176441
C   C44       1.0  0.60459  0.91620  0.94400  1.0000 -0.0302176441
C   C45       1.0  0.63769  0.53580  0.59670  1.0000 0.1517040785
C   C46       1.0  0.13769  0.96420  0.40330  1.0000 0.1517040785
C   C47       1.0  0.13769  0.46420  0.09670  1.0000 0.1517040785
C   C48       1.0  0.63769  0.03580  0.90330  1.0000 0.1517040785
C   C49       1.0  0.55409  0.49030  0.56292  1.0000 -0.1972249691
C   C50       1.0  0.05409  0.00970  0.43708  1.0000 -0.1972249691
C   C51       1.0  0.05409  0.50970  0.06292  1.0000 -0.1972249691
C   C52       1.0  0.55409  0.99030  0.93708  1.0000 -0.1972249691
C   C53       1.0  0.84409  0.46540  0.40680  1.0000 -0.1771844561
C   C54       1.0  0.34409  0.03460  0.59320  1.0000 -0.1771844561
C   C55       1.0  0.34409  0.53460  0.90680  1.0000 -0.1771844561
C   C56       1.0  0.84409  0.96540  0.09320  1.0000 -0.1771844561
C   C57       1.0  0.69169  0.44830  0.32560  1.0000 0.1110360133
C   C58       1.0  0.19169  0.05170  0.67440  1.0000 0.1110360133
C   C59       1.0  0.19169  0.55170  0.82560  1.0000 0.1110360133
C   C60       1.0  0.69169  0.94830  0.17440  1.0000 0.1110360133
C   C61       1.0  0.75979  0.50810  0.62782  1.0000 0.1207740809
C   C62       1.0  0.25979  0.99190  0.37218  1.0000 0.1207740809
C   C63       1.0  0.25979  0.49190  0.12782  1.0000 0.1207740809
C   C64       1.0  0.75979  0.00810  0.87218  1.0000 0.1207740809
C   C65       1.0  0.75479  0.49410  0.36510  1.0000 0.1110360133
C   C66       1.0  0.25479  0.00590  0.63490  1.0000 0.1110360133
C   C67       1.0  0.25479  0.50590  0.86510  1.0000 0.1110360133
C   C68       1.0  0.75479  0.99410  0.13490  1.0000 0.1110360133
C   C69       1.0  0.60999  0.56060  0.30980  1.0000 0.1727721662
C   C70       1.0  0.10999  0.93940  0.69020  1.0000 0.1727721662
C   C71       1.0  0.10999  0.43940  0.80980  1.0000 0.1727721662
C   C72       1.0  0.60999  0.06060  0.19020  1.0000 0.1727721662
C   C73       1.0  0.54641  0.35390  0.04670  1.0000 0.6004428621
C   C74       1.0  0.04641  0.14610  0.95330  1.0000 0.6004428621
C   C75       1.0  0.04641  0.64610  0.54670  1.0000 0.6004428621
C   C76       1.0  0.54641  0.85390  0.45330  1.0000 0.6004428621
C   C77       1.0  0.63371  0.38800  0.09230  1.0000 -0.0367827288
C   C78       1.0  0.13371  0.11200  0.90770  1.0000 -0.0367827288
C   C79       1.0  0.13371  0.61200  0.59230  1.0000 -0.0302176441
C   C80       1.0  0.63371  0.88800  0.40770  1.0000 -0.0367827288
C   C81       1.0  0.69121  0.34080  0.13370  1.0000 -0.0367827288
C   C82       1.0  0.19121  0.15920  0.86630  1.0000 -0.0367827288
C   C83       1.0  0.19121  0.65920  0.63370  1.0000 -0.0367827288
C   C84       1.0  0.69121  0.84080  0.36630  1.0000 -0.0367827288
C   C85       1.0  0.77731  0.37130  0.17450  1.0000 -0.2296976942
C   C86       1.0  0.27731  0.12870  0.82550  1.0000 -0.2296976942
C   C87       1.0  0.27731  0.62870  0.67450  1.0000 -0.2296976942
C   C88       1.0  0.77731  0.87130  0.32550  1.0000 -0.2296976942
C   C89       1.0  0.65861  0.25700  0.13610  1.0000 0.6071379538
C   C90       1.0  0.15861  0.24300  0.86390  1.0000 0.6071379538
C   C91       1.0  0.15861  0.74300  0.63610  1.0000 0.6071379538
C   C92       1.0  0.65861  0.75700  0.36390  1.0000 0.6071379538
C   C93       1.0  0.98961  0.37060  0.98240  1.0000 0.6500003244
C   C94       1.0  0.48961  0.12940  0.01760  1.0000 0.6500003244
C   C95       1.0  0.48961  0.62940  0.48240  1.0000 0.6500003244
C   C96       1.0  0.98961  0.87060  0.51760  1.0000 0.6500003244
C   C97       1.0  0.68861  0.31440  0.92670  1.0000 0.6500003244
C   C98       1.0  0.18861  0.18560  0.07330  1.0000 0.6500003244
C   C99       1.0  0.18861  0.68560  0.42670  1.0000 0.6500003244
C   C100      1.0  0.68861  0.81440  0.57330  1.0000 0.6500003244
C   C101      1.0  0.75881  0.38950  0.91640  1.0000 -0.0584056825
C   C102      1.0  0.25881  0.11050  0.08360  1.0000 -0.0584056825
C   C103      1.0  0.25881  0.61050  0.41640  1.0000 -0.0584056825
C   C104      1.0  0.75881  0.88950  0.58360  1.0000 -0.0584056825
C   C105      1.0  0.76901  0.62510  0.85180  1.0000 0.1727721662
C   C106      1.0  0.26901  0.87490  0.14820  1.0000 0.1727721662
C   C107      1.0  0.26901  0.37490  0.35180  1.0000 0.1727721662
C   C108      1.0  0.76901  0.12510  0.64820  1.0000 0.1727721662
C   C109      1.0  0.68491  0.43510  0.87920  1.0000 -0.1771844561
C   C110      1.0  0.18491  0.06490  0.12080  1.0000 -0.1771844561
C   C111      1.0  0.18491  0.56490  0.37920  1.0000 -0.1771844561
C   C112      1.0  0.68491  0.93510  0.62080  1.0000 -0.1771844561
C   C113      1.0  0.89541  0.41620  0.94400  1.0000 -0.0302176441
C   C114      1.0  0.39541  0.08380  0.05600  1.0000 -0.0302176441
C   C115      1.0  0.39541  0.58380  0.44400  1.0000 -0.0302176441
C   C116      1.0  0.89541  0.91620  0.55600  1.0000 -0.0302176441
C   C117      1.0  0.86231  0.53580  0.90330  1.0000 0.1517040785
C   C118      1.0  0.36231  0.96420  0.09670  1.0000 0.1517040785
C   C119      1.0  0.36231  0.46420  0.40330  1.0000 0.1517040785
C   C120      1.0  0.86231  0.03580  0.59670  1.0000 0.1517040785
C   C121      1.0  0.94591  0.49030  0.93708  1.0000 -0.1972249691
C   C122      1.0  0.44591  0.00970  0.06292  1.0000 -0.1972249691
C   C123      1.0  0.44591  0.50970  0.43708  1.0000 -0.1972249691
C   C124      1.0  0.94591  0.99030  0.56292  1.0000 -0.1972249691
C   C125      1.0  0.65591  0.46540  0.09320  1.0000 -0.1771844561
C   C126      1.0  0.15591  0.03460  0.90680  1.0000 -0.1771844561
C   C127      1.0  0.15591  0.53460  0.59320  1.0000 -0.1771844561
C   C128      1.0  0.65591  0.96540  0.40680  1.0000 -0.1771844561
C   C129      1.0  0.80831  0.44830  0.17440  1.0000 0.1110360133
C   C130      1.0  0.30831  0.05170  0.82560  1.0000 0.1110360133
C   C131      1.0  0.30831  0.55170  0.67440  1.0000 0.1110360133
C   C132      1.0  0.80831  0.94830  0.32560  1.0000 0.1110360133
C   C133      1.0  0.74021  0.50810  0.87218  1.0000 0.1207740809
C   C134      1.0  0.24021  0.99190  0.12782  1.0000 0.1207740809
C   C135      1.0  0.24021  0.49190  0.37218  1.0000 0.1207740809
C   C136      1.0  0.74021  0.00810  0.62782  1.0000 0.1207740809
C   C137      1.0  0.74521  0.49410  0.13490  1.0000 0.1110360133
C   C138      1.0  0.24521  0.00590  0.86510  1.0000 0.1110360133
C   C139      1.0  0.24521  0.50590  0.63490  1.0000 0.1110360133
C   C140      1.0  0.74521  0.99410  0.36510  1.0000 0.1110360133
C   C141      1.0  0.89001  0.56060  0.19020  1.0000 0.1727721662
C   C142      1.0  0.39001  0.93940  0.80980  1.0000 0.1727721662
C   C143      1.0  0.39001  0.43940  0.69020  1.0000 0.1727721662
C   C144      1.0  0.89001  0.06060  0.30980  1.0000 0.1727721662
N   N1        1.0  0.62499  0.61040  0.61018  1.0000 -0.2211832647
N   N2        1.0  0.12499  0.88960  0.38982  1.0000 -0.2211832647
N   N3        1.0  0.12499  0.38960  0.11018  1.0000 -0.2211832647
N   N4        1.0  0.62499  0.11040  0.88982  1.0000 -0.2211832647
N   N5        1.0  0.70109  0.56590  0.35262  1.0000 -0.2296976942
N   N6        1.0  0.20109  0.93410  0.64738  1.0000 -0.2296976942
N   N7        1.0  0.20109  0.43410  0.85262  1.0000 -0.2296976942
N   N8        1.0  0.70109  0.06590  0.14738  1.0000 -0.2296976942
N   N9        1.0  0.59979  0.49100  0.29167  1.0000 -0.3069240813
N   N10       1.0  0.09979  0.00900  0.70833  1.0000 -0.3069240813
N   N11       1.0  0.09979  0.50900  0.79167  1.0000 -0.30460375
N   N12       1.0  0.59979  0.99100  0.20833  1.0000 -0.3069240813
N   N13       1.0  0.81459  0.56520  0.66127  1.0000 -0.3069240813
N   N14       1.0  0.31459  0.93480  0.33873  1.0000 -0.3069240813
N   N15       1.0  0.31459  0.43480  0.16127  1.0000 -0.3069240813
N   N16       1.0  0.81459  0.06520  0.83873  1.0000 -0.3069240813
N   N17       1.0  0.87501  0.61040  0.88982  1.0000 -0.2211832647
N   N18       1.0  0.37501  0.88960  0.11018  1.0000 -0.2211832647
N   N19       1.0  0.37501  0.38960  0.38982  1.0000 -0.2211832647
N   N20       1.0  0.87501  0.11040  0.61018  1.0000 -0.2211832647
N   N21       1.0  0.79891  0.56590  0.14738  1.0000 -0.2296976942
N   N22       1.0  0.29891  0.93410  0.85262  1.0000 -0.2296976942
N   N23       1.0  0.29891  0.43410  0.64738  1.0000 -0.2296976942
N   N24       1.0  0.79891  0.06590  0.35262  1.0000 -0.2296976942
N   N25       1.0  0.90021  0.49100  0.20833  1.0000 -0.3069240813
N   N26       1.0  0.40021  0.00900  0.79167  1.0000 -0.3069240813
N   N27       1.0  0.40021  0.50900  0.70833  1.0000 -0.3069240813
N   N28       1.0  0.90021  0.99100  0.29167  1.0000 -0.3069240813
N   N29       1.0  0.68541  0.56520  0.83873  1.0000 -0.3069240813
N   N30       1.0  0.18541  0.93480  0.16127  1.0000 -0.3069240813
N   N31       1.0  0.18541  0.43480  0.33873  1.0000 -0.3069240813
N   N32       1.0  0.68541  0.06520  0.66127  1.0000 -0.3069240813
O   O1        1.0  0.91259  0.28812  0.46930  1.0000 -0.7339902614
O   O2        1.0  0.41259  0.21188  0.53070  1.0000 -0.7339902614
O   O3        1.0  0.41259  0.71188  0.96930  1.0000 -0.7339902614
O   O4        1.0  0.91259  0.78812  0.03070  1.0000 -0.7339902614
O   O5        1.0  0.06659  0.38740  0.47445  1.0000 -0.5876507704
O   O6        1.0  0.56659  0.11260  0.52555  1.0000 -0.5876507704
O   O7        1.0  0.56659  0.61260  0.97445  1.0000 -0.5876507704
O   O8        1.0  0.06659  0.88740  0.02555  1.0000 -0.5876507704
O   O9        1.0  0.74859  0.21429  0.38984  1.0000 -0.6790170912
O   O10       1.0  0.24859  0.28571  0.61016  1.0000 -0.6790170912
O   O11       1.0  0.24859  0.78571  0.88984  1.0000 -0.6790170912
O   O12       1.0  0.74859  0.71429  0.11016  1.0000 -0.6790170912
O   O13       1.0  0.94569  0.23390  0.33570  1.0000 -0.5111615305
O   O14       1.0  0.44569  0.26610  0.66430  1.0000 -0.5111615305
O   O15       1.0  0.44569  0.76610  0.83570  1.0000 -0.5111615305
O   O16       1.0  0.94569  0.73390  0.16430  1.0000 -0.5111615305
O   O17       1.0  0.36469  0.37090  0.52368  1.0000 -0.6255288516
O   O18       1.0  0.86469  0.12910  0.47632  1.0000 -0.6255288516
O   O19       1.0  0.86469  0.62910  0.02368  1.0000 -0.6255288516
O   O20       1.0  0.36469  0.87090  0.97632  1.0000 -0.6255288516
O   O21       1.0  0.95969  0.30910  0.57910  1.0000 -0.6724182908
O   O22       1.0  0.45969  0.19090  0.42090  1.0000 -0.6724182908
O   O23       1.0  0.45969  0.69090  0.07910  1.0000 -0.6724182908
O   O24       1.0  0.95969  0.80910  0.92090  1.0000 -0.6724182908
O   O25       1.0  0.57979  0.33850  0.47880  1.0000 -0.70541198
O   O26       1.0  0.07979  0.16150  0.52120  1.0000 -0.70541198
O   O27       1.0  0.07979  0.66150  0.97880  1.0000 -0.70541198
O   O28       1.0  0.57979  0.83850  0.02120  1.0000 -0.70541198
O   O29       1.0  0.72539  0.25950  0.56010  1.0000 -0.6635926012
O   O30       1.0  0.22539  0.24050  0.43990  1.0000 -0.6635926012
O   O31       1.0  0.22539  0.74050  0.06010  1.0000 -0.6635926012
O   O32       1.0  0.72539  0.75950  0.93990  1.0000 -0.6635926012
O   O33       1.0  0.58741  0.28812  0.03070  1.0000 -0.7339902614
O   O34       1.0  0.08741  0.21188  0.96930  1.0000 -0.7339902614
O   O35       1.0  0.08741  0.71188  0.53070  1.0000 -0.7339902614
O   O36       1.0  0.58741  0.78812  0.46930  1.0000 -0.7339902614
O   O37       1.0  0.43341  0.38740  0.02555  1.0000 -0.5876507704
O   O38       1.0  0.93341  0.11260  0.97445  1.0000 -0.5876507704
O   O39       1.0  0.93341  0.61260  0.52555  1.0000 -0.5876507704
O   O40       1.0  0.43341  0.88740  0.47445  1.0000 -0.5876507704
O   O41       1.0  0.75141  0.21429  0.11016  1.0000 -0.6790170912
O   O42       1.0  0.25141  0.28571  0.88984  1.0000 -0.6790170912
O   O43       1.0  0.25141  0.78571  0.61016  1.0000 -0.6790170912
O   O44       1.0  0.75141  0.71429  0.38984  1.0000 -0.6790170912
O   O45       1.0  0.55431  0.23390  0.16430  1.0000 -0.5111615305
O   O46       1.0  0.05431  0.26610  0.83570  1.0000 -0.5111615305
O   O47       1.0  0.05431  0.76610  0.66430  1.0000 -0.5111615305
O   O48       1.0  0.55431  0.73390  0.33570  1.0000 -0.5111615305
O   O49       1.0  0.13531  0.37090  0.97632  1.0000 -0.6255288516
O   O50       1.0  0.63531  0.12910  0.02368  1.0000 -0.6255288516
O   O51       1.0  0.63531  0.62910  0.47632  1.0000 -0.6255288516
O   O52       1.0  0.13531  0.87090  0.52368  1.0000 -0.6255288516
O   O53       1.0  0.54031  0.30910  0.92090  1.0000 -0.6724182908
O   O54       1.0  0.04031  0.19090  0.07910  1.0000 -0.6724182908
O   O55       1.0  0.04031  0.69090  0.42090  1.0000 -0.6724182908
O   O56       1.0  0.54031  0.80910  0.57910  1.0000 -0.6724182908
O   O57       1.0  0.92021  0.33850  0.02120  1.0000 -0.70541198
O   O58       1.0  0.42021  0.16150  0.97880  1.0000 -0.70541198
O   O59       1.0  0.42021  0.66150  0.52120  1.0000 -0.70541198
O   O60       1.0  0.92021  0.83850  0.47880  1.0000 -0.70541198
O   O61       1.0  0.77461  0.25950  0.93990  1.0000 -0.6635926012
O   O62       1.0  0.27461  0.24050  0.06010  1.0000 -0.6635926012
O   O63       1.0  0.27461  0.74050  0.43990  1.0000 -0.6635926012
O   O64       1.0  0.77461  0.75950  0.56010  1.0000 -0.6635926012
