# DDEC6 charges by PACMAN v1.1 (https://github.com/mtap-research/PACMAN-charge/)
data_2010[Mn][nan]3[FSR]7
_chemical_formula_sum              "Mn4 H32 C52 N4 O20"
_cell_length_a       12.7405
_cell_length_b       12.7405
_cell_length_c       14.3358
_cell_angle_alpha    60.7458
_cell_angle_beta     119.254
_cell_angle_gamma    96.7371

_symmetry_space_group_name_H-M    "P 1"
_symmetry_Int_Tables_number       1

loop_
  _symmetry_equiv_pos_as_xyz
  'x, y, z'

loop_
  _atom_site_type_symbol
  _atom_site_label
  _atom_site_symmetry_multiplicity
  _atom_site_fract_x
  _atom_site_fract_y
  _atom_site_fract_z
  _atom_site_occupancy
  _atom_site_charge
Mn  Mn1       1.0  0.93855  0.93855  0.75000  1.0000 1.0652062931
Mn  Mn2       1.0  0.06145  0.06145  0.25000  1.0000 1.0644174852
Mn  Mn3       1.0  0.00000  0.00000  0.50000  1.0000 1.0478326121
Mn  Mn4       1.0  0.00000  0.00000  0.00000  1.0000 1.0478326121
H   H1        1.0  0.60310  0.86530  0.58120  1.0000 0.1314636004
H   H2        1.0  0.86530  0.60310  0.91880  1.0000 0.1314636004
H   H3        1.0  0.39690  0.13470  0.41880  1.0000 0.1314636004
H   H4        1.0  0.13470  0.39690  0.08120  1.0000 0.1314636004
H   H5        1.0  0.39710  0.86850  0.47980  1.0000 0.1223334932
H   H6        1.0  0.86850  0.39710  0.02020  1.0000 0.1223334932
H   H7        1.0  0.60290  0.13150  0.52020  1.0000 0.1223334932
H   H8        1.0  0.13150  0.60290  0.97980  1.0000 0.1223334932
H   H9        1.0  0.40470  0.97190  0.17250  1.0000 0.1126803236
H   H10       1.0  0.97190  0.40470  0.32750  1.0000 0.1126803236
H   H11       1.0  0.59530  0.02810  0.82750  1.0000 0.1126803236
H   H12       1.0  0.02810  0.59530  0.67250  1.0000 0.1126803236
H   H13       1.0  0.60950  0.97550  0.27180  1.0000 0.1126803236
H   H14       1.0  0.97550  0.60950  0.22820  1.0000 0.1126803236
H   H15       1.0  0.39050  0.02450  0.72820  1.0000 0.1126803236
H   H16       1.0  0.02450  0.39050  0.77180  1.0000 0.1126803236
H   H17       1.0  0.23130  0.81990  0.97840  1.0000 0.1398763397
H   H18       1.0  0.81990  0.23130  0.52160  1.0000 0.1398763397
H   H19       1.0  0.76870  0.18010  0.02160  1.0000 0.1398763397
H   H20       1.0  0.18010  0.76870  0.47840  1.0000 0.1398763397
H   H21       1.0  0.43250  0.82350  0.02860  1.0000 0.1398763397
H   H22       1.0  0.82350  0.43250  0.47140  1.0000 0.1398763397
H   H23       1.0  0.56750  0.17650  0.97140  1.0000 0.1398763397
H   H24       1.0  0.17650  0.56750  0.52860  1.0000 0.1398763397
H   H25       1.0  0.38660  0.17280  0.92230  1.0000 0.1398763397
H   H26       1.0  0.17280  0.38660  0.57770  1.0000 0.1398763397
H   H27       1.0  0.61340  0.82720  0.07770  1.0000 0.1398763397
H   H28       1.0  0.82720  0.61340  0.42230  1.0000 0.1398763397
H   H29       1.0  0.18780  0.16460  0.87480  1.0000 0.1314636004
H   H30       1.0  0.16460  0.18780  0.62520  1.0000 0.1314636004
H   H31       1.0  0.81220  0.83540  0.12520  1.0000 0.1314636004
H   H32       1.0  0.83540  0.81220  0.37480  1.0000 0.1314636004
C   C1        1.0  0.76020  0.93000  0.50140  1.0000 0.5913101771
C   C2        1.0  0.93000  0.76020  0.99860  1.0000 0.5913101771
C   C3        1.0  0.23980  0.07000  0.49860  1.0000 0.5913101771
C   C4        1.0  0.07000  0.23980  0.00140  1.0000 0.5913101771
C   C5        1.0  0.62800  0.92160  0.43700  1.0000 -0.0247423797
C   C6        1.0  0.92160  0.62800  0.06300  1.0000 -0.0247423797
C   C7        1.0  0.37200  0.07840  0.56300  1.0000 -0.0247423797
C   C8        1.0  0.07840  0.37200  0.93700  1.0000 -0.0247423797
C   C9        1.0  0.56310  0.88850  0.49810  1.0000 -0.0987100339
C   C10       1.0  0.88850  0.56310  0.00190  1.0000 -0.0987100339
C   C11       1.0  0.43690  0.11150  0.50190  1.0000 -0.0987100339
C   C12       1.0  0.11150  0.43690  0.99810  1.0000 -0.0987100339
C   C13       1.0  0.43990  0.88950  0.43760  1.0000 -0.106454987
C   C14       1.0  0.88950  0.43990  0.06240  1.0000 -0.106454987
C   C15       1.0  0.56010  0.11050  0.56240  1.0000 -0.106454987
C   C16       1.0  0.11050  0.56010  0.93760  1.0000 -0.106454987
C   C17       1.0  0.37790  0.92150  0.31350  1.0000 -0.0108578358
C   C18       1.0  0.92150  0.37790  0.18650  1.0000 -0.0108578358
C   C19       1.0  0.62210  0.07850  0.68650  1.0000 -0.0108578358
C   C20       1.0  0.07850  0.62210  0.81350  1.0000 -0.0108578358
C   C21       1.0  0.44400  0.95180  0.25480  1.0000 -0.11684601
C   C22       1.0  0.95180  0.44400  0.24520  1.0000 -0.11684601
C   C23       1.0  0.55600  0.04820  0.74520  1.0000 -0.11684601
C   C24       1.0  0.04820  0.55600  0.75480  1.0000 -0.11684601
C   C25       1.0  0.24120  0.93000  0.24570  1.0000 0.5913101771
C   C26       1.0  0.93000  0.24120  0.25430  1.0000 0.5913101771
C   C27       1.0  0.75880  0.07000  0.75430  1.0000 0.5913101771
C   C28       1.0  0.07000  0.75880  0.74570  1.0000 0.5913101771
C   C29       1.0  0.56710  0.95310  0.31450  1.0000 -0.11684601
C   C30       1.0  0.95310  0.56710  0.18550  1.0000 -0.11684601
C   C31       1.0  0.43290  0.04690  0.68550  1.0000 -0.11684601
C   C32       1.0  0.04690  0.43290  0.81450  1.0000 -0.11684601
C   C33       1.0  0.26310  0.89210  0.96660  1.0000 -0.0108578358
C   C34       1.0  0.89210  0.26310  0.53340  1.0000 -0.0108578358
C   C35       1.0  0.73690  0.10790  0.03340  1.0000 -0.0108578358
C   C36       1.0  0.10790  0.73690  0.46660  1.0000 -0.0108578358
C   C37       1.0  0.38420  0.89460  0.99730  1.0000 -0.1914334892
C   C38       1.0  0.89460  0.38420  0.50270  1.0000 -0.1914334892
C   C39       1.0  0.61580  0.10540  0.00270  1.0000 -0.1914334892
C   C40       1.0  0.10540  0.61580  0.49730  1.0000 -0.1914334892
C   C41       1.0  0.43570  0.99870  0.98310  1.0000 0.0919859187
C   C42       1.0  0.99870  0.43570  0.51690  1.0000 0.0919859187
C   C43       1.0  0.56430  0.00130  0.01690  1.0000 0.0919859187
C   C44       1.0  0.00130  0.56430  0.48310  1.0000 0.0919859187
C   C45       1.0  0.35760  0.09920  0.93520  1.0000 -0.2012851349
C   C46       1.0  0.09920  0.35760  0.56480  1.0000 -0.2012851349
C   C47       1.0  0.64240  0.90080  0.06480  1.0000 -0.2012851349
C   C48       1.0  0.90080  0.64240  0.43520  1.0000 -0.2012851349
C   C49       1.0  0.23760  0.09480  0.90560  1.0000 -0.033903634
C   C50       1.0  0.09480  0.23760  0.59440  1.0000 -0.033903634
C   C51       1.0  0.76240  0.90520  0.09440  1.0000 -0.033903634
C   C52       1.0  0.90520  0.76240  0.40560  1.0000 -0.033903634
N   N1        1.0  0.19230  0.99350  0.92000  1.0000 0.3070398831
N   N2        1.0  0.99350  0.19230  0.58000  1.0000 0.3070398831
N   N3        1.0  0.80770  0.00650  0.08000  1.0000 0.3070398831
N   N4        1.0  0.00650  0.80770  0.42000  1.0000 0.3070398831
O   O1        1.0  0.80990  0.89670  0.61490  1.0000 -0.5720012522
O   O2        1.0  0.89670  0.80990  0.88510  1.0000 -0.5720012522
O   O3        1.0  0.19010  0.10330  0.38510  1.0000 -0.5720012522
O   O4        1.0  0.10330  0.19010  0.11490  1.0000 -0.5720012522
O   O5        1.0  0.81370  0.97030  0.43900  1.0000 -0.563346859
O   O6        1.0  0.97030  0.81370  0.06100  1.0000 -0.563346859
O   O7        1.0  0.18630  0.02970  0.56100  1.0000 -0.563346859
O   O8        1.0  0.02970  0.18630  0.93900  1.0000 -0.563346859
O   O9        1.0  0.07440  0.99280  0.88670  1.0000 -0.5075985006
O   O10       1.0  0.99280  0.07440  0.61330  1.0000 -0.5075985006
O   O11       1.0  0.92560  0.00720  0.11330  1.0000 -0.5075985006
O   O12       1.0  0.00720  0.92560  0.38670  1.0000 -0.5075985006
O   O13       1.0  0.18620  0.92080  0.30140  1.0000 -0.5720012522
O   O14       1.0  0.92080  0.18620  0.19860  1.0000 -0.5720012522
O   O15       1.0  0.81380  0.07920  0.69860  1.0000 -0.5720012522
O   O16       1.0  0.07920  0.81380  0.80140  1.0000 -0.5720012522
O   O17       1.0  0.19200  0.94540  0.13900  1.0000 -0.5413335524
O   O18       1.0  0.94540  0.19200  0.36100  1.0000 -0.5413335524
O   O19       1.0  0.80800  0.05460  0.86100  1.0000 -0.5413335524
O   O20       1.0  0.05460  0.80800  0.63900  1.0000 -0.5413335524
