# DDEC6 charges by PACMAN v1.1 (https://github.com/mtap-research/PACMAN-charge/)
data_2010[Eu][nan]3[FSR]1
_chemical_formula_sum              "Eu2 H16 C20 N2 O14"
_cell_length_a       7.97
_cell_length_b       9.419
_cell_length_c       10.391
_cell_angle_alpha    95.79
_cell_angle_beta     112.084
_cell_angle_gamma    110.002

_symmetry_space_group_name_H-M    "P 1"
_symmetry_Int_Tables_number       1

loop_
  _symmetry_equiv_pos_as_xyz
  'x, y, z'

loop_
  _atom_site_type_symbol
  _atom_site_label
  _atom_site_symmetry_multiplicity
  _atom_site_fract_x
  _atom_site_fract_y
  _atom_site_fract_z
  _atom_site_occupancy
  _atom_site_charge
Eu  Eu1       1.0  0.28165  0.05090  0.01101  1.0000 2.0719126047
Eu  Eu2       1.0  0.71835  0.94910  0.98899  1.0000 2.0719126047
H   H1        1.0  0.81580  0.77480  0.64350  1.0000 0.1499393315
H   H2        1.0  0.18420  0.22520  0.35650  1.0000 0.1499393315
H   H3        1.0  0.71430  0.79180  0.40540  1.0000 0.1499393315
H   H4        1.0  0.28570  0.20820  0.59460  1.0000 0.1499393315
H   H5        1.0  0.75620  0.22740  0.53720  1.0000 0.1499393315
H   H6        1.0  0.24380  0.77260  0.46280  1.0000 0.1499393315
H   H7        1.0  0.88290  0.21130  0.77390  1.0000 0.1426626127
H   H8        1.0  0.11710  0.78870  0.22610  1.0000 0.1426626127
H   H9        1.0  0.46730  0.60550  0.13060  1.0000 0.1426626127
H   H10       1.0  0.53270  0.39450  0.86940  1.0000 0.1426626127
H   H11       1.0  0.26650  0.53780  0.14920  1.0000 0.1324515374
H   H12       1.0  0.73350  0.46220  0.85080  1.0000 0.1324515374
H   H13       1.0  0.26710  0.53600  0.87310  1.0000 0.1426626127
H   H14       1.0  0.73290  0.46400  0.12690  1.0000 0.1426626127
H   H15       1.0  0.07310  0.48760  0.90100  1.0000 0.1324515374
H   H16       1.0  0.92690  0.51240  0.09900  1.0000 0.1324515374
C   C1        1.0  0.80830  0.86820  0.62060  1.0000 0.008103475
C   C2        1.0  0.19170  0.13180  0.37940  1.0000 0.008103475
C   C3        1.0  0.74460  0.87730  0.47950  1.0000 -0.1531492739
C   C4        1.0  0.25540  0.12270  0.52050  1.0000 -0.1531492739
C   C5        1.0  0.72490  0.01080  0.44620  1.0000 0.008103475
C   C6        1.0  0.27510  0.98920  0.55380  1.0000 0.008103475
C   C7        1.0  0.77300  0.13580  0.55790  1.0000 -0.1580055474
C   C8        1.0  0.22700  0.86420  0.44210  1.0000 -0.1580055474
C   C9        1.0  0.84430  0.12510  0.69710  1.0000 0.008103475
C   C10       1.0  0.15570  0.87490  0.30290  1.0000 0.008103475
C   C11       1.0  0.65300  0.02170  0.29240  1.0000 0.6274910749
C   C12       1.0  0.34700  0.97830  0.70760  1.0000 0.6274910749
C   C13       1.0  0.32410  0.36350  0.06040  1.0000 0.6360557855
C   C14       1.0  0.67590  0.63650  0.93960  1.0000 0.6360557855
C   C15       1.0  0.32770  0.52670  0.08380  1.0000 -0.2849477349
C   C16       1.0  0.67230  0.47330  0.91620  1.0000 -0.2849477349
C   C17       1.0  0.21590  0.55850  0.94240  1.0000 -0.2995524524
C   C18       1.0  0.78410  0.44150  0.05760  1.0000 -0.2995524524
C   C19       1.0  0.23900  0.72500  0.96420  1.0000 0.687953669
C   C20       1.0  0.76100  0.27500  0.03580  1.0000 0.687953669
N   N1        1.0  0.85950  0.99300  0.72500  1.0000 0.3297131838
N   N2        1.0  0.14050  0.00700  0.27500  1.0000 0.3297131838
O   O1        1.0  0.92730  0.98280  0.86240  1.0000 -0.6895035325
O   O2        1.0  0.07270  0.01720  0.13760  1.0000 -0.6895035325
O   O3        1.0  0.49720  0.04330  0.24200  1.0000 -0.6214465915
O   O4        1.0  0.50280  0.95670  0.75800  1.0000 -0.6214465915
O   O5        1.0  0.75690  0.00710  0.23070  1.0000 -0.6347621499
O   O6        1.0  0.24310  0.99290  0.76930  1.0000 -0.6347621499
O   O7        1.0  0.39160  0.31340  0.16900  1.0000 -0.6493053852
O   O8        1.0  0.60840  0.68660  0.83100  1.0000 -0.6493053852
O   O9        1.0  0.25640  0.28110  0.93420  1.0000 -0.6387772678
O   O10       1.0  0.74360  0.71890  0.06580  1.0000 -0.6387772678
O   O11       1.0  0.10460  0.76210  0.97240  1.0000 -0.6214465915
O   O12       1.0  0.89540  0.23790  0.02760  1.0000 -0.6214465915
O   O13       1.0  0.39880  0.83250  0.97680  1.0000 -0.7692491232
O   O14       1.0  0.60120  0.16750  0.02320  1.0000 -0.7692491232
