# DDEC6 charges by PACMAN v1.1 (https://github.com/mtap-research/PACMAN-charge/)
data_2010[Ce][rtl]3[FSR]1
_chemical_formula_sum              "Ce4 P4 H60 C28 N4 O28"
_cell_length_a       5.6906
_cell_length_b       12.8
_cell_length_c       21.55
_cell_angle_alpha    90
_cell_angle_beta     95.392
_cell_angle_gamma    90

_symmetry_space_group_name_H-M    "P 1"
_symmetry_Int_Tables_number       1

loop_
  _symmetry_equiv_pos_as_xyz
  'x, y, z'

loop_
  _atom_site_type_symbol
  _atom_site_label
  _atom_site_symmetry_multiplicity
  _atom_site_fract_x
  _atom_site_fract_y
  _atom_site_fract_z
  _atom_site_occupancy
  _atom_site_charge
Ce  Ce1       1.0  0.63155  0.14376  0.96900  1.0000 1.9645002917
Ce  Ce2       1.0  0.36845  0.64376  0.53100  1.0000 1.9645002917
Ce  Ce3       1.0  0.36845  0.85624  0.03100  1.0000 1.9645002917
Ce  Ce4       1.0  0.63155  0.35624  0.46900  1.0000 1.9645002917
P   P1        1.0  0.90460  0.02500  0.08404  1.0000 1.3092530802
P   P2        1.0  0.09540  0.52500  0.41596  1.0000 1.3092530802
P   P3        1.0  0.09540  0.97500  0.91596  1.0000 1.3092530802
P   P4        1.0  0.90460  0.47500  0.58404  1.0000 1.3092530802
H   H1        1.0  0.35140  0.25280  0.05100  1.0000 0.3645480409
H   H2        1.0  0.64860  0.75280  0.44900  1.0000 0.3645480409
H   H3        1.0  0.64860  0.74720  0.94900  1.0000 0.3645480409
H   H4        1.0  0.35140  0.24720  0.55100  1.0000 0.3645480409
H   H5        1.0  0.50770  0.19500  0.09110  1.0000 0.3374066487
H   H6        1.0  0.49230  0.69500  0.40890  1.0000 0.3374066487
H   H7        1.0  0.49230  0.80500  0.90890  1.0000 0.3374066487
H   H8        1.0  0.50770  0.30500  0.59110  1.0000 0.3374066487
H   H9        1.0  0.79070  0.34270  0.93380  1.0000 0.3374066487
H   H10       1.0  0.20930  0.84270  0.56620  1.0000 0.3374066487
H   H11       1.0  0.20930  0.65730  0.06620  1.0000 0.3374066487
H   H12       1.0  0.79070  0.15730  0.43380  1.0000 0.3374066487
H   H13       1.0  0.99960  0.29330  0.95740  1.0000 0.3736695483
H   H14       1.0  0.00040  0.79330  0.54260  1.0000 0.3736695483
H   H15       1.0  0.00040  0.70670  0.04260  1.0000 0.3736695483
H   H16       1.0  0.99960  0.20670  0.45740  1.0000 0.3736695483
H   H17       1.0  0.73460  0.97980  0.17480  1.0000 0.15381421
H   H18       1.0  0.26540  0.47980  0.32520  1.0000 0.15381421
H   H19       1.0  0.26540  0.02020  0.82520  1.0000 0.15381421
H   H20       1.0  0.73460  0.52020  0.67480  1.0000 0.15381421
H   H21       1.0  0.66730  0.09480  0.15640  1.0000 0.1246646777
H   H22       1.0  0.33270  0.59480  0.34360  1.0000 0.1246646777
H   H23       1.0  0.33270  0.90520  0.84360  1.0000 0.1246646777
H   H24       1.0  0.66730  0.40520  0.65640  1.0000 0.1246646777
H   H25       1.0  0.74240  0.11490  0.27310  1.0000 0.0980411511
H   H26       1.0  0.25760  0.61490  0.22690  1.0000 0.0980411511
H   H27       1.0  0.25760  0.88510  0.72690  1.0000 0.0980411511
H   H28       1.0  0.74240  0.38510  0.77310  1.0000 0.0980411511
H   H29       1.0  0.84450  0.00130  0.27880  1.0000 0.109403225
H   H30       1.0  0.15550  0.50130  0.22120  1.0000 0.109403225
H   H31       1.0  0.15550  0.99870  0.72120  1.0000 0.109403225
H   H32       1.0  0.84450  0.49870  0.77880  1.0000 0.109403225
H   H33       1.0  0.19750  0.06210  0.32870  1.0000 0.109403225
H   H34       1.0  0.80250  0.56210  0.17130  1.0000 0.109403225
H   H35       1.0  0.80250  0.93790  0.67130  1.0000 0.109403225
H   H36       1.0  0.19750  0.43790  0.82870  1.0000 0.109403225
H   H37       1.0  0.99040  0.10490  0.36460  1.0000 0.0980411511
H   H38       1.0  0.00960  0.60490  0.13540  1.0000 0.0980411511
H   H39       1.0  0.00960  0.89510  0.63540  1.0000 0.0980411511
H   H40       1.0  0.99040  0.39510  0.86460  1.0000 0.0980411511
H   H41       1.0  0.00980  0.26760  0.31610  1.0000 0.1258419141
H   H42       1.0  0.99020  0.76760  0.18390  1.0000 0.1258419141
H   H43       1.0  0.99020  0.73240  0.68390  1.0000 0.1258419141
H   H44       1.0  0.00980  0.23240  0.81610  1.0000 0.1258419141
H   H45       1.0  0.27670  0.30100  0.24530  1.0000 0.109403225
H   H46       1.0  0.72330  0.80100  0.25470  1.0000 0.109403225
H   H47       1.0  0.72330  0.69900  0.75470  1.0000 0.109403225
H   H48       1.0  0.27670  0.19900  0.74530  1.0000 0.109403225
H   H49       1.0  0.37320  0.18650  0.25180  1.0000 0.0980411511
H   H50       1.0  0.62680  0.68650  0.24820  1.0000 0.0980411511
H   H51       1.0  0.62680  0.81350  0.74820  1.0000 0.0980411511
H   H52       1.0  0.37320  0.31350  0.75180  1.0000 0.0980411511
H   H53       1.0  0.11440  0.19910  0.16100  1.0000 0.109403225
H   H54       1.0  0.88560  0.69910  0.33900  1.0000 0.109403225
H   H55       1.0  0.88560  0.80090  0.83900  1.0000 0.109403225
H   H56       1.0  0.11440  0.30090  0.66100  1.0000 0.109403225
H   H57       1.0  0.91210  0.23960  0.19960  1.0000 0.0980411511
H   H58       1.0  0.08790  0.73960  0.30040  1.0000 0.0980411511
H   H59       1.0  0.08790  0.76040  0.80040  1.0000 0.0980411511
H   H60       1.0  0.91210  0.26040  0.69960  1.0000 0.0980411511
C   C1        1.0  0.79710  0.04550  0.16110  1.0000 -0.446241574
C   C2        1.0  0.20290  0.54550  0.33890  1.0000 -0.446241574
C   C3        1.0  0.20290  0.95450  0.83890  1.0000 -0.446241574
C   C4        1.0  0.79710  0.45450  0.66110  1.0000 -0.446241574
C   C5        1.0  0.88500  0.07380  0.27240  1.0000 -0.1054168349
C   C6        1.0  0.11500  0.57380  0.22760  1.0000 -0.1054168349
C   C7        1.0  0.11500  0.92620  0.72760  1.0000 -0.1054168349
C   C8        1.0  0.88500  0.42620  0.77240  1.0000 -0.1054168349
C   C9        1.0  0.06300  0.10880  0.32570  1.0000 -0.1988650202
C   C10       1.0  0.93700  0.60880  0.17430  1.0000 -0.1988650202
C   C11       1.0  0.93700  0.89120  0.67430  1.0000 -0.1988650202
C   C12       1.0  0.06300  0.39120  0.82570  1.0000 -0.1988650202
C   C13       1.0  0.14800  0.22180  0.31590  1.0000 -0.1229813263
C   C14       1.0  0.85200  0.72180  0.18410  1.0000 -0.1229813263
C   C15       1.0  0.85200  0.77820  0.68410  1.0000 -0.1229813263
C   C16       1.0  0.14800  0.27820  0.81590  1.0000 -0.1229813263
C   C17       1.0  0.23300  0.22920  0.25290  1.0000 -0.2083670065
C   C18       1.0  0.76700  0.72920  0.24710  1.0000 -0.2083670065
C   C19       1.0  0.76700  0.77080  0.74710  1.0000 -0.2083670065
C   C20       1.0  0.23300  0.27080  0.75290  1.0000 -0.2083670065
C   C21       1.0  0.04900  0.19400  0.20080  1.0000 -0.1054168349
C   C22       1.0  0.95100  0.69400  0.29920  1.0000 -0.1054168349
C   C23       1.0  0.95100  0.80600  0.79920  1.0000 -0.1054168349
C   C24       1.0  0.04900  0.30600  0.70080  1.0000 -0.1054168349
C   C25       1.0  0.32300  0.25690  0.36700  1.0000 0.5684113339
C   C26       1.0  0.67700  0.75690  0.13300  1.0000 0.5684113339
C   C27       1.0  0.67700  0.74310  0.63300  1.0000 0.5684113339
C   C28       1.0  0.32300  0.24310  0.86700  1.0000 0.5684113339
N   N1        1.0  0.97400  0.08450  0.21090  1.0000 -0.0337366914
N   N2        1.0  0.02600  0.58450  0.28910  1.0000 -0.0337366914
N   N3        1.0  0.02600  0.91550  0.78910  1.0000 -0.0337366914
N   N4        1.0  0.97400  0.41550  0.71090  1.0000 -0.0337366914
O   O1        1.0  0.68450  0.98170  0.04600  1.0000 -0.9123055503
O   O2        1.0  0.31550  0.48170  0.45400  1.0000 -0.9123055503
O   O3        1.0  0.31550  0.01830  0.95400  1.0000 -0.9123055503
O   O4        1.0  0.68450  0.51830  0.54600  1.0000 -0.9123055503
O   O5        1.0  0.95840  0.12910  0.05500  1.0000 -0.8417796954
O   O6        1.0  0.04160  0.62910  0.44500  1.0000 -0.8417796954
O   O7        1.0  0.04160  0.87090  0.94500  1.0000 -0.8417796954
O   O8        1.0  0.95840  0.37090  0.55500  1.0000 -0.8417796954
O   O9        1.0  0.10910  0.95220  0.09210  1.0000 -0.8094229862
O   O10       1.0  0.89090  0.45220  0.40790  1.0000 -0.8094229862
O   O11       1.0  0.89090  0.04780  0.90790  1.0000 -0.8094229862
O   O12       1.0  0.10910  0.54780  0.59210  1.0000 -0.8094229862
O   O13       1.0  0.29860  0.23590  0.42320  1.0000 -0.6308566793
O   O14       1.0  0.70140  0.73590  0.07680  1.0000 -0.6308566793
O   O15       1.0  0.70140  0.76410  0.57680  1.0000 -0.6308566793
O   O16       1.0  0.29860  0.26410  0.92320  1.0000 -0.6308566793
O   O17       1.0  0.49900  0.31180  0.35490  1.0000 -0.607853578
O   O18       1.0  0.50100  0.81180  0.14510  1.0000 -0.607853578
O   O19       1.0  0.50100  0.68820  0.64510  1.0000 -0.607853578
O   O20       1.0  0.49900  0.18820  0.85490  1.0000 -0.607853578
O   O21       1.0  0.40780  0.19450  0.05790  1.0000 -0.7081773445
O   O22       1.0  0.59220  0.69450  0.44210  1.0000 -0.7081773445
O   O23       1.0  0.59220  0.80550  0.94210  1.0000 -0.7081773445
O   O24       1.0  0.40780  0.30550  0.55790  1.0000 -0.7081773445
O   O25       1.0  0.85590  0.30700  0.96400  1.0000 -0.7578727767
O   O26       1.0  0.14410  0.80700  0.53600  1.0000 -0.7578727767
O   O27       1.0  0.14410  0.69300  0.03600  1.0000 -0.7578727767
O   O28       1.0  0.85590  0.19300  0.46400  1.0000 -0.7578727767
