# DDEC6 charges by PACMAN v1.1 (https://github.com/mtap-research/PACMAN-charge/)
data_2010[Fe][bpq]3[FSR]3
_chemical_formula_sum              "Fe2 H8 C16 O10"
_cell_length_a       11.2918
_cell_length_b       11.2918
_cell_length_c       11.2918
_cell_angle_alpha    144.233
_cell_angle_beta     100.822
_cell_angle_gamma    90.048

_symmetry_space_group_name_H-M    "P 1"
_symmetry_Int_Tables_number       1

loop_
  _symmetry_equiv_pos_as_xyz
  'x, y, z'

loop_
  _atom_site_type_symbol
  _atom_site_label
  _atom_site_symmetry_multiplicity
  _atom_site_fract_x
  _atom_site_fract_y
  _atom_site_fract_z
  _atom_site_occupancy
  _atom_site_charge
Fe  Fe1       1.0  0.50000  0.50000  0.50000  1.0000 1.2913170792
Fe  Fe2       1.0  0.50000  0.00000  0.00000  1.0000 1.2913170792
H   H1        1.0  0.11000  0.25980  0.25960  1.0000 0.1264302507
H   H2        1.0  0.89000  0.14960  0.14980  1.0000 0.1264302507
H   H3        1.0  0.50020  0.35040  0.74040  1.0000 0.1264302507
H   H4        1.0  0.49980  0.24020  0.85020  1.0000 0.1264302507
H   H5        1.0  0.89000  0.74020  0.74040  1.0000 0.1264302507
H   H6        1.0  0.11000  0.85040  0.85020  1.0000 0.1264302507
H   H7        1.0  0.49980  0.64960  0.25960  1.0000 0.1264302507
H   H8        1.0  0.50020  0.75980  0.14980  1.0000 0.1264302507
C   C1        1.0  0.12890  0.56460  0.56430  1.0000 -0.0335795954
C   C2        1.0  0.87110  0.43540  0.43570  1.0000 -0.0335795954
C   C3        1.0  0.50030  0.06460  0.43570  1.0000 -0.0335795954
C   C4        1.0  0.49970  0.93540  0.56430  1.0000 -0.0335795954
C   C5        1.0  0.06440  0.35940  0.35920  1.0000 -0.0931848548
C   C6        1.0  0.93560  0.29480  0.29500  1.0000 -0.0931848548
C   C7        1.0  0.50020  0.20520  0.64080  1.0000 -0.0931848548
C   C8        1.0  0.49980  0.14060  0.70500  1.0000 -0.0931848548
C   C9        1.0  0.93560  0.64060  0.64080  1.0000 -0.0931848548
C   C10       1.0  0.06440  0.70520  0.70500  1.0000 -0.0931848548
C   C11       1.0  0.49980  0.79480  0.35920  1.0000 -0.0931848548
C   C12       1.0  0.50020  0.85940  0.29500  1.0000 -0.0931848548
C   C13       1.0  0.26560  0.63310  0.63250  1.0000 0.5827595778
C   C14       1.0  0.73440  0.36690  0.36750  1.0000 0.5827595778
C   C15       1.0  0.50060  0.13310  0.36750  1.0000 0.5827595778
C   C16       1.0  0.49940  0.86690  0.63250  1.0000 0.5827595778
O   O1        1.0  0.56190  0.75000  0.81190  1.0000 -0.5299358033
O   O2        1.0  0.43810  0.25000  0.18810  1.0000 -0.5299358033
O   O3        1.0  0.32470  0.50410  0.50340  1.0000 -0.498180706
O   O4        1.0  0.67530  0.17870  0.17940  1.0000 -0.498180706
O   O5        1.0  0.50070  0.32130  0.49660  1.0000 -0.498180706
O   O6        1.0  0.49930  0.99590  0.82060  1.0000 -0.498180706
O   O7        1.0  0.67530  0.49590  0.49660  1.0000 -0.498180706
O   O8        1.0  0.32470  0.82130  0.82060  1.0000 -0.498180706
O   O9        1.0  0.49930  0.67870  0.50340  1.0000 -0.498180706
O   O10       1.0  0.50070  0.00410  0.17940  1.0000 -0.498180706
