# DDEC6 charges by PACMAN v1.1 (https://github.com/mtap-research/PACMAN-charge/)
data_2010[Ni][lvt]3[FSR]1
_chemical_formula_sum              "Ni4 H32 C36 N8 O24"
_cell_length_a       9.94976
_cell_length_b       9.94976
_cell_length_c       14.376
_cell_angle_alpha    81.6485
_cell_angle_beta     98.3515
_cell_angle_gamma    72.3232

_symmetry_space_group_name_H-M    "P 1"
_symmetry_Int_Tables_number       1

loop_
  _symmetry_equiv_pos_as_xyz
  'x, y, z'

loop_
  _atom_site_type_symbol
  _atom_site_label
  _atom_site_symmetry_multiplicity
  _atom_site_fract_x
  _atom_site_fract_y
  _atom_site_fract_z
  _atom_site_occupancy
  _atom_site_charge
Ni  Ni1       1.0  0.50008  0.99764  0.25466  1.0000 0.8267623097
Ni  Ni2       1.0  0.99764  0.50008  0.24534  1.0000 0.8267623097
Ni  Ni3       1.0  0.49992  0.00236  0.74534  1.0000 0.8267623097
Ni  Ni4       1.0  0.00236  0.49992  0.75466  1.0000 0.8267623097
H   H1        1.0  0.48180  0.91540  0.42740  1.0000 0.382987699
H   H2        1.0  0.91540  0.48180  0.07260  1.0000 0.382987699
H   H3        1.0  0.51820  0.08460  0.57260  1.0000 0.382987699
H   H4        1.0  0.08460  0.51820  0.92740  1.0000 0.382987699
H   H5        1.0  0.33430  0.00230  0.39210  1.0000 0.3853117735
H   H6        1.0  0.00230  0.33430  0.10790  1.0000 0.3853117735
H   H7        1.0  0.66570  0.99770  0.60790  1.0000 0.3853117735
H   H8        1.0  0.99770  0.66570  0.89210  1.0000 0.3853117735
H   H9        1.0  0.65080  0.09360  0.15000  1.0000 0.3625729591
H   H10       1.0  0.09360  0.65080  0.35000  1.0000 0.3625729591
H   H11       1.0  0.34920  0.90640  0.85000  1.0000 0.3625729591
H   H12       1.0  0.90640  0.34920  0.65000  1.0000 0.3625729591
H   H13       1.0  0.60520  0.00780  0.09270  1.0000 0.382987699
H   H14       1.0  0.00780  0.60520  0.40730  1.0000 0.382987699
H   H15       1.0  0.39480  0.99220  0.90730  1.0000 0.382987699
H   H16       1.0  0.99220  0.39480  0.59270  1.0000 0.382987699
H   H17       1.0  0.39960  0.72780  0.26460  1.0000 0.1120913164
H   H18       1.0  0.72780  0.39960  0.23540  1.0000 0.1120913164
H   H19       1.0  0.60040  0.27220  0.73540  1.0000 0.1120913164
H   H20       1.0  0.27220  0.60040  0.76460  1.0000 0.1120913164
H   H21       1.0  0.76900  0.76900  0.25000  1.0000 0.1120913164
H   H22       1.0  0.23100  0.23100  0.75000  1.0000 0.1120913164
H   H23       1.0  0.60500  0.26380  0.25570  1.0000 0.1028611944
H   H24       1.0  0.26380  0.60500  0.24430  1.0000 0.1028611944
H   H25       1.0  0.39500  0.73620  0.74430  1.0000 0.1028611944
H   H26       1.0  0.73620  0.39500  0.75570  1.0000 0.1028611944
H   H27       1.0  0.22780  0.22780  0.25000  1.0000 0.1120913164
H   H28       1.0  0.77220  0.77220  0.75000  1.0000 0.1120913164
H   H29       1.0  0.82740  0.15560  0.37480  1.0000 0.1120913164
H   H30       1.0  0.15560  0.82740  0.12520  1.0000 0.1120913164
H   H31       1.0  0.17260  0.84440  0.62520  1.0000 0.1120913164
H   H32       1.0  0.84440  0.17260  0.87480  1.0000 0.1120913164
C   C1        1.0  0.54600  0.54600  0.25000  1.0000 0.0007223966
C   C2        1.0  0.45400  0.45400  0.75000  1.0000 0.0007223966
C   C3        1.0  0.49440  0.68940  0.25770  1.0000 0.0814144616
C   C4        1.0  0.68940  0.49440  0.24230  1.0000 0.0814144616
C   C5        1.0  0.50560  0.31060  0.74230  1.0000 0.0814144616
C   C6        1.0  0.31060  0.50560  0.75770  1.0000 0.0814144616
C   C7        1.0  0.71110  0.71110  0.25000  1.0000 0.21035572
C   C8        1.0  0.28890  0.28890  0.75000  1.0000 0.21035572
C   C9        1.0  0.45420  0.45420  0.25000  1.0000 0.0162610156
C   C10       1.0  0.54580  0.54580  0.75000  1.0000 0.0162610156
C   C11       1.0  0.50710  0.30610  0.25320  1.0000 0.0616019913
C   C12       1.0  0.30610  0.50710  0.24680  1.0000 0.0616019913
C   C13       1.0  0.49290  0.69390  0.74680  1.0000 0.0616019913
C   C14       1.0  0.69390  0.49290  0.75320  1.0000 0.0616019913
C   C15       1.0  0.28570  0.28570  0.25000  1.0000 0.2238415987
C   C16       1.0  0.71430  0.71430  0.75000  1.0000 0.2238415987
C   C17       1.0  0.87670  0.96530  0.46540  1.0000 -0.0545186563
C   C18       1.0  0.96530  0.87670  0.03460  1.0000 -0.0545186563
C   C19       1.0  0.12330  0.03470  0.53460  1.0000 -0.0545186563
C   C20       1.0  0.03470  0.12330  0.96540  1.0000 -0.0545186563
C   C21       1.0  0.98510  0.86950  0.54160  1.0000 -0.0364437825
C   C22       1.0  0.86950  0.98510  0.95840  1.0000 -0.0364437825
C   C23       1.0  0.01490  0.13050  0.45840  1.0000 -0.0364437825
C   C24       1.0  0.13050  0.01490  0.04160  1.0000 -0.0364437825
C   C25       1.0  0.89710  0.09290  0.42580  1.0000 -0.1459409758
C   C26       1.0  0.09290  0.89710  0.07420  1.0000 -0.1459409758
C   C27       1.0  0.10290  0.90710  0.57420  1.0000 -0.1459409758
C   C28       1.0  0.90710  0.10290  0.92580  1.0000 -0.1459409758
C   C29       1.0  0.74020  0.94100  0.42780  1.0000 0.5623776675
C   C30       1.0  0.94100  0.74020  0.07220  1.0000 0.5623776675
C   C31       1.0  0.25980  0.05900  0.57220  1.0000 0.5623776675
C   C32       1.0  0.05900  0.25980  0.92780  1.0000 0.5623776675
C   C33       1.0  0.98100  0.72260  0.58230  1.0000 0.5671207816
C   C34       1.0  0.72260  0.98100  0.91770  1.0000 0.5671207816
C   C35       1.0  0.01900  0.27740  0.41770  1.0000 0.5671207816
C   C36       1.0  0.27740  0.01900  0.08230  1.0000 0.5671207816
N   N1        1.0  0.57530  0.77370  0.25540  1.0000 -0.2363311737
N   N2        1.0  0.77370  0.57530  0.24460  1.0000 -0.2363311737
N   N3        1.0  0.42470  0.22630  0.74460  1.0000 -0.2363311737
N   N4        1.0  0.22630  0.42470  0.75540  1.0000 -0.2363311737
N   N5        1.0  0.42520  0.22200  0.25280  1.0000 -0.2512918576
N   N6        1.0  0.22200  0.42520  0.24720  1.0000 -0.2512918576
N   N7        1.0  0.57480  0.77800  0.74720  1.0000 -0.2512918576
N   N8        1.0  0.77800  0.57480  0.75280  1.0000 -0.2512918576
O   O1        1.0  0.68850  0.98610  0.33940  1.0000 -0.5678822487
O   O2        1.0  0.98610  0.68850  0.16060  1.0000 -0.5678822487
O   O3        1.0  0.31150  0.01390  0.66060  1.0000 -0.5678822487
O   O4        1.0  0.01390  0.31150  0.83940  1.0000 -0.5678822487
O   O5        1.0  0.68360  0.88140  0.48640  1.0000 -0.555365154
O   O6        1.0  0.88140  0.68360  0.01360  1.0000 -0.555365154
O   O7        1.0  0.31640  0.11860  0.51360  1.0000 -0.555365154
O   O8        1.0  0.11860  0.31640  0.98640  1.0000 -0.555365154
O   O9        1.0  0.98430  0.69490  0.67190  1.0000 -0.5678822487
O   O10       1.0  0.69490  0.98430  0.82810  1.0000 -0.5678822487
O   O11       1.0  0.01570  0.30510  0.32810  1.0000 -0.5678822487
O   O12       1.0  0.30510  0.01570  0.17190  1.0000 -0.5678822487
O   O13       1.0  0.98060  0.63660  0.52960  1.0000 -0.5093363016
O   O14       1.0  0.63660  0.98060  0.97040  1.0000 -0.5093363016
O   O15       1.0  0.01940  0.36340  0.47040  1.0000 -0.5093363016
O   O16       1.0  0.36340  0.01940  0.02960  1.0000 -0.5093363016
O   O17       1.0  0.41640  0.95220  0.37610  1.0000 -0.6880871742
O   O18       1.0  0.95220  0.41640  0.12390  1.0000 -0.6880871742
O   O19       1.0  0.58360  0.04780  0.62390  1.0000 -0.6880871742
O   O20       1.0  0.04780  0.58360  0.87610  1.0000 -0.6880871742
O   O21       1.0  0.60290  0.03490  0.14660  1.0000 -0.664783278
O   O22       1.0  0.03490  0.60290  0.35340  1.0000 -0.664783278
O   O23       1.0  0.39710  0.96510  0.85340  1.0000 -0.664783278
O   O24       1.0  0.96510  0.39710  0.64660  1.0000 -0.664783278
