# DDEC6 charges by PACMAN v1.1 (https://github.com/mtap-research/PACMAN-charge/)
data_2010[Zn][tfz]3[FSR]1
_chemical_formula_sum              "Zn4 H30 C44 N4 O16"
_cell_length_a       9.8401
_cell_length_b       11.0617
_cell_length_c       13.585
_cell_angle_alpha    65.6679
_cell_angle_beta     78.0291
_cell_angle_gamma    69.89

_symmetry_space_group_name_H-M    "P 1"
_symmetry_Int_Tables_number       1

loop_
  _symmetry_equiv_pos_as_xyz
  'x, y, z'

loop_
  _atom_site_type_symbol
  _atom_site_label
  _atom_site_symmetry_multiplicity
  _atom_site_fract_x
  _atom_site_fract_y
  _atom_site_fract_z
  _atom_site_occupancy
  _atom_site_charge
Zn  Zn1       1.0  0.11134  0.67715  0.79580  1.0000 0.8260939038
Zn  Zn2       1.0  0.88866  0.32285  0.20420  1.0000 0.8260939038
Zn  Zn3       1.0  0.16858  0.42842  0.01748  1.0000 0.9280500329
Zn  Zn4       1.0  0.83142  0.57158  0.98252  1.0000 0.9280500329
H   H1        1.0  0.12280  0.01020  0.89610  1.0000 0.1210601576
H   H2        1.0  0.87720  0.98980  0.10390  1.0000 0.1210601576
H   H3        1.0  0.32710  0.00690  0.12870  1.0000 0.1210601576
H   H4        1.0  0.67290  0.99310  0.87130  1.0000 0.1210601576
H   H5        1.0  0.35340  0.64580  0.10480  1.0000 0.1324965616
H   H6        1.0  0.64660  0.35420  0.89520  1.0000 0.1324965616
H   H7        1.0  0.41810  0.56920  0.26800  1.0000 0.1210601576
H   H8        1.0  0.58190  0.43080  0.73200  1.0000 0.1210601576
H   H9        1.0  0.52260  0.58310  0.33590  1.0000 0.1324965616
H   H10       1.0  0.47740  0.41690  0.66410  1.0000 0.1324965616
H   H11       1.0  0.20430  0.44100  0.23210  1.0000 0.1210601576
H   H12       1.0  0.79570  0.55900  0.76790  1.0000 0.1210601576
H   H13       1.0  0.35230  0.32760  0.37410  1.0000 0.1210601576
H   H14       1.0  0.64770  0.67240  0.62590  1.0000 0.1210601576
H   H15       1.0  0.60280  0.07470  0.21890  1.0000 0.1324965616
H   H16       1.0  0.39720  0.92530  0.78110  1.0000 0.1394288606
H   H17       1.0  0.44720  0.19520  0.08080  1.0000 0.1125415257
H   H18       1.0  0.55280  0.80480  0.91920  1.0000 0.1125415257
H   H19       1.0  0.55930  0.14670  0.46360  1.0000 0.1210601576
H   H20       1.0  0.44070  0.85330  0.53640  1.0000 0.1210601576
H   H21       1.0  0.74860  0.00230  0.34460  1.0000 0.1324965616
H   H22       1.0  0.25140  0.99770  0.65540  1.0000 0.1324965616
H   H23       1.0  0.71140  0.07010  0.59130  1.0000 0.1394288606
H   H24       1.0  0.28860  0.92990  0.40870  1.0000 0.1394288606
H   H25       1.0  0.86890  0.94130  0.73060  1.0000 0.1125415257
H   H26       1.0  0.13110  0.05870  0.26940  1.0000 0.1125415257
H   H27       1.0  0.08060  0.68590  0.58080  1.0000 0.1125415257
H   H28       1.0  0.91940  0.31410  0.41920  1.0000 0.1125415257
H   H29       1.0  0.93890  0.80870  0.43870  1.0000 0.1394288606
H   H30       1.0  0.06110  0.19130  0.56130  1.0000 0.1394288606
C   C1        1.0  0.19100  0.73620  0.94540  1.0000 0.5875281311
C   C2        1.0  0.80900  0.26380  0.05460  1.0000 0.5875281311
C   C3        1.0  0.22940  0.81800  0.99570  1.0000 0.0023665301
C   C4        1.0  0.77060  0.18200  0.00430  1.0000 0.0023665301
C   C5        1.0  0.17970  0.96070  0.95680  1.0000 -0.1690982142
C   C6        1.0  0.82030  0.03930  0.04320  1.0000 -0.1690982142
C   C7        1.0  0.21500  0.03210  0.00890  1.0000 0.0192214549
C   C8        1.0  0.78500  0.96790  0.99110  1.0000 0.0192214549
C   C9        1.0  0.30350  0.95880  0.09370  1.0000 -0.2435641335
C   C10       1.0  0.69650  0.04120  0.90630  1.0000 -0.2435641335
C   C11       1.0  0.35850  0.81520  0.12830  1.0000 0.2587454236
C   C12       1.0  0.64150  0.18480  0.87170  1.0000 0.2587454236
C   C13       1.0  0.31900  0.74410  0.08000  1.0000 -0.2435641335
C   C14       1.0  0.68100  0.25590  0.92000  1.0000 -0.2435641335
C   C15       1.0  0.49740  0.60860  0.26160  1.0000 -0.1690982142
C   C16       1.0  0.50260  0.39140  0.73840  1.0000 -0.1690982142
C   C17       1.0  0.62870  0.54230  0.20060  1.0000 0.61294379
C   C18       1.0  0.37130  0.45770  0.79940  1.0000 0.61294379
C   C19       1.0  0.15520  0.18990  0.97440  1.0000 0.5674835062
C   C20       1.0  0.84480  0.81010  0.02560  1.0000 0.5674835062
C   C21       1.0  0.28630  0.36540  0.22920  1.0000 0.0985617257
C   C22       1.0  0.71370  0.63460  0.77080  1.0000 0.0985617257
C   C23       1.0  0.37490  0.29860  0.31430  1.0000 -0.2203182065
C   C24       1.0  0.62510  0.70140  0.68570  1.0000 -0.2203182065
C   C25       1.0  0.49620  0.18950  0.31200  1.0000 0.1626564181
C   C26       1.0  0.50380  0.81050  0.68800  1.0000 0.1626564181
C   C27       1.0  0.52160  0.15030  0.22330  1.0000 -0.1906972089
C   C28       1.0  0.47840  0.84970  0.77670  1.0000 -0.1906972089
C   C29       1.0  0.42770  0.22240  0.14130  1.0000 0.0916299309
C   C30       1.0  0.57230  0.77760  0.85870  1.0000 0.0916299309
C   C31       1.0  0.59180  0.11980  0.40270  1.0000 -0.1357456454
C   C32       1.0  0.40820  0.88020  0.59730  1.0000 -0.1357456454
C   C33       1.0  0.71470  0.02630  0.40680  1.0000 -0.1345252478
C   C34       1.0  0.28530  0.97370  0.59320  1.0000 -0.1345252478
C   C35       1.0  0.80940  0.95140  0.49910  1.0000 0.1538426197
C   C36       1.0  0.19060  0.04860  0.50090  1.0000 0.1538426197
C   C37       1.0  0.78840  0.99120  0.58770  1.0000 -0.2070678332
C   C38       1.0  0.21160  0.00880  0.41230  1.0000 -0.2070678332
C   C39       1.0  0.88220  0.91350  0.67090  1.0000 0.0916299309
C   C40       1.0  0.11780  0.08650  0.32910  1.0000 0.0916299309
C   C41       1.0  0.00510  0.76640  0.58280  1.0000 0.0649806178
C   C42       1.0  0.99490  0.23360  0.41720  1.0000 0.0649806178
C   C43       1.0  0.92050  0.83790  0.49810  1.0000 -0.1980156087
C   C44       1.0  0.07950  0.16210  0.50190  1.0000 -0.1980156087
N   N1        1.0  0.30960  0.32950  0.14380  1.0000 -0.2070678332
N   N2        1.0  0.69040  0.67050  0.85620  1.0000 -0.2070678332
N   N3        1.0  0.99040  0.80040  0.66870  1.0000 -0.2290653073
N   N4        1.0  0.00960  0.19960  0.33130  1.0000 -0.2290653073
O   O1        1.0  0.14210  0.80160  0.85250  1.0000 -0.5356165552
O   O2        1.0  0.85790  0.19840  0.14750  1.0000 -0.5356165552
O   O3        1.0  0.21110  0.60980  0.99840  1.0000 -0.511171081
O   O4        1.0  0.78890  0.39020  0.00160  1.0000 -0.511171081
O   O5        1.0  0.44530  0.75540  0.21320  1.0000 -0.1594928884
O   O6        1.0  0.55470  0.24460  0.78680  1.0000 -0.1594928884
O   O7        1.0  0.65430  0.60340  0.10380  1.0000 -0.4777797693
O   O8        1.0  0.34570  0.39660  0.89620  1.0000 -0.4777797693
O   O9        1.0  0.70150  0.42110  0.26100  1.0000 -0.5594534659
O   O10       1.0  0.29850  0.57890  0.73900  1.0000 -0.5594534659
O   O11       1.0  0.15930  0.23570  0.04360  1.0000 -0.5488030398
O   O12       1.0  0.84070  0.76430  0.95640  1.0000 -0.5488030398
O   O13       1.0  0.10930  0.26060  0.88250  1.0000 -0.4965476179
O   O14       1.0  0.89070  0.73940  0.11750  1.0000 -0.4965476179
O   O15       1.0  0.02570  0.52910  0.88970  1.0000 -0.7047473573
O   O16       1.0  0.97430  0.47090  0.11030  1.0000 -0.7059279465
