# DDEC6 charges by PACMAN v1.1 (https://github.com/mtap-research/PACMAN-charge/)
data_2010[Zn][pcu]3[FSR]3
_chemical_formula_sum              "Zn8 H76 C114 N4 O32 F36"
_cell_length_a       17.885
_cell_length_b       7.5417
_cell_length_c       29.1128
_cell_angle_alpha    90
_cell_angle_beta     125.363
_cell_angle_gamma    90

_symmetry_space_group_name_H-M    "P 1"
_symmetry_Int_Tables_number       1

loop_
  _symmetry_equiv_pos_as_xyz
  'x, y, z'

loop_
  _atom_site_type_symbol
  _atom_site_label
  _atom_site_symmetry_multiplicity
  _atom_site_fract_x
  _atom_site_fract_y
  _atom_site_fract_z
  _atom_site_occupancy
  _atom_site_charge
Zn  Zn1       1.0  0.04705  0.02615  0.96861  1.0000 0.9728675866
Zn  Zn2       1.0  0.95295  0.02615  0.53139  1.0000 0.9728675866
Zn  Zn3       1.0  0.95295  0.97385  0.03139  1.0000 0.9728675866
Zn  Zn4       1.0  0.04705  0.97385  0.46861  1.0000 0.9728675866
Zn  Zn5       1.0  0.92216  0.70556  0.91267  1.0000 0.9514408642
Zn  Zn6       1.0  0.07784  0.70556  0.58733  1.0000 0.9514408642
Zn  Zn7       1.0  0.07784  0.29444  0.08733  1.0000 0.9514408642
Zn  Zn8       1.0  0.92216  0.29444  0.41267  1.0000 0.9514408642
H   H1        1.0  0.82130  0.50500  0.73120  1.0000 0.1197322529
H   H2        1.0  0.17870  0.50500  0.76880  1.0000 0.1197322529
H   H3        1.0  0.17870  0.49500  0.26880  1.0000 0.1197322529
H   H4        1.0  0.82130  0.49500  0.23120  1.0000 0.1197322529
H   H5        1.0  0.55260  0.25700  0.72880  1.0000 0.1197322529
H   H6        1.0  0.44740  0.25700  0.77120  1.0000 0.1197322529
H   H7        1.0  0.44740  0.74300  0.27120  1.0000 0.1197322529
H   H8        1.0  0.55260  0.74300  0.22880  1.0000 0.1197322529
H   H9        1.0  0.81400  0.26030  0.64010  1.0000 0.1197322529
H   H10       1.0  0.18600  0.26030  0.85990  1.0000 0.1197322529
H   H11       1.0  0.18600  0.73970  0.35990  1.0000 0.1197322529
H   H12       1.0  0.81400  0.73970  0.14010  1.0000 0.1197322529
H   H13       1.0  0.75360  0.93460  0.75850  1.0000 0.1197322529
H   H14       1.0  0.24640  0.93460  0.74150  1.0000 0.1197322529
H   H15       1.0  0.24640  0.06540  0.24150  1.0000 0.1197322529
H   H16       1.0  0.75360  0.06540  0.25850  1.0000 0.1197322529
H   H17       1.0  0.66070  0.06630  0.67000  1.0000 0.1099098831
H   H18       1.0  0.33930  0.06630  0.83000  1.0000 0.1099098831
H   H19       1.0  0.33930  0.93370  0.33000  1.0000 0.1099098831
H   H20       1.0  0.66070  0.93370  0.17000  1.0000 0.1099098831
H   H21       1.0  0.64800  0.92300  0.86050  1.0000 0.1099098831
H   H22       1.0  0.35200  0.92300  0.63950  1.0000 0.1099098831
H   H23       1.0  0.35200  0.07700  0.13950  1.0000 0.1099098831
H   H24       1.0  0.64800  0.07700  0.36050  1.0000 0.1099098831
H   H25       1.0  0.77360  0.83700  0.57190  1.0000 0.1297561684
H   H26       1.0  0.22640  0.83700  0.92810  1.0000 0.1297561684
H   H27       1.0  0.22640  0.16300  0.42810  1.0000 0.1297561684
H   H28       1.0  0.77360  0.16300  0.07190  1.0000 0.1297561684
H   H29       1.0  0.67670  0.44490  0.78560  1.0000 0.1197322529
H   H30       1.0  0.32330  0.44490  0.71440  1.0000 0.1197322529
H   H31       1.0  0.32330  0.55510  0.21440  1.0000 0.1197322529
H   H32       1.0  0.67670  0.55510  0.28560  1.0000 0.1197322529
H   H33       1.0  0.77050  0.11280  0.91720  1.0000 0.1297561684
H   H34       1.0  0.22950  0.11280  0.58280  1.0000 0.1297561684
H   H35       1.0  0.22950  0.88720  0.08280  1.0000 0.1297561684
H   H36       1.0  0.77050  0.88720  0.41720  1.0000 0.1297561684
H   H37       1.0  0.91060  0.37580  0.81990  1.0000 0.1297561684
H   H38       1.0  0.08940  0.37580  0.68010  1.0000 0.1297561684
H   H39       1.0  0.08940  0.62420  0.18010  1.0000 0.1297561684
H   H40       1.0  0.91060  0.62420  0.31990  1.0000 0.1297561684
H   H41       1.0  0.91050  0.37060  0.61770  1.0000 0.1297561684
H   H42       1.0  0.08950  0.37060  0.88230  1.0000 0.1297561684
H   H43       1.0  0.08950  0.62940  0.38230  1.0000 0.1297561684
H   H44       1.0  0.91050  0.62940  0.11770  1.0000 0.1297561684
H   H45       1.0  0.67420  0.72380  0.59180  1.0000 0.1197322529
H   H46       1.0  0.32580  0.72380  0.90820  1.0000 0.1197322529
H   H47       1.0  0.32580  0.27620  0.40820  1.0000 0.1197322529
H   H48       1.0  0.67420  0.27620  0.09180  1.0000 0.1197322529
H   H49       1.0  0.31650  0.06900  0.03030  1.0000 0.141462204
H   H50       1.0  0.68350  0.06900  0.46970  1.0000 0.141462204
H   H51       1.0  0.68350  0.93100  0.96970  1.0000 0.141462204
H   H52       1.0  0.31650  0.93100  0.53030  1.0000 0.141462204
H   H53       1.0  0.35820  0.20980  0.00970  1.0000 0.1297561684
H   H54       1.0  0.64180  0.20980  0.49030  1.0000 0.1297561684
H   H55       1.0  0.64180  0.79020  0.99030  1.0000 0.1297561684
H   H56       1.0  0.35820  0.79020  0.50970  1.0000 0.1297561684
H   H57       1.0  0.40370  0.18570  0.07550  1.0000 0.1297561684
H   H58       1.0  0.59630  0.18570  0.42450  1.0000 0.1297561684
H   H59       1.0  0.59630  0.81430  0.92450  1.0000 0.1297561684
H   H60       1.0  0.40370  0.81430  0.57550  1.0000 0.1297561684
H   H61       1.0  0.26990  0.58270  0.04110  1.0000 0.1297561684
H   H62       1.0  0.73010  0.58270  0.45890  1.0000 0.1297561684
H   H63       1.0  0.73010  0.41730  0.95890  1.0000 0.1297561684
H   H64       1.0  0.26990  0.41730  0.54110  1.0000 0.1297561684
H   H65       1.0  0.37100  0.51130  0.08790  1.0000 0.141462204
H   H66       1.0  0.62900  0.51130  0.41210  1.0000 0.141462204
H   H67       1.0  0.62900  0.48870  0.91210  1.0000 0.141462204
H   H68       1.0  0.37100  0.48870  0.58790  1.0000 0.141462204
H   H69       1.0  0.33890  0.53960  0.02440  1.0000 0.1297561684
H   H70       1.0  0.66110  0.53960  0.47560  1.0000 0.1297561684
H   H71       1.0  0.66110  0.46040  0.97560  1.0000 0.1297561684
H   H72       1.0  0.33890  0.46040  0.52440  1.0000 0.1297561684
H   H73       1.0  0.16240  0.37700  0.01120  1.0000 0.1099098831
H   H74       1.0  0.83760  0.37700  0.48880  1.0000 0.1099098831
H   H75       1.0  0.83760  0.62300  0.98880  1.0000 0.1099098831
H   H76       1.0  0.16240  0.62300  0.51120  1.0000 0.1099098831
C   C1        1.0  0.91642  0.69140  0.58051  1.0000 0.5722383195
C   C2        1.0  0.08358  0.69140  0.91949  1.0000 0.5722383195
C   C3        1.0  0.08358  0.30860  0.41949  1.0000 0.5722383195
C   C4        1.0  0.91642  0.30860  0.08051  1.0000 0.5722383195
C   C5        1.0  0.50000  0.95830  0.75000  1.0000 -0.2808605001
C   C6        1.0  0.50000  0.04170  0.25000  1.0000 -0.2808605001
C   C7        1.0  0.80693  0.38920  0.73673  1.0000 -0.1388644902
C   C8        1.0  0.19307  0.38920  0.76327  1.0000 -0.1388644902
C   C9        1.0  0.19307  0.61080  0.26327  1.0000 -0.1388644902
C   C10       1.0  0.80693  0.61080  0.23673  1.0000 -0.1388644902
C   C11       1.0  0.58533  0.07440  0.78948  1.0000 0.0832454572
C   C12       1.0  0.41467  0.07440  0.71052  1.0000 0.0832454572
C   C13       1.0  0.41467  0.92560  0.21052  1.0000 0.0832454572
C   C14       1.0  0.58533  0.92560  0.28948  1.0000 0.0832454572
C   C15       1.0  0.59625  0.22850  0.76740  1.0000 -0.1476154691
C   C16       1.0  0.40375  0.22850  0.73260  1.0000 -0.1476154691
C   C17       1.0  0.40375  0.77150  0.23260  1.0000 -0.1476154691
C   C18       1.0  0.59625  0.77150  0.26740  1.0000 -0.1476154691
C   C19       1.0  0.73424  0.30060  0.85752  1.0000 -0.0273904139
C   C20       1.0  0.26576  0.30060  0.64248  1.0000 -0.0273904139
C   C21       1.0  0.26576  0.69940  0.14248  1.0000 -0.0273904139
C   C22       1.0  0.73424  0.69940  0.35752  1.0000 -0.0273904139
C   C23       1.0  0.89703  0.05490  0.85424  1.0000 0.5844573016
C   C24       1.0  0.10297  0.05490  0.64576  1.0000 0.5844573016
C   C25       1.0  0.10297  0.94510  0.14576  1.0000 0.5844573016
C   C26       1.0  0.89703  0.94510  0.35424  1.0000 0.5844573016
C   C27       1.0  0.67320  0.39700  0.63424  1.0000 -0.2808605001
C   C28       1.0  0.32680  0.39700  0.86576  1.0000 -0.2808605001
C   C29       1.0  0.32680  0.60300  0.36576  1.0000 -0.2808605001
C   C30       1.0  0.67320  0.60300  0.13424  1.0000 -0.2808605001
C   C31       1.0  0.73509  0.48130  0.61899  1.0000 0.0832454572
C   C32       1.0  0.26491  0.48130  0.88101  1.0000 0.0832454572
C   C33       1.0  0.26491  0.51870  0.38101  1.0000 0.0832454572
C   C34       1.0  0.73509  0.51870  0.11899  1.0000 0.0832454572
C   C35       1.0  0.73178  0.29900  0.69138  1.0000 0.0832454572
C   C36       1.0  0.26822  0.29900  0.80862  1.0000 0.0832454572
C   C37       1.0  0.26822  0.70100  0.30862  1.0000 0.0832454572
C   C38       1.0  0.73178  0.70100  0.19138  1.0000 0.0832454572
C   C39       1.0  0.84045  0.14210  0.79751  1.0000 -0.0215860528
C   C40       1.0  0.15955  0.14210  0.70249  1.0000 -0.0215860528
C   C41       1.0  0.15955  0.85790  0.20249  1.0000 -0.0215860528
C   C42       1.0  0.84045  0.85790  0.29751  1.0000 -0.0215860528
C   C43       1.0  0.80549  0.37780  0.62606  1.0000 -0.1388644902
C   C44       1.0  0.19451  0.37780  0.87394  1.0000 -0.1388644902
C   C45       1.0  0.19451  0.62220  0.37394  1.0000 -0.1388644902
C   C46       1.0  0.80549  0.62220  0.12606  1.0000 -0.1388644902
C   C47       1.0  0.76677  0.05140  0.75291  1.0000 -0.0799815347
C   C48       1.0  0.23323  0.05140  0.74709  1.0000 -0.0799815347
C   C49       1.0  0.23323  0.94860  0.24709  1.0000 -0.0799815347
C   C50       1.0  0.76677  0.94860  0.25291  1.0000 -0.0799815347
C   C51       1.0  0.61584  0.53750  0.64050  1.0000 0.6665375912
C   C52       1.0  0.38416  0.53750  0.85950  1.0000 0.6665375912
C   C53       1.0  0.38416  0.46250  0.35950  1.0000 0.6665375912
C   C54       1.0  0.61584  0.46250  0.14050  1.0000 0.6665375912
C   C55       1.0  0.71194  0.12900  0.70020  1.0000 -0.1573235476
C   C56       1.0  0.28806  0.12900  0.79980  1.0000 -0.1573235476
C   C57       1.0  0.28806  0.87100  0.29980  1.0000 -0.1573235476
C   C58       1.0  0.71194  0.87100  0.20020  1.0000 -0.1573235476
C   C59       1.0  0.65251  0.03080  0.84541  1.0000 -0.1388644902
C   C60       1.0  0.34749  0.03080  0.65459  1.0000 -0.1388644902
C   C61       1.0  0.34749  0.96920  0.15459  1.0000 -0.1388644902
C   C62       1.0  0.65251  0.96920  0.34541  1.0000 -0.1388644902
C   C63       1.0  0.47605  0.83750  0.78268  1.0000 0.660168075
C   C64       1.0  0.52395  0.83750  0.71732  1.0000 0.660168075
C   C65       1.0  0.52395  0.16250  0.21732  1.0000 0.660168075
C   C66       1.0  0.47605  0.16250  0.28268  1.0000 0.660168075
C   C67       1.0  0.78166  0.71920  0.58562  1.0000 -0.0909136649
C   C68       1.0  0.21834  0.71920  0.91438  1.0000 -0.0909136649
C   C69       1.0  0.21834  0.28080  0.41438  1.0000 -0.0909136649
C   C70       1.0  0.78166  0.28080  0.08562  1.0000 -0.0909136649
C   C71       1.0  0.67006  0.34030  0.80119  1.0000 -0.0909136649
C   C72       1.0  0.32994  0.34030  0.69881  1.0000 -0.0909136649
C   C73       1.0  0.32994  0.65970  0.19881  1.0000 -0.0909136649
C   C74       1.0  0.67006  0.65970  0.30119  1.0000 -0.0909136649
C   C75       1.0  0.60550  0.27260  0.58494  1.0000 0.660168075
C   C76       1.0  0.39450  0.27260  0.91506  1.0000 0.660168075
C   C77       1.0  0.39450  0.72740  0.41506  1.0000 0.660168075
C   C78       1.0  0.60550  0.72740  0.08494  1.0000 0.660168075
C   C79       1.0  0.72554  0.14320  0.87895  1.0000 -0.0799815347
C   C80       1.0  0.27446  0.14320  0.62105  1.0000 -0.0799815347
C   C81       1.0  0.27446  0.85680  0.12105  1.0000 -0.0799815347
C   C82       1.0  0.72554  0.85680  0.37895  1.0000 -0.0799815347
C   C83       1.0  0.81190  0.42560  0.89454  1.0000 0.5382186705
C   C84       1.0  0.18810  0.42560  0.60546  1.0000 0.5382186705
C   C85       1.0  0.18810  0.57440  0.10546  1.0000 0.5382186705
C   C86       1.0  0.81190  0.57440  0.39454  1.0000 0.5382186705
C   C87       1.0  0.86037  0.31250  0.78935  1.0000 -0.0799815347
C   C88       1.0  0.13963  0.31250  0.71065  1.0000 -0.0799815347
C   C89       1.0  0.13963  0.68750  0.21065  1.0000 -0.0799815347
C   C90       1.0  0.86037  0.68750  0.28935  1.0000 -0.0799815347
C   C91       1.0  0.86319  0.44340  0.61305  1.0000 -0.0909136649
C   C92       1.0  0.13681  0.44340  0.88695  1.0000 -0.0909136649
C   C93       1.0  0.13681  0.55660  0.38695  1.0000 -0.0909136649
C   C94       1.0  0.86319  0.55660  0.11305  1.0000 -0.0909136649
C   C95       1.0  0.72291  0.65260  0.59784  1.0000 -0.1573235476
C   C96       1.0  0.27709  0.65260  0.90216  1.0000 -0.1573235476
C   C97       1.0  0.27709  0.34740  0.40216  1.0000 -0.1573235476
C   C98       1.0  0.72291  0.34740  0.09784  1.0000 -0.1573235476
C   C99       1.0  0.85230  0.61590  0.59310  1.0000 -0.0215860528
C   C100      1.0  0.14770  0.61590  0.90690  1.0000 -0.0215860528
C   C101      1.0  0.14770  0.38410  0.40690  1.0000 -0.0215860528
C   C102      1.0  0.85230  0.38410  0.09310  1.0000 -0.0215860528
C   C103      1.0  0.20136  0.28060  0.01823  1.0000 0.3099194402
C   C104      1.0  0.79864  0.28060  0.48177  1.0000 0.3099194402
C   C105      1.0  0.79864  0.71940  0.98177  1.0000 0.3099194402
C   C106      1.0  0.20136  0.71940  0.51823  1.0000 0.3099194402
C   C107      1.0  0.34588  0.18540  0.03782  1.0000 -0.3502026452
C   C108      1.0  0.65412  0.18540  0.46218  1.0000 -0.3502026452
C   C109      1.0  0.65412  0.81460  0.96218  1.0000 -0.3502026452
C   C110      1.0  0.34588  0.81460  0.53782  1.0000 -0.3502026452
C   C111      1.0  0.31901  0.50380  0.04811  1.0000 -0.3502026452
C   C112      1.0  0.68099  0.50380  0.45189  1.0000 -0.3502026452
C   C113      1.0  0.68099  0.49620  0.95189  1.0000 -0.3502026452
C   C114      1.0  0.31901  0.49620  0.54811  1.0000 -0.3502026452
N   N1        1.0  0.28519  0.32160  0.03465  1.0000 0.0348902438
N   N2        1.0  0.71481  0.32160  0.46535  1.0000 0.0348902438
N   N3        1.0  0.71481  0.67840  0.96535  1.0000 0.0348902438
N   N4        1.0  0.28519  0.67840  0.53465  1.0000 0.0348902438
O   O1        1.0  0.81102  0.56960  0.87148  1.0000 -0.5458341306
O   O2        1.0  0.18898  0.56960  0.62852  1.0000 -0.5458341306
O   O3        1.0  0.18898  0.43040  0.12852  1.0000 -0.5458341306
O   O4        1.0  0.81102  0.43040  0.37148  1.0000 -0.5458341306
O   O5        1.0  0.90091  0.84580  0.56140  1.0000 -0.5314124142
O   O6        1.0  0.09909  0.84580  0.93860  1.0000 -0.5314124142
O   O7        1.0  0.09909  0.15420  0.43860  1.0000 -0.5314124142
O   O8        1.0  0.90091  0.15420  0.06140  1.0000 -0.5314124142
O   O9        1.0  0.96251  0.14100  0.89463  1.0000 -0.5081631308
O   O10       1.0  0.03749  0.14100  0.60537  1.0000 -0.5081631308
O   O11       1.0  0.03749  0.85900  0.10537  1.0000 -0.5081631308
O   O12       1.0  0.96251  0.85900  0.39463  1.0000 -0.5081631308
O   O13       1.0  0.87051  0.38970  0.94489  1.0000 -0.4505346185
O   O14       1.0  0.12949  0.38970  0.55511  1.0000 -0.4505346185
O   O15       1.0  0.12949  0.61030  0.05511  1.0000 -0.4505346185
O   O16       1.0  0.87051  0.61030  0.44489  1.0000 -0.4505346185
O   O17       1.0  0.87469  0.90010  0.85715  1.0000 -0.5352252191
O   O18       1.0  0.12531  0.90010  0.64285  1.0000 -0.5352252191
O   O19       1.0  0.12531  0.09990  0.14285  1.0000 -0.5352252191
O   O20       1.0  0.87469  0.09990  0.35715  1.0000 -0.5352252191
O   O21       1.0  0.98171  0.59380  0.59075  1.0000 -0.5081631308
O   O22       1.0  0.01829  0.59380  0.90925  1.0000 -0.5081631308
O   O23       1.0  0.01829  0.40620  0.40925  1.0000 -0.5081631308
O   O24       1.0  0.98171  0.40620  0.09075  1.0000 -0.5081631308
O   O25       1.0  0.98938  0.82560  0.98628  1.0000 -0.7441593474
O   O26       1.0  0.01062  0.82560  0.51372  1.0000 -0.7484398152
O   O27       1.0  0.01062  0.17440  0.01372  1.0000 -0.7484398152
O   O28       1.0  0.98938  0.17440  0.48628  1.0000 -0.7484398152
O   O29       1.0  0.17293  0.12580  0.00826  1.0000 -0.436641491
O   O30       1.0  0.82707  0.12580  0.49174  1.0000 -0.436641491
O   O31       1.0  0.82707  0.87420  0.99174  1.0000 -0.436641491
O   O32       1.0  0.17293  0.87420  0.50826  1.0000 -0.436641491
F   F1        1.0  0.39355  0.76240  0.74843  1.0000 -0.1804150259
F   F2        1.0  0.60645  0.76240  0.75157  1.0000 -0.1804150259
F   F3        1.0  0.60645  0.23760  0.25157  1.0000 -0.1804150259
F   F4        1.0  0.39355  0.23760  0.24843  1.0000 -0.1804150259
F   F5        1.0  0.53556  0.70460  0.81036  1.0000 -0.190845976
F   F6        1.0  0.46444  0.70460  0.68964  1.0000 -0.190845976
F   F7        1.0  0.46444  0.29540  0.18964  1.0000 -0.190845976
F   F8        1.0  0.53556  0.29540  0.31036  1.0000 -0.190845976
F   F9        1.0  0.64781  0.13030  0.58276  1.0000 -0.190845976
F   F10       1.0  0.35219  0.13030  0.91724  1.0000 -0.190845976
F   F11       1.0  0.35219  0.86970  0.41724  1.0000 -0.190845976
F   F12       1.0  0.64781  0.86970  0.08276  1.0000 -0.190845976
F   F13       1.0  0.53770  0.21240  0.58789  1.0000 -0.190845976
F   F14       1.0  0.46230  0.21240  0.91211  1.0000 -0.190845976
F   F15       1.0  0.46230  0.78760  0.41211  1.0000 -0.190845976
F   F16       1.0  0.53770  0.78760  0.08789  1.0000 -0.190845976
F   F17       1.0  0.47320  0.93040  0.82086  1.0000 -0.190845976
F   F18       1.0  0.52680  0.93040  0.67914  1.0000 -0.190845976
F   F19       1.0  0.52680  0.06960  0.17914  1.0000 -0.190845976
F   F20       1.0  0.47320  0.06960  0.32086  1.0000 -0.190845976
F   F21       1.0  0.57349  0.46530  0.66168  1.0000 -0.198552276
F   F22       1.0  0.42651  0.46530  0.83832  1.0000 -0.198552276
F   F23       1.0  0.42651  0.53470  0.33832  1.0000 -0.198552276
F   F24       1.0  0.57349  0.53470  0.16168  1.0000 -0.198552276
F   F25       1.0  0.66791  0.66920  0.67481  1.0000 -0.190845976
F   F26       1.0  0.33209  0.66920  0.82519  1.0000 -0.190845976
F   F27       1.0  0.33209  0.33080  0.32519  1.0000 -0.190845976
F   F28       1.0  0.66791  0.33080  0.17481  1.0000 -0.190845976
F   F29       1.0  0.56501  0.35430  0.53516  1.0000 -0.190845976
F   F30       1.0  0.43499  0.35430  0.96484  1.0000 -0.190845976
F   F31       1.0  0.43499  0.64570  0.46484  1.0000 -0.190845976
F   F32       1.0  0.56501  0.64570  0.03516  1.0000 -0.190845976
F   F33       1.0  0.55000  0.61190  0.59121  1.0000 -0.198552276
F   F34       1.0  0.45000  0.61190  0.90879  1.0000 -0.198552276
F   F35       1.0  0.45000  0.38810  0.40879  1.0000 -0.198552276
F   F36       1.0  0.55000  0.38810  0.09121  1.0000 -0.198552276
