# DDEC6 charges by PACMAN v1.1 (https://github.com/mtap-research/PACMAN-charge/)
data_2010[Zn][nan]3[FSR]1
_chemical_formula_sum              "Zn8 H64 C92 I8 N24 O16"
_cell_length_a       9.9056
_cell_length_b       7.662
_cell_length_c       36.857
_cell_angle_alpha    90
_cell_angle_beta     96.245
_cell_angle_gamma    90

_symmetry_space_group_name_H-M    "P 1"
_symmetry_Int_Tables_number       1

loop_
  _symmetry_equiv_pos_as_xyz
  'x, y, z'

loop_
  _atom_site_type_symbol
  _atom_site_label
  _atom_site_symmetry_multiplicity
  _atom_site_fract_x
  _atom_site_fract_y
  _atom_site_fract_z
  _atom_site_occupancy
  _atom_site_charge
Zn  Zn1       1.0  0.16822  0.45754  0.02738  1.0000 0.7294390235
Zn  Zn2       1.0  0.83178  0.95754  0.47262  1.0000 0.7294390235
Zn  Zn3       1.0  0.83178  0.54246  0.97262  1.0000 0.7294390235
Zn  Zn4       1.0  0.16822  0.04246  0.52738  1.0000 0.7294390235
Zn  Zn5       1.0  0.72786  0.66216  0.33186  1.0000 0.6573719714
Zn  Zn6       1.0  0.27214  0.16216  0.16814  1.0000 0.6573719714
Zn  Zn7       1.0  0.27214  0.33784  0.66814  1.0000 0.6573719714
Zn  Zn8       1.0  0.72786  0.83784  0.83186  1.0000 0.6573719714
H   H1        1.0  0.72570  0.79720  0.09220  1.0000 0.1379685212
H   H2        1.0  0.27430  0.29720  0.40780  1.0000 0.1379685212
H   H3        1.0  0.27430  0.20280  0.90780  1.0000 0.1379685212
H   H4        1.0  0.72570  0.70280  0.59220  1.0000 0.1379685212
H   H5        1.0  0.87790  0.70120  0.19600  1.0000 0.1379685212
H   H6        1.0  0.12210  0.20120  0.30400  1.0000 0.1379685212
H   H7        1.0  0.12210  0.29880  0.80400  1.0000 0.1379685212
H   H8        1.0  0.87790  0.79880  0.69600  1.0000 0.1379685212
H   H9        1.0  0.48900  0.58140  0.16200  1.0000 0.1379685212
H   H10       1.0  0.51100  0.08140  0.33800  1.0000 0.1379685212
H   H11       1.0  0.51100  0.41860  0.83800  1.0000 0.1379685212
H   H12       1.0  0.48900  0.91860  0.66200  1.0000 0.1379685212
H   H13       1.0  0.50950  0.91250  0.06590  1.0000 0.1278568741
H   H14       1.0  0.49050  0.41250  0.43410  1.0000 0.1278568741
H   H15       1.0  0.49050  0.08750  0.93410  1.0000 0.1278568741
H   H16       1.0  0.50950  0.58750  0.56590  1.0000 0.1278568741
H   H17       1.0  0.30830  0.81980  0.02610  1.0000 0.1278568741
H   H18       1.0  0.69170  0.31980  0.47390  1.0000 0.1278568741
H   H19       1.0  0.69170  0.18020  0.97390  1.0000 0.1278568741
H   H20       1.0  0.30830  0.68020  0.52610  1.0000 0.1278568741
H   H21       1.0  0.37810  0.46190  0.10230  1.0000 0.1102379477
H   H22       1.0  0.62190  0.96190  0.39770  1.0000 0.1102379477
H   H23       1.0  0.62190  0.53810  0.89770  1.0000 0.1102379477
H   H24       1.0  0.37810  0.03810  0.60230  1.0000 0.1102379477
H   H25       1.0  0.53400  0.36380  0.21570  1.0000 0.1278568741
H   H26       1.0  0.46600  0.86380  0.28430  1.0000 0.1278568741
H   H27       1.0  0.46600  0.63620  0.78430  1.0000 0.1278568741
H   H28       1.0  0.53400  0.13620  0.71570  1.0000 0.1278568741
H   H29       1.0  0.55390  0.36920  0.28230  1.0000 0.1278568741
H   H30       1.0  0.44610  0.86920  0.21770  1.0000 0.1278568741
H   H31       1.0  0.44610  0.63080  0.71770  1.0000 0.1278568741
H   H32       1.0  0.55390  0.13080  0.78230  1.0000 0.1278568741
H   H33       1.0  0.77430  0.75040  0.25180  1.0000 0.1102379477
H   H34       1.0  0.22570  0.25040  0.24820  1.0000 0.1102379477
H   H35       1.0  0.22570  0.24960  0.74820  1.0000 0.1102379477
H   H36       1.0  0.77430  0.74960  0.75180  1.0000 0.1102379477
H   H37       1.0  0.96880  0.78760  0.08220  1.0000 0.1379685212
H   H38       1.0  0.03120  0.28760  0.41780  1.0000 0.1379685212
H   H39       1.0  0.03120  0.21240  0.91780  1.0000 0.1379685212
H   H40       1.0  0.96880  0.71240  0.58220  1.0000 0.1379685212
H   H41       1.0  0.17260  0.96690  0.09200  1.0000 0.1278568741
H   H42       1.0  0.82740  0.46690  0.40800  1.0000 0.1278568741
H   H43       1.0  0.82740  0.03310  0.90800  1.0000 0.1278568741
H   H44       1.0  0.17260  0.53310  0.59200  1.0000 0.1278568741
H   H45       1.0  0.01030  0.95300  0.18430  1.0000 0.1102379477
H   H46       1.0  0.98970  0.45300  0.31570  1.0000 0.1102379477
H   H47       1.0  0.98970  0.04700  0.81570  1.0000 0.1102379477
H   H48       1.0  0.01030  0.54700  0.68430  1.0000 0.1102379477
H   H49       1.0  0.50490  0.72140  0.42740  1.0000 0.1102379477
H   H50       1.0  0.49510  0.22140  0.07260  1.0000 0.1102379477
H   H51       1.0  0.49510  0.27860  0.57260  1.0000 0.1102379477
H   H52       1.0  0.50490  0.77860  0.92740  1.0000 0.1102379477
H   H53       1.0  0.35490  0.80340  0.46700  1.0000 0.1181601078
H   H54       1.0  0.64510  0.30340  0.03300  1.0000 0.1181601078
H   H55       1.0  0.64510  0.19660  0.53300  1.0000 0.1181601078
H   H56       1.0  0.35490  0.69660  0.96700  1.0000 0.1181601078
H   H57       1.0  0.05670  0.81490  0.38460  1.0000 0.1102379477
H   H58       1.0  0.94330  0.31490  0.11540  1.0000 0.1102379477
H   H59       1.0  0.94330  0.18510  0.61540  1.0000 0.1102379477
H   H60       1.0  0.05670  0.68510  0.88460  1.0000 0.1102379477
H   H61       1.0  0.20490  0.72110  0.34500  1.0000 0.1102379477
H   H62       1.0  0.79510  0.22110  0.15500  1.0000 0.1102379477
H   H63       1.0  0.79510  0.27890  0.65500  1.0000 0.1102379477
H   H64       1.0  0.20490  0.77890  0.84500  1.0000 0.1102379477
C   C1        1.0  0.59130  0.68590  0.12335  1.0000 0.2080116455
C   C2        1.0  0.40870  0.18590  0.37665  1.0000 0.2080116455
C   C3        1.0  0.40870  0.31410  0.87665  1.0000 0.2080116455
C   C4        1.0  0.59130  0.81410  0.62335  1.0000 0.2080116455
C   C5        1.0  0.71450  0.75580  0.11542  1.0000 -0.2401671171
C   C6        1.0  0.28550  0.25580  0.38458  1.0000 -0.2401671171
C   C7        1.0  0.28550  0.24420  0.88458  1.0000 -0.2401671171
C   C8        1.0  0.71450  0.74420  0.61542  1.0000 -0.2401671171
C   C9        1.0  0.81920  0.76130  0.14323  1.0000 0.2080116455
C   C10       1.0  0.18080  0.26130  0.35677  1.0000 0.2080116455
C   C11       1.0  0.18080  0.23870  0.85677  1.0000 0.2080116455
C   C12       1.0  0.81920  0.73870  0.64323  1.0000 0.2080116455
C   C13       1.0  0.80550  0.69820  0.17769  1.0000 -0.2608089214
C   C14       1.0  0.19450  0.19820  0.32231  1.0000 -0.2608089214
C   C15       1.0  0.19450  0.30180  0.82231  1.0000 -0.2608089214
C   C16       1.0  0.80550  0.80180  0.67769  1.0000 -0.2608089214
C   C17       1.0  0.68130  0.63070  0.18422  1.0000 0.2080116455
C   C18       1.0  0.31870  0.13070  0.31578  1.0000 0.2080116455
C   C19       1.0  0.31870  0.36930  0.81578  1.0000 0.2080116455
C   C20       1.0  0.68130  0.86930  0.68422  1.0000 0.2080116455
C   C21       1.0  0.57270  0.62530  0.15719  1.0000 -0.2401671171
C   C22       1.0  0.42730  0.12530  0.34281  1.0000 -0.2401671171
C   C23       1.0  0.42730  0.37470  0.84281  1.0000 -0.2401671171
C   C24       1.0  0.57270  0.87470  0.65719  1.0000 -0.2401671171
C   C25       1.0  0.45860  0.81200  0.06832  1.0000 -0.0872262831
C   C26       1.0  0.54140  0.31200  0.43168  1.0000 -0.0872262831
C   C27       1.0  0.54140  0.18800  0.93168  1.0000 -0.0872262831
C   C28       1.0  0.45860  0.68800  0.56832  1.0000 -0.0872262831
C   C29       1.0  0.34770  0.75910  0.04644  1.0000 -0.0193063269
C   C30       1.0  0.65230  0.25910  0.45356  1.0000 -0.0193063269
C   C31       1.0  0.65230  0.24090  0.95356  1.0000 -0.0193063269
C   C32       1.0  0.34770  0.74090  0.54644  1.0000 -0.0193063269
C   C33       1.0  0.38510  0.56180  0.08829  1.0000 0.1102379477
C   C34       1.0  0.61490  0.06180  0.41171  1.0000 0.1102379477
C   C35       1.0  0.61490  0.43820  0.91171  1.0000 0.1102379477
C   C36       1.0  0.38510  0.93820  0.58829  1.0000 0.1102379477
C   C37       1.0  0.58490  0.44160  0.23099  1.0000 -0.0738600067
C   C38       1.0  0.41510  0.94160  0.26901  1.0000 -0.0738600067
C   C39       1.0  0.41510  0.55840  0.76901  1.0000 -0.0738600067
C   C40       1.0  0.58490  0.05840  0.73099  1.0000 -0.0738600067
C   C41       1.0  0.59640  0.44600  0.26766  1.0000 -0.0193063269
C   C42       1.0  0.40360  0.94600  0.23234  1.0000 -0.0193063269
C   C43       1.0  0.40360  0.55400  0.73234  1.0000 -0.0193063269
C   C44       1.0  0.59640  0.05400  0.76766  1.0000 -0.0193063269
C   C45       1.0  0.71700  0.65410  0.25133  1.0000 0.1007101719
C   C46       1.0  0.28300  0.15410  0.24867  1.0000 0.1007101719
C   C47       1.0  0.28300  0.34590  0.74867  1.0000 0.1007101719
C   C48       1.0  0.71700  0.84590  0.75133  1.0000 0.1007101719
C   C49       1.0  0.00210  0.84280  0.10380  1.0000 -0.0738600067
C   C50       1.0  0.99790  0.34280  0.39620  1.0000 -0.0738600067
C   C51       1.0  0.99790  0.15720  0.89620  1.0000 -0.0738600067
C   C52       1.0  0.00210  0.65720  0.60380  1.0000 -0.0738600067
C   C53       1.0  0.11460  0.94130  0.10956  1.0000 -0.0193063269
C   C54       1.0  0.88540  0.44130  0.39044  1.0000 -0.0193063269
C   C55       1.0  0.88540  0.05870  0.89044  1.0000 -0.0193063269
C   C56       1.0  0.11460  0.55870  0.60956  1.0000 -0.0193063269
C   C57       1.0  0.02620  0.93450  0.16020  1.0000 0.0942852382
C   C58       1.0  0.97380  0.43450  0.33980  1.0000 0.0942852382
C   C59       1.0  0.97380  0.06550  0.83980  1.0000 0.0942852382
C   C60       1.0  0.02620  0.56550  0.66020  1.0000 0.0942852382
C   C61       1.0  0.37120  0.71180  0.38175  1.0000 -0.0316450979
C   C62       1.0  0.62880  0.21180  0.11825  1.0000 -0.0316450979
C   C63       1.0  0.62880  0.28820  0.61825  1.0000 -0.0316450979
C   C64       1.0  0.37120  0.78820  0.88175  1.0000 -0.0316450979
C   C65       1.0  0.41400  0.73790  0.41884  1.0000 -0.1184408221
C   C66       1.0  0.58600  0.23790  0.08116  1.0000 -0.1184408221
C   C67       1.0  0.58600  0.26210  0.58116  1.0000 -0.1184408221
C   C68       1.0  0.41400  0.76210  0.91884  1.0000 -0.1184408221
C   C69       1.0  0.32480  0.78700  0.44245  1.0000 -0.0993928316
C   C70       1.0  0.67520  0.28700  0.05755  1.0000 -0.0993928316
C   C71       1.0  0.67520  0.21300  0.55755  1.0000 -0.0993928316
C   C72       1.0  0.32480  0.71300  0.94245  1.0000 -0.0993928316
C   C73       1.0  0.18930  0.81250  0.43006  1.0000 -0.0316450979
C   C74       1.0  0.81070  0.31250  0.06994  1.0000 -0.0316450979
C   C75       1.0  0.81070  0.18750  0.56994  1.0000 -0.0316450979
C   C76       1.0  0.18930  0.68750  0.93006  1.0000 -0.0316450979
C   C77       1.0  0.14670  0.79220  0.39325  1.0000 -0.0993928316
C   C78       1.0  0.85330  0.29220  0.10675  1.0000 -0.0993928316
C   C79       1.0  0.85330  0.20780  0.60675  1.0000 -0.0993928316
C   C80       1.0  0.14670  0.70780  0.89325  1.0000 -0.0993928316
C   C81       1.0  0.23560  0.73900  0.36946  1.0000 -0.1184408221
C   C82       1.0  0.76440  0.23900  0.13054  1.0000 -0.1184408221
C   C83       1.0  0.76440  0.26100  0.63054  1.0000 -0.1184408221
C   C84       1.0  0.23560  0.76100  0.86946  1.0000 -0.1184408221
C   C85       1.0  0.46980  0.65940  0.35575  1.0000 0.5374568735
C   C86       1.0  0.53020  0.15940  0.14425  1.0000 0.5374568735
C   C87       1.0  0.53020  0.34060  0.64425  1.0000 0.5374568735
C   C88       1.0  0.46980  0.84060  0.85575  1.0000 0.5374568735
C   C89       1.0  0.09070  0.86950  0.45538  1.0000 0.5779031549
C   C90       1.0  0.90930  0.36950  0.04462  1.0000 0.5779031549
C   C91       1.0  0.90930  0.13050  0.54462  1.0000 0.5779031549
C   C92       1.0  0.09070  0.63050  0.95538  1.0000 0.5779031549
I   I1        1.0  0.25890  0.19335  0.99723  1.0000 -0.4705370481
I   I2        1.0  0.74110  0.69335  0.50277  1.0000 -0.4705370481
I   I3        1.0  0.74110  0.80665  0.00277  1.0000 -0.4705370481
I   I4        1.0  0.25890  0.30665  0.49723  1.0000 -0.4705370481
I   I5        1.0  0.81627  0.97949  0.32507  1.0000 -0.5181925263
I   I6        1.0  0.18373  0.47949  0.17493  1.0000 -0.5181925263
I   I7        1.0  0.18373  0.02051  0.67493  1.0000 -0.5181925263
I   I8        1.0  0.81627  0.52051  0.82507  1.0000 -0.5181925263
N   N1        1.0  0.30180  0.60340  0.05848  1.0000 -0.2705936696
N   N2        1.0  0.69820  0.10340  0.44152  1.0000 -0.2705936696
N   N3        1.0  0.69820  0.39660  0.94152  1.0000 -0.2705936696
N   N4        1.0  0.30180  0.89660  0.55848  1.0000 -0.2705936696
N   N5        1.0  0.48050  0.68640  0.09493  1.0000 0.0079285069
N   N6        1.0  0.51950  0.18640  0.40507  1.0000 0.0079285069
N   N7        1.0  0.51950  0.31360  0.90507  1.0000 0.0079285069
N   N8        1.0  0.48050  0.81360  0.59493  1.0000 0.0079285069
N   N9        1.0  0.67980  0.58030  0.28020  1.0000 -0.2608089214
N   N10       1.0  0.32020  0.08030  0.21980  1.0000 -0.2608089214
N   N11       1.0  0.32020  0.41970  0.71980  1.0000 -0.2608089214
N   N12       1.0  0.67980  0.91970  0.78020  1.0000 -0.2608089214
N   N13       1.0  0.66340  0.57510  0.22091  1.0000 0.0079285069
N   N14       1.0  0.33660  0.07510  0.27909  1.0000 0.0079285069
N   N15       1.0  0.33660  0.42490  0.77909  1.0000 0.0079285069
N   N16       1.0  0.66340  0.92490  0.72091  1.0000 0.0079285069
N   N17       1.0  0.13170  0.99900  0.14522  1.0000 -0.2608089214
N   N18       1.0  0.86830  0.49900  0.35478  1.0000 -0.2608089214
N   N19       1.0  0.86830  0.00100  0.85478  1.0000 -0.2608089214
N   N20       1.0  0.13170  0.50100  0.64522  1.0000 -0.2608089214
N   N21       1.0  0.94640  0.84040  0.13643  1.0000 0.0079285069
N   N22       1.0  0.05360  0.34040  0.36357  1.0000 0.0079285069
N   N23       1.0  0.05360  0.15960  0.86357  1.0000 0.0079285069
N   N24       1.0  0.94640  0.65960  0.63643  1.0000 0.0079285069
O   O1        1.0  0.59630  0.67740  0.36720  1.0000 -0.5352767672
O   O2        1.0  0.40370  0.17740  0.13280  1.0000 -0.5352767672
O   O3        1.0  0.40370  0.32260  0.63280  1.0000 -0.5352767672
O   O4        1.0  0.59630  0.82260  0.86720  1.0000 -0.5352767672
O   O5        1.0  0.42910  0.61120  0.32505  1.0000 -0.5333075415
O   O6        1.0  0.57090  0.11120  0.17495  1.0000 -0.5333075415
O   O7        1.0  0.57090  0.38880  0.67495  1.0000 -0.5333075415
O   O8        1.0  0.42910  0.88880  0.82505  1.0000 -0.5333075415
O   O9        1.0  0.12430  0.86400  0.48908  1.0000 -0.5333075415
O   O10       1.0  0.87570  0.36400  0.01092  1.0000 -0.5333075415
O   O11       1.0  0.87570  0.13600  0.51092  1.0000 -0.5333075415
O   O12       1.0  0.12430  0.63600  0.98908  1.0000 -0.5333075415
O   O13       1.0  0.97370  0.91730  0.44156  1.0000 -0.5101722146
O   O14       1.0  0.02630  0.41730  0.05844  1.0000 -0.5101722146
O   O15       1.0  0.02630  0.08270  0.55844  1.0000 -0.5101722146
O   O16       1.0  0.97370  0.58270  0.94156  1.0000 -0.5101722146
