# DDEC6 charges by PACMAN v1.1 (https://github.com/mtap-research/PACMAN-charge/)
data_2010[Sm][rtl]3[FSR]1
_chemical_formula_sum              "Sm4 P4 H60 C28 N4 O28"
_cell_length_a       5.5462
_cell_length_b       13.343
_cell_length_c       21.164
_cell_angle_alpha    90
_cell_angle_beta     96.516
_cell_angle_gamma    90

_symmetry_space_group_name_H-M    "P 1"
_symmetry_Int_Tables_number       1

loop_
  _symmetry_equiv_pos_as_xyz
  'x, y, z'

loop_
  _atom_site_type_symbol
  _atom_site_label
  _atom_site_symmetry_multiplicity
  _atom_site_fract_x
  _atom_site_fract_y
  _atom_site_fract_z
  _atom_site_occupancy
  _atom_site_charge
Sm  Sm1       1.0  0.62667  0.13256  0.97225  1.0000 2.1088107789
Sm  Sm2       1.0  0.37333  0.63256  0.52775  1.0000 2.1088107789
Sm  Sm3       1.0  0.37333  0.86744  0.02775  1.0000 2.1088107789
Sm  Sm4       1.0  0.62667  0.36744  0.47225  1.0000 2.1088107789
P   P1        1.0  0.91590  0.02330  0.08711  1.0000 1.3383946384
P   P2        1.0  0.08410  0.52330  0.41289  1.0000 1.3383946384
P   P3        1.0  0.08410  0.97670  0.91289  1.0000 1.3383946384
P   P4        1.0  0.91590  0.47670  0.58711  1.0000 1.3383946384
H   H1        1.0  0.37130  0.24730  0.05610  1.0000 0.3586304748
H   H2        1.0  0.62870  0.74730  0.44390  1.0000 0.3586304748
H   H3        1.0  0.62870  0.75270  0.94390  1.0000 0.3586304748
H   H4        1.0  0.37130  0.25270  0.55610  1.0000 0.3586304748
H   H5        1.0  0.52750  0.18950  0.09630  1.0000 0.3262289876
H   H6        1.0  0.47250  0.68950  0.40370  1.0000 0.3262289876
H   H7        1.0  0.47250  0.81050  0.90370  1.0000 0.3262289876
H   H8        1.0  0.52750  0.31050  0.59630  1.0000 0.3262289876
H   H9        1.0  0.79700  0.32380  0.93600  1.0000 0.3220267782
H   H10       1.0  0.20300  0.82380  0.56400  1.0000 0.3220267782
H   H11       1.0  0.20300  0.67620  0.06400  1.0000 0.3220267782
H   H12       1.0  0.79700  0.17620  0.43600  1.0000 0.3220267782
H   H13       1.0  0.00600  0.27440  0.95960  1.0000 0.3539400065
H   H14       1.0  0.99400  0.77440  0.54040  1.0000 0.3539400065
H   H15       1.0  0.99400  0.72560  0.04040  1.0000 0.3539400065
H   H16       1.0  0.00600  0.22560  0.45960  1.0000 0.3539400065
H   H17       1.0  0.77180  0.97210  0.18030  1.0000 0.1517593527
H   H18       1.0  0.22820  0.47210  0.31970  1.0000 0.1517593527
H   H19       1.0  0.22820  0.02790  0.81970  1.0000 0.1517593527
H   H20       1.0  0.77180  0.52790  0.68030  1.0000 0.1517593527
H   H21       1.0  0.67770  0.08000  0.16260  1.0000 0.1281510854
H   H22       1.0  0.32230  0.58000  0.33740  1.0000 0.1281510854
H   H23       1.0  0.32230  0.92000  0.83740  1.0000 0.1281510854
H   H24       1.0  0.67770  0.42000  0.66260  1.0000 0.1281510854
H   H25       1.0  0.76460  0.09300  0.28020  1.0000 0.1002715456
H   H26       1.0  0.23540  0.59300  0.21980  1.0000 0.1002715456
H   H27       1.0  0.23540  0.90700  0.71980  1.0000 0.1002715456
H   H28       1.0  0.76460  0.40700  0.78020  1.0000 0.1002715456
H   H29       1.0  0.90650  0.99130  0.28550  1.0000 0.1090706983
H   H30       1.0  0.09350  0.49130  0.21450  1.0000 0.1090706983
H   H31       1.0  0.09350  0.00870  0.71450  1.0000 0.1090706983
H   H32       1.0  0.90650  0.50870  0.78550  1.0000 0.1090706983
H   H33       1.0  0.02800  0.09320  0.36980  1.0000 0.1090706983
H   H34       1.0  0.97200  0.59320  0.13020  1.0000 0.1090706983
H   H35       1.0  0.97200  0.90680  0.63020  1.0000 0.1090706983
H   H36       1.0  0.02800  0.40680  0.86980  1.0000 0.1090706983
H   H37       1.0  0.24470  0.06810  0.33110  1.0000 0.120280225
H   H38       1.0  0.75530  0.56810  0.16890  1.0000 0.120280225
H   H39       1.0  0.75530  0.93190  0.66890  1.0000 0.120280225
H   H40       1.0  0.24470  0.43190  0.83110  1.0000 0.120280225
H   H41       1.0  0.98880  0.25120  0.32570  1.0000 0.120280225
H   H42       1.0  0.01120  0.75120  0.17430  1.0000 0.120280225
H   H43       1.0  0.01120  0.74880  0.67430  1.0000 0.120280225
H   H44       1.0  0.98880  0.24880  0.82570  1.0000 0.120280225
H   H45       1.0  0.21000  0.30780  0.24790  1.0000 0.1090706983
H   H46       1.0  0.79000  0.80780  0.25210  1.0000 0.1090706983
H   H47       1.0  0.79000  0.69220  0.75210  1.0000 0.1090706983
H   H48       1.0  0.21000  0.19220  0.74790  1.0000 0.1090706983
H   H49       1.0  0.37160  0.21110  0.25240  1.0000 0.1090706983
H   H50       1.0  0.62840  0.71110  0.24760  1.0000 0.1090706983
H   H51       1.0  0.62840  0.78890  0.74760  1.0000 0.1090706983
H   H52       1.0  0.37160  0.28890  0.75240  1.0000 0.1090706983
H   H53       1.0  0.09030  0.19400  0.16260  1.0000 0.1090706983
H   H54       1.0  0.90970  0.69400  0.33740  1.0000 0.1090706983
H   H55       1.0  0.90970  0.80600  0.83740  1.0000 0.1090706983
H   H56       1.0  0.09030  0.30600  0.66260  1.0000 0.1090706983
H   H57       1.0  0.87420  0.21890  0.20170  1.0000 0.0923753196
H   H58       1.0  0.12580  0.71890  0.29830  1.0000 0.0923753196
H   H59       1.0  0.12580  0.78110  0.79830  1.0000 0.0923753196
H   H60       1.0  0.87420  0.28110  0.70170  1.0000 0.0923753196
C   C1        1.0  0.82000  0.03740  0.16610  1.0000 -0.4309785401
C   C2        1.0  0.18000  0.53740  0.33390  1.0000 -0.4309785401
C   C3        1.0  0.18000  0.96260  0.83390  1.0000 -0.4309785401
C   C4        1.0  0.82000  0.46260  0.66610  1.0000 -0.4309785401
C   C5        1.0  0.92300  0.06270  0.27850  1.0000 -0.1013555329
C   C6        1.0  0.07700  0.56270  0.22150  1.0000 -0.1013555329
C   C7        1.0  0.07700  0.93730  0.72150  1.0000 -0.1013555329
C   C8        1.0  0.92300  0.43730  0.77850  1.0000 -0.1013555329
C   C9        1.0  0.09200  0.10430  0.32960  1.0000 -0.2105468249
C   C10       1.0  0.90800  0.60430  0.17040  1.0000 -0.2105468249
C   C11       1.0  0.90800  0.89570  0.67040  1.0000 -0.2105468249
C   C12       1.0  0.09200  0.39570  0.82960  1.0000 -0.2105468249
C   C13       1.0  0.14300  0.21680  0.32280  1.0000 -0.1094501277
C   C14       1.0  0.85700  0.71680  0.17720  1.0000 -0.1094501277
C   C15       1.0  0.85700  0.78320  0.67720  1.0000 -0.1094501277
C   C16       1.0  0.14300  0.28320  0.82280  1.0000 -0.1094501277
C   C17       1.0  0.20900  0.23610  0.25550  1.0000 -0.2105468249
C   C18       1.0  0.79100  0.73610  0.24450  1.0000 -0.2105468249
C   C19       1.0  0.79100  0.76390  0.74450  1.0000 -0.2105468249
C   C20       1.0  0.20900  0.26390  0.75550  1.0000 -0.2105468249
C   C21       1.0  0.03000  0.18550  0.20360  1.0000 -0.1013555329
C   C22       1.0  0.97000  0.68550  0.29640  1.0000 -0.1013555329
C   C23       1.0  0.97000  0.81450  0.79640  1.0000 -0.1013555329
C   C24       1.0  0.03000  0.31450  0.70360  1.0000 -0.1013555329
C   C25       1.0  0.32300  0.26180  0.37380  1.0000 0.5619115794
C   C26       1.0  0.67700  0.76180  0.12620  1.0000 0.5619115794
C   C27       1.0  0.67700  0.73820  0.62620  1.0000 0.5619115794
C   C28       1.0  0.32300  0.23820  0.87380  1.0000 0.5619115794
N   N1        1.0  0.99600  0.07860  0.21480  1.0000 -0.0342058233
N   N2        1.0  0.00400  0.57860  0.28520  1.0000 -0.0342058233
N   N3        1.0  0.00400  0.92140  0.78520  1.0000 -0.0351944899
N   N4        1.0  0.99600  0.42140  0.71480  1.0000 -0.0342058233
O   O1        1.0  0.68650  0.98290  0.04490  1.0000 -0.9774574673
O   O2        1.0  0.31350  0.48290  0.45510  1.0000 -0.9774574673
O   O3        1.0  0.31350  0.01710  0.95510  1.0000 -0.9774574673
O   O4        1.0  0.68650  0.51710  0.54490  1.0000 -0.9774574673
O   O5        1.0  0.96260  0.12390  0.05810  1.0000 -0.855039004
O   O6        1.0  0.03740  0.62390  0.44190  1.0000 -0.855039004
O   O7        1.0  0.03740  0.87610  0.94190  1.0000 -0.855039004
O   O8        1.0  0.96260  0.37610  0.55810  1.0000 -0.855039004
O   O9        1.0  0.12820  0.95390  0.08980  1.0000 -0.8517413174
O   O10       1.0  0.87180  0.45390  0.41020  1.0000 -0.8517413174
O   O11       1.0  0.87180  0.04610  0.91020  1.0000 -0.8517413174
O   O12       1.0  0.12820  0.54610  0.58980  1.0000 -0.8517413174
O   O13       1.0  0.29600  0.24350  0.43100  1.0000 -0.6348703539
O   O14       1.0  0.70400  0.74350  0.06900  1.0000 -0.6348703539
O   O15       1.0  0.70400  0.75650  0.56900  1.0000 -0.6348703539
O   O16       1.0  0.29600  0.25650  0.93100  1.0000 -0.6348703539
O   O17       1.0  0.49800  0.31450  0.36030  1.0000 -0.6105992829
O   O18       1.0  0.50200  0.81450  0.13970  1.0000 -0.6105992829
O   O19       1.0  0.50200  0.68550  0.63970  1.0000 -0.6105992829
O   O20       1.0  0.49800  0.18550  0.86030  1.0000 -0.6105992829
O   O21       1.0  0.42800  0.18910  0.06300  1.0000 -0.7357189094
O   O22       1.0  0.57200  0.68910  0.43700  1.0000 -0.7357189094
O   O23       1.0  0.57200  0.81090  0.93700  1.0000 -0.7357189094
O   O24       1.0  0.42800  0.31090  0.56300  1.0000 -0.7357189094
O   O25       1.0  0.86200  0.28810  0.96630  1.0000 -0.7643017804
O   O26       1.0  0.13800  0.78810  0.53370  1.0000 -0.7643017804
O   O27       1.0  0.13800  0.71190  0.03370  1.0000 -0.7643017804
O   O28       1.0  0.86200  0.21190  0.46630  1.0000 -0.7643017804
