# DDEC6 charges by PACMAN v1.1 (https://github.com/mtap-research/PACMAN-charge/)
data_2010[Co][nan]3[FSR]5
_chemical_formula_sum              "Co4 H56 C68 O24"
_cell_length_a       14.1361
_cell_length_b       14.1361
_cell_length_c       10.5305
_cell_angle_alpha    82.6052
_cell_angle_beta     97.3948
_cell_angle_gamma    58.6281

_symmetry_space_group_name_H-M    "P 1"
_symmetry_Int_Tables_number       1

loop_
  _symmetry_equiv_pos_as_xyz
  'x, y, z'

loop_
  _atom_site_type_symbol
  _atom_site_label
  _atom_site_symmetry_multiplicity
  _atom_site_fract_x
  _atom_site_fract_y
  _atom_site_fract_z
  _atom_site_occupancy
  _atom_site_charge
Co  Co1       1.0  0.58283  0.58283  0.25000  1.0000 0.9453625376
Co  Co2       1.0  0.41717  0.41717  0.75000  1.0000 0.9453625376
Co  Co3       1.0  0.50000  0.50000  0.50000  1.0000 1.0239596064
Co  Co4       1.0  0.50000  0.50000  0.00000  1.0000 1.0239596064
H   H1        1.0  0.15990  0.70010  0.26520  1.0000 0.1140416781
H   H2        1.0  0.70010  0.15990  0.23480  1.0000 0.1140416781
H   H3        1.0  0.84010  0.29990  0.73480  1.0000 0.1140416781
H   H4        1.0  0.29990  0.84010  0.76520  1.0000 0.1140416781
H   H5        1.0  0.97040  0.82340  0.15090  1.0000 0.1203962425
H   H6        1.0  0.82340  0.97040  0.34910  1.0000 0.1203962425
H   H7        1.0  0.02960  0.17660  0.84910  1.0000 0.1203962425
H   H8        1.0  0.17660  0.02960  0.65090  1.0000 0.1203962425
H   H9        1.0  0.51280  0.73420  0.70190  1.0000 0.1203962425
H   H10       1.0  0.73420  0.51280  0.79810  1.0000 0.1203962425
H   H11       1.0  0.48720  0.26580  0.29810  1.0000 0.1203962425
H   H12       1.0  0.26580  0.48720  0.20190  1.0000 0.1203962425
H   H13       1.0  0.63670  0.81930  0.42010  1.0000 0.1203962425
H   H14       1.0  0.81930  0.63670  0.07990  1.0000 0.1203962425
H   H15       1.0  0.36330  0.18070  0.57990  1.0000 0.1203962425
H   H16       1.0  0.18070  0.36330  0.92010  1.0000 0.1203962425
H   H17       1.0  0.07580  0.88280  0.83180  1.0000 0.1398654501
H   H18       1.0  0.88280  0.07580  0.66820  1.0000 0.1398654501
H   H19       1.0  0.92420  0.11720  0.16820  1.0000 0.1398654501
H   H20       1.0  0.11720  0.92420  0.33180  1.0000 0.1398654501
H   H21       1.0  0.26370  0.75690  0.94440  1.0000 0.1203962425
H   H22       1.0  0.75690  0.26370  0.55560  1.0000 0.1203962425
H   H23       1.0  0.73630  0.24310  0.05560  1.0000 0.1203962425
H   H24       1.0  0.24310  0.73630  0.44440  1.0000 0.1203962425
H   H25       1.0  0.54210  0.84370  0.82440  1.0000 0.1474882359
H   H26       1.0  0.84370  0.54210  0.67560  1.0000 0.1474882359
H   H27       1.0  0.45790  0.15630  0.17560  1.0000 0.1474882359
H   H28       1.0  0.15630  0.45790  0.32440  1.0000 0.1474882359
H   H29       1.0  0.67000  0.92800  0.54220  1.0000 0.1268861028
H   H30       1.0  0.92800  0.67000  0.95780  1.0000 0.1268861028
H   H31       1.0  0.33000  0.07200  0.45780  1.0000 0.1268861028
H   H32       1.0  0.07200  0.33000  0.04220  1.0000 0.1268861028
H   H33       1.0  0.63310  0.09430  0.88840  1.0000 0.1268861028
H   H34       1.0  0.09430  0.63310  0.61160  1.0000 0.1268861028
H   H35       1.0  0.36690  0.90570  0.11160  1.0000 0.1268861028
H   H36       1.0  0.90570  0.36690  0.38840  1.0000 0.1268861028
H   H37       1.0  0.70970  0.12290  0.81890  1.0000 0.1203962425
H   H38       1.0  0.12290  0.70970  0.68110  1.0000 0.1203962425
H   H39       1.0  0.29030  0.87710  0.18110  1.0000 0.1203962425
H   H40       1.0  0.87710  0.29030  0.31890  1.0000 0.1203962425
H   H41       1.0  0.79890  0.90710  0.98510  1.0000 0.0999790984
H   H42       1.0  0.90710  0.79890  0.51490  1.0000 0.0999790984
H   H43       1.0  0.20110  0.09290  0.01490  1.0000 0.0999790984
H   H44       1.0  0.09290  0.20110  0.48510  1.0000 0.0999790984
H   H45       1.0  0.80720  0.00360  0.03460  1.0000 0.0999790984
H   H46       1.0  0.00360  0.80720  0.46540  1.0000 0.0999790984
H   H47       1.0  0.19280  0.99640  0.96540  1.0000 0.0999790984
H   H48       1.0  0.99640  0.19280  0.53460  1.0000 0.0999790984
H   H49       1.0  0.75000  0.96460  0.71370  1.0000 0.094282947
H   H50       1.0  0.96460  0.75000  0.78630  1.0000 0.094282947
H   H51       1.0  0.25000  0.03540  0.28630  1.0000 0.094282947
H   H52       1.0  0.03540  0.25000  0.21370  1.0000 0.094282947
H   H53       1.0  0.62780  0.07680  0.66050  1.0000 0.0999790984
H   H54       1.0  0.07680  0.62780  0.83950  1.0000 0.0999790984
H   H55       1.0  0.37220  0.92320  0.33950  1.0000 0.0999790984
H   H56       1.0  0.92320  0.37220  0.16050  1.0000 0.0999790984
C   C1        1.0  0.23104  0.71784  0.11850  1.0000 -0.0621642145
C   C2        1.0  0.71784  0.23104  0.38150  1.0000 -0.0621642145
C   C3        1.0  0.76896  0.28216  0.88150  1.0000 -0.0621642145
C   C4        1.0  0.28216  0.76896  0.61850  1.0000 -0.0621642145
C   C5        1.0  0.00590  0.86690  0.98020  1.0000 0.2492679352
C   C6        1.0  0.86690  0.00590  0.51980  1.0000 0.2492679352
C   C7        1.0  0.99410  0.13310  0.01980  1.0000 0.2492679352
C   C8        1.0  0.13310  0.99410  0.48020  1.0000 0.2492679352
C   C9        1.0  0.55849  0.68869  0.47410  1.0000 0.577008232
C   C10       1.0  0.68869  0.55849  0.02590  1.0000 0.577008232
C   C11       1.0  0.44151  0.31131  0.52590  1.0000 0.577008232
C   C12       1.0  0.31131  0.44151  0.97410  1.0000 0.577008232
C   C13       1.0  0.14304  0.73724  0.17800  1.0000 -0.0872614389
C   C14       1.0  0.73724  0.14304  0.32200  1.0000 -0.0872614389
C   C15       1.0  0.85696  0.26276  0.82200  1.0000 -0.0872614389
C   C16       1.0  0.26276  0.85696  0.67800  1.0000 -0.0872614389
C   C17       1.0  0.02908  0.81148  0.11020  1.0000 -0.2659037565
C   C18       1.0  0.81148  0.02908  0.38980  1.0000 -0.2659037565
C   C19       1.0  0.97092  0.18852  0.88980  1.0000 -0.2659037565
C   C20       1.0  0.18852  0.97092  0.61020  1.0000 -0.2659037565
C   C21       1.0  0.61203  0.89563  0.69560  1.0000 0.2573370928
C   C22       1.0  0.89563  0.61203  0.80440  1.0000 0.2573370928
C   C23       1.0  0.38797  0.10437  0.30440  1.0000 0.2573370928
C   C24       1.0  0.10437  0.38797  0.19560  1.0000 0.2573370928
C   C25       1.0  0.57213  0.76513  0.54810  1.0000 -0.0621642145
C   C26       1.0  0.76513  0.57213  0.95190  1.0000 -0.0621642145
C   C27       1.0  0.42787  0.23487  0.45190  1.0000 -0.0621642145
C   C28       1.0  0.23487  0.42787  0.04810  1.0000 -0.0621642145
C   C29       1.0  0.54429  0.77329  0.66990  1.0000 -0.0785589298
C   C30       1.0  0.77329  0.54429  0.83010  1.0000 -0.0785589298
C   C31       1.0  0.45571  0.22671  0.33010  1.0000 -0.0785589298
C   C32       1.0  0.22671  0.45571  0.16990  1.0000 -0.0785589298
C   C33       1.0  0.35119  0.64579  0.19310  1.0000 0.5942830736
C   C34       1.0  0.64579  0.35119  0.30690  1.0000 0.5942830736
C   C35       1.0  0.64881  0.35421  0.80690  1.0000 0.5942830736
C   C36       1.0  0.35421  0.64881  0.69310  1.0000 0.5942830736
C   C37       1.0  0.61860  0.82360  0.50190  1.0000 -0.0785589298
C   C38       1.0  0.82360  0.61860  0.99810  1.0000 -0.0785589298
C   C39       1.0  0.38140  0.17640  0.49810  1.0000 -0.0785589298
C   C40       1.0  0.17640  0.38140  0.00190  1.0000 -0.0872614389
C   C41       1.0  0.09268  0.84628  0.91920  1.0000 -0.2270603185
C   C42       1.0  0.84628  0.09268  0.58080  1.0000 -0.2270603185
C   C43       1.0  0.90732  0.15372  0.08080  1.0000 -0.2270603185
C   C44       1.0  0.15372  0.90732  0.41920  1.0000 -0.2270603185
C   C45       1.0  0.20538  0.77138  0.98690  1.0000 -0.0785589298
C   C46       1.0  0.77138  0.20538  0.51310  1.0000 -0.0785589298
C   C47       1.0  0.79462  0.22862  0.01310  1.0000 -0.0785589298
C   C48       1.0  0.22862  0.79462  0.48690  1.0000 -0.0785589298
C   C49       1.0  0.56233  0.83793  0.74380  1.0000 -0.2192455982
C   C50       1.0  0.83793  0.56233  0.75620  1.0000 -0.2192455982
C   C51       1.0  0.43767  0.16207  0.25620  1.0000 -0.2192455982
C   C52       1.0  0.16207  0.43767  0.24380  1.0000 -0.2192455982
C   C53       1.0  0.63874  0.88894  0.57490  1.0000 -0.248307955
C   C54       1.0  0.88894  0.63874  0.92510  1.0000 -0.248307955
C   C55       1.0  0.36126  0.11106  0.42510  1.0000 -0.248307955
C   C56       1.0  0.11106  0.36126  0.07490  1.0000 -0.248307955
C   C57       1.0  0.69974  0.06194  0.85120  1.0000 -0.2270603185
C   C58       1.0  0.06194  0.69974  0.64880  1.0000 -0.2270603185
C   C59       1.0  0.30026  0.93806  0.14880  1.0000 -0.2270603185
C   C60       1.0  0.93806  0.30026  0.35120  1.0000 -0.2270603185
C   C61       1.0  0.80291  0.97291  0.95840  1.0000 -0.015923467
C   C62       1.0  0.97291  0.80291  0.54160  1.0000 -0.015923467
C   C63       1.0  0.19709  0.02709  0.04160  1.0000 -0.015923467
C   C64       1.0  0.02709  0.19709  0.45840  1.0000 -0.015923467
C   C65       1.0  0.67887  0.01527  0.73680  1.0000 -0.0094050771
C   C66       1.0  0.01527  0.67887  0.76320  1.0000 -0.0094050771
C   C67       1.0  0.32113  0.98473  0.26320  1.0000 -0.0094050771
C   C68       1.0  0.98473  0.32113  0.23680  1.0000 -0.0094050771
O   O1        1.0  0.53233  0.62413  0.52730  1.0000 -0.5529416268
O   O2        1.0  0.62413  0.53233  0.97270  1.0000 -0.5529416268
O   O3        1.0  0.46767  0.37587  0.47270  1.0000 -0.5529416268
O   O4        1.0  0.37587  0.46767  0.02730  1.0000 -0.5529416268
O   O5        1.0  0.42912  0.62900  0.13010  1.0000 -0.612257809
O   O6        1.0  0.62900  0.42912  0.36990  1.0000 -0.612257809
O   O7        1.0  0.57088  0.37100  0.86990  1.0000 -0.612257809
O   O8        1.0  0.37100  0.57088  0.63010  1.0000 -0.612257809
O   O9        1.0  0.37363  0.60827  0.31440  1.0000 -0.5657555168
O   O10       1.0  0.60827  0.37363  0.18560  1.0000 -0.5657555168
O   O11       1.0  0.62637  0.39173  0.68560  1.0000 -0.5657555168
O   O12       1.0  0.39173  0.62637  0.81440  1.0000 -0.5657555168
O   O13       1.0  0.57657  0.69137  0.36010  1.0000 -0.5556210583
O   O14       1.0  0.69137  0.57657  0.13990  1.0000 -0.5529416268
O   O15       1.0  0.42343  0.30863  0.63990  1.0000 -0.5556210583
O   O16       1.0  0.30863  0.42343  0.86010  1.0000 -0.5556210583
O   O17       1.0  0.89905  0.94225  0.90450  1.0000 -0.18964392
O   O18       1.0  0.94225  0.89905  0.59550  1.0000 -0.18964392
O   O19       1.0  0.10095  0.05775  0.09550  1.0000 -0.18964392
O   O20       1.0  0.05775  0.10095  0.40450  1.0000 -0.18964392
O   O21       1.0  0.62912  0.95452  0.77900  1.0000 -0.1760275816
O   O22       1.0  0.95452  0.62912  0.72100  1.0000 -0.1760275816
O   O23       1.0  0.37088  0.04548  0.22100  1.0000 -0.1760275816
O   O24       1.0  0.04548  0.37088  0.27900  1.0000 -0.1760275816
