# DDEC6 charges by PACMAN v1.1 (https://github.com/mtap-research/PACMAN-charge/)
data_2010[Zn][nan]3[FSR]13
_chemical_formula_sum              "Zn4 H16 C48 N4 O12 F16"
_cell_length_a       6.3964
_cell_length_b       8.9842
_cell_length_c       26.376
_cell_angle_alpha    90
_cell_angle_beta     90
_cell_angle_gamma    90

_symmetry_space_group_name_H-M    "P 1"
_symmetry_Int_Tables_number       1

loop_
  _symmetry_equiv_pos_as_xyz
  'x, y, z'

loop_
  _atom_site_type_symbol
  _atom_site_label
  _atom_site_symmetry_multiplicity
  _atom_site_fract_x
  _atom_site_fract_y
  _atom_site_fract_z
  _atom_site_occupancy
  _atom_site_charge
Zn  Zn1       1.0  0.00000  0.00000  0.28656  1.0000 0.8858162203
Zn  Zn2       1.0  0.50000  0.00000  0.21344  1.0000 0.8858162203
Zn  Zn3       1.0  0.00000  0.00000  0.71344  1.0000 0.8858162203
Zn  Zn4       1.0  0.50000  0.00000  0.78656  1.0000 0.8858162203
H   H1        1.0  0.24990  0.12160  0.37440  1.0000 0.1246354748
H   H2        1.0  0.74990  0.87840  0.12560  1.0000 0.1246354748
H   H3        1.0  0.25010  0.12160  0.12560  1.0000 0.1246354748
H   H4        1.0  0.75010  0.87840  0.37440  1.0000 0.1246354748
H   H5        1.0  0.75010  0.87840  0.62560  1.0000 0.1246354748
H   H6        1.0  0.25010  0.12160  0.87440  1.0000 0.1246354748
H   H7        1.0  0.74990  0.87840  0.87440  1.0000 0.1246354748
H   H8        1.0  0.24990  0.12160  0.62560  1.0000 0.1246354748
H   H9        1.0  0.25480  0.12610  0.46060  1.0000 0.1355598439
H   H10       1.0  0.75480  0.87390  0.03940  1.0000 0.1355598439
H   H11       1.0  0.24520  0.12610  0.03940  1.0000 0.1355598439
H   H12       1.0  0.74520  0.87390  0.46060  1.0000 0.1355598439
H   H13       1.0  0.74520  0.87390  0.53940  1.0000 0.1355598439
H   H14       1.0  0.24520  0.12610  0.96060  1.0000 0.1355598439
H   H15       1.0  0.75480  0.87390  0.96060  1.0000 0.1355598439
H   H16       1.0  0.25480  0.12610  0.53940  1.0000 0.1355598439
C   C1        1.0  0.25000  0.25670  0.25000  1.0000 0.6287046709
C   C2        1.0  0.75000  0.74330  0.25000  1.0000 0.6287046709
C   C3        1.0  0.75000  0.74330  0.75000  1.0000 0.6287046709
C   C4        1.0  0.25000  0.25670  0.75000  1.0000 0.6287046709
C   C5        1.0  0.25000  0.42460  0.25000  1.0000 -0.2540940902
C   C6        1.0  0.75000  0.57540  0.25000  1.0000 -0.2540940902
C   C7        1.0  0.75000  0.57540  0.75000  1.0000 -0.2540940902
C   C8        1.0  0.25000  0.42460  0.75000  1.0000 -0.2540940902
C   C9        1.0  0.24540  0.50770  0.20573  1.0000 0.1707975157
C   C10       1.0  0.74540  0.49230  0.29427  1.0000 0.1707975157
C   C11       1.0  0.25460  0.50770  0.29427  1.0000 0.1707975157
C   C12       1.0  0.75460  0.49230  0.20573  1.0000 0.1707975157
C   C13       1.0  0.75460  0.49230  0.79427  1.0000 0.1707975157
C   C14       1.0  0.25460  0.50770  0.70573  1.0000 0.1707975157
C   C15       1.0  0.74540  0.49230  0.70573  1.0000 0.1707975157
C   C16       1.0  0.24540  0.50770  0.79427  1.0000 0.1707975157
C   C17       1.0  0.24160  0.66150  0.20565  1.0000 0.0585927452
C   C18       1.0  0.74160  0.33850  0.29435  1.0000 0.0585927452
C   C19       1.0  0.25840  0.66150  0.29435  1.0000 0.0585927452
C   C20       1.0  0.75840  0.33850  0.20565  1.0000 0.0585927452
C   C21       1.0  0.75840  0.33850  0.79435  1.0000 0.0585927452
C   C22       1.0  0.25840  0.66150  0.70565  1.0000 0.0585927452
C   C23       1.0  0.74160  0.33850  0.70565  1.0000 0.0585927452
C   C24       1.0  0.24160  0.66150  0.79435  1.0000 0.0585927452
C   C25       1.0  0.25000  0.74460  0.25000  1.0000 0.1500597932
C   C26       1.0  0.75000  0.25540  0.25000  1.0000 0.1500597932
C   C27       1.0  0.75000  0.25540  0.75000  1.0000 0.1500597932
C   C28       1.0  0.25000  0.74460  0.75000  1.0000 0.1500597932
C   C29       1.0  0.14550  0.07110  0.39191  1.0000 0.0964274529
C   C30       1.0  0.64550  0.92890  0.10809  1.0000 0.0964274529
C   C31       1.0  0.35450  0.07110  0.10809  1.0000 0.0964274529
C   C32       1.0  0.85450  0.92890  0.39191  1.0000 0.0964274529
C   C33       1.0  0.85450  0.92890  0.60809  1.0000 0.0964274529
C   C34       1.0  0.35450  0.07110  0.89191  1.0000 0.0964274529
C   C35       1.0  0.64550  0.92890  0.89191  1.0000 0.0964274529
C   C36       1.0  0.14550  0.07110  0.60809  1.0000 0.0964274529
C   C37       1.0  0.14990  0.07390  0.44389  1.0000 -0.1964080668
C   C38       1.0  0.64990  0.92610  0.05611  1.0000 -0.1964080668
C   C39       1.0  0.35010  0.07390  0.05611  1.0000 -0.1964080668
C   C40       1.0  0.85010  0.92610  0.44389  1.0000 -0.1964080668
C   C41       1.0  0.85010  0.92610  0.55611  1.0000 -0.1964080668
C   C42       1.0  0.35010  0.07390  0.94389  1.0000 -0.1964080668
C   C43       1.0  0.64990  0.92610  0.94389  1.0000 -0.1964080668
C   C44       1.0  0.14990  0.07390  0.55611  1.0000 -0.1964080668
C   C45       1.0  0.00000  0.00000  0.47140  1.0000 0.1091300772
C   C46       1.0  0.50000  0.00000  0.02860  1.0000 0.1091300772
C   C47       1.0  0.00000  0.00000  0.52860  1.0000 0.1091300772
C   C48       1.0  0.50000  0.00000  0.97140  1.0000 0.1091300772
N   N1        1.0  0.00000  0.00000  0.36525  1.0000 -0.2118666357
N   N2        1.0  0.50000  0.00000  0.13475  1.0000 -0.2118666357
N   N3        1.0  0.00000  0.00000  0.63475  1.0000 -0.2118666357
N   N4        1.0  0.50000  0.00000  0.86525  1.0000 -0.2118666357
O   O1        1.0  0.16380  0.19390  0.28689  1.0000 -0.545570258
O   O2        1.0  0.66380  0.80610  0.21311  1.0000 -0.545570258
O   O3        1.0  0.33620  0.19390  0.21311  1.0000 -0.545570258
O   O4        1.0  0.83620  0.80610  0.28689  1.0000 -0.545570258
O   O5        1.0  0.83620  0.80610  0.71311  1.0000 -0.545570258
O   O6        1.0  0.33620  0.19390  0.78689  1.0000 -0.545570258
O   O7        1.0  0.66380  0.80610  0.78689  1.0000 -0.545570258
O   O8        1.0  0.16380  0.19390  0.71311  1.0000 -0.545570258
O   O9        1.0  0.25000  0.89390  0.25000  1.0000 -0.541180279
O   O10       1.0  0.75000  0.10610  0.25000  1.0000 -0.541180279
O   O11       1.0  0.75000  0.10610  0.75000  1.0000 -0.541180279
O   O12       1.0  0.25000  0.89390  0.75000  1.0000 -0.541180279
F   F1        1.0  0.23620  0.43950  0.16001  1.0000 -0.113659793
F   F2        1.0  0.73620  0.56050  0.33999  1.0000 -0.113659793
F   F3        1.0  0.26380  0.43950  0.33999  1.0000 -0.113659793
F   F4        1.0  0.76380  0.56050  0.16001  1.0000 -0.113659793
F   F5        1.0  0.76380  0.56050  0.83999  1.0000 -0.113659793
F   F6        1.0  0.26380  0.43950  0.66001  1.0000 -0.113659793
F   F7        1.0  0.73620  0.56050  0.66001  1.0000 -0.113659793
F   F8        1.0  0.23620  0.43950  0.83999  1.0000 -0.113659793
F   F9        1.0  0.22940  0.73370  0.16083  1.0000 -0.113659793
F   F10       1.0  0.72940  0.26630  0.33917  1.0000 -0.113659793
F   F11       1.0  0.27060  0.73370  0.33917  1.0000 -0.113659793
F   F12       1.0  0.77060  0.26630  0.16083  1.0000 -0.113659793
F   F13       1.0  0.77060  0.26630  0.83917  1.0000 -0.113659793
F   F14       1.0  0.27060  0.73370  0.66083  1.0000 -0.113659793
F   F15       1.0  0.72940  0.26630  0.66083  1.0000 -0.113659793
F   F16       1.0  0.22940  0.73370  0.83917  1.0000 -0.113659793
