# DDEC6 charges by PACMAN v1.1 (https://github.com/mtap-research/PACMAN-charge/)
data_2010[Fe][bpq]3[FSR]2
_chemical_formula_sum              "Fe2 H8 C16 O10"
_cell_length_a       10.5844
_cell_length_b       10.5844
_cell_length_c       6.8306
_cell_angle_alpha    77.0247
_cell_angle_beta     102.975
_cell_angle_gamma    137.672

_symmetry_space_group_name_H-M    "P 1"
_symmetry_Int_Tables_number       1

loop_
  _symmetry_equiv_pos_as_xyz
  'x, y, z'

loop_
  _atom_site_type_symbol
  _atom_site_label
  _atom_site_symmetry_multiplicity
  _atom_site_fract_x
  _atom_site_fract_y
  _atom_site_fract_z
  _atom_site_occupancy
  _atom_site_charge
Fe  Fe1       1.0  0.00000  0.00000  0.50000  1.0000 1.3143745414
Fe  Fe2       1.0  0.00000  0.00000  0.00000  1.0000 1.3165447466
H   H1        1.0  0.56230  0.89710  0.30500  1.0000 0.1364758364
H   H2        1.0  0.89710  0.56230  0.19500  1.0000 0.1364758364
H   H3        1.0  0.43770  0.10290  0.69500  1.0000 0.1364758364
H   H4        1.0  0.10290  0.43770  0.80500  1.0000 0.1364758364
H   H5        1.0  0.61970  0.04970  0.83950  1.0000 0.1259077243
H   H6        1.0  0.04970  0.61970  0.66050  1.0000 0.1259077243
H   H7        1.0  0.38030  0.95030  0.16050  1.0000 0.1259077243
H   H8        1.0  0.95030  0.38030  0.33950  1.0000 0.1259077243
C   C1        1.0  0.60600  0.96900  0.58420  1.0000 -0.0351285455
C   C2        1.0  0.96900  0.60600  0.91580  1.0000 -0.0351285455
C   C3        1.0  0.39400  0.03100  0.41580  1.0000 -0.0351285455
C   C4        1.0  0.03100  0.39400  0.08420  1.0000 -0.0351285455
C   C5        1.0  0.53630  0.94010  0.38650  1.0000 -0.0966192842
C   C6        1.0  0.94010  0.53630  0.11350  1.0000 -0.0966192842
C   C7        1.0  0.46370  0.05990  0.61350  1.0000 -0.0966192842
C   C8        1.0  0.05990  0.46370  0.88650  1.0000 -0.0966192842
C   C9        1.0  0.56970  0.02890  0.69770  1.0000 -0.0966192842
C   C10       1.0  0.02890  0.56970  0.80230  1.0000 -0.0966192842
C   C11       1.0  0.43030  0.97110  0.30230  1.0000 -0.0966192842
C   C12       1.0  0.97110  0.43030  0.19770  1.0000 -0.0966192842
C   C13       1.0  0.71970  0.93590  0.67450  1.0000 0.590192651
C   C14       1.0  0.93590  0.71970  0.82550  1.0000 0.590192651
C   C15       1.0  0.28030  0.06410  0.32550  1.0000 0.590192651
C   C16       1.0  0.06410  0.28030  0.17450  1.0000 0.590192651
O   O1        1.0  0.88650  0.88650  0.25000  1.0000 -0.6291020759
O   O2        1.0  0.11350  0.11350  0.75000  1.0000 -0.6291020759
O   O3        1.0  0.75740  0.88480  0.56760  1.0000 -0.473097647
O   O4        1.0  0.88480  0.75740  0.93240  1.0000 -0.473097647
O   O5        1.0  0.24260  0.11520  0.43240  1.0000 -0.473097647
O   O6        1.0  0.11520  0.24260  0.06760  1.0000 -0.473097647
O   O7        1.0  0.78040  0.95820  0.85950  1.0000 -0.4942902349
O   O8        1.0  0.95820  0.78040  0.64050  1.0000 -0.4942902349
O   O9        1.0  0.21960  0.04180  0.14050  1.0000 -0.4942902349
O   O10       1.0  0.04180  0.21960  0.35950  1.0000 -0.4942902349
