# DDEC6 charges by PACMAN v1.1 (https://github.com/mtap-research/PACMAN-charge/)
data_2011[Co][nan]2[FSR]2
_chemical_formula_sum              "Co4 P4 H36 C32 N16 O16"
_cell_length_a       13.2922
_cell_length_b       13.2922
_cell_length_c       15.1925
_cell_angle_alpha    57.283
_cell_angle_beta     122.717
_cell_angle_gamma    147.745

_symmetry_space_group_name_H-M    "P 1"
_symmetry_Int_Tables_number       1

loop_
  _symmetry_equiv_pos_as_xyz
  'x, y, z'

loop_
  _atom_site_type_symbol
  _atom_site_label
  _atom_site_symmetry_multiplicity
  _atom_site_fract_x
  _atom_site_fract_y
  _atom_site_fract_z
  _atom_site_occupancy
  _atom_site_charge
Co  Co1       1.0  0.98548  0.48812  0.24621  1.0000 0.8878458092
Co  Co2       1.0  0.48812  0.98548  0.25379  1.0000 0.8878458092
Co  Co3       1.0  0.01452  0.51188  0.75379  1.0000 0.8878458092
Co  Co4       1.0  0.51188  0.01452  0.74621  1.0000 0.8878458092
P   P1        1.0  0.23660  0.74760  0.06563  1.0000 1.3141789088
P   P2        1.0  0.74760  0.23660  0.43437  1.0000 1.3141789088
P   P3        1.0  0.76340  0.25240  0.93437  1.0000 1.3141789088
P   P4        1.0  0.25240  0.76340  0.56563  1.0000 1.3141789088
H   H1        1.0  0.37970  0.17570  0.91770  1.0000 0.1194699058
H   H2        1.0  0.27910  0.27750  0.87790  1.0000 0.1194699058
H   H3        1.0  0.73870  0.73630  0.87990  1.0000 0.1194699058
H   H4        1.0  0.84090  0.63550  0.92070  1.0000 0.1194699058
H   H5        1.0  0.08390  0.73150  0.89170  1.0000 0.1652832875
H   H6        1.0  0.29740  0.94000  0.90090  1.0000 0.159391875
H   H7        1.0  0.33290  0.67490  0.11100  1.0000 0.3646613905
H   H8        1.0  0.67680  0.26700  0.10440  1.0000 0.3918996999
H   H9        1.0  0.63760  0.32460  0.12190  1.0000 0.3700442412
H   H10       1.0  0.17570  0.37970  0.58230  1.0000 0.1194699058
H   H11       1.0  0.27750  0.27910  0.62210  1.0000 0.1194699058
H   H12       1.0  0.73630  0.73870  0.62010  1.0000 0.1194699058
H   H13       1.0  0.63550  0.84090  0.57930  1.0000 0.1194699058
H   H14       1.0  0.73150  0.08390  0.60830  1.0000 0.1652832875
H   H15       1.0  0.94000  0.29740  0.59910  1.0000 0.159391875
H   H16       1.0  0.67490  0.33290  0.38900  1.0000 0.3646613905
H   H17       1.0  0.26700  0.67680  0.39560  1.0000 0.3918996999
H   H18       1.0  0.32460  0.63760  0.37810  1.0000 0.3700442412
H   H19       1.0  0.62030  0.82430  0.08230  1.0000 0.1194699058
H   H20       1.0  0.72090  0.72250  0.12210  1.0000 0.1194699058
H   H21       1.0  0.26130  0.26370  0.12010  1.0000 0.1194699058
H   H22       1.0  0.15910  0.36450  0.07930  1.0000 0.1194699058
H   H23       1.0  0.91610  0.26850  0.10830  1.0000 0.1652832875
H   H24       1.0  0.70260  0.06000  0.09910  1.0000 0.159391875
H   H25       1.0  0.66710  0.32510  0.88900  1.0000 0.3646613905
H   H26       1.0  0.32320  0.73300  0.89560  1.0000 0.3918996999
H   H27       1.0  0.36240  0.67540  0.87810  1.0000 0.3700442412
H   H28       1.0  0.82430  0.62030  0.41770  1.0000 0.1194699058
H   H29       1.0  0.72250  0.72090  0.37790  1.0000 0.1194699058
H   H30       1.0  0.26370  0.26130  0.37990  1.0000 0.1194699058
H   H31       1.0  0.36450  0.15910  0.42070  1.0000 0.1194699058
H   H32       1.0  0.26850  0.91610  0.39170  1.0000 0.1652832875
H   H33       1.0  0.06000  0.70260  0.40090  1.0000 0.159391875
H   H34       1.0  0.32510  0.66710  0.61100  1.0000 0.3646613905
H   H35       1.0  0.73300  0.32320  0.60440  1.0000 0.3918996999
H   H36       1.0  0.67540  0.36240  0.62190  1.0000 0.3700442412
C   C1        1.0  0.12010  0.89610  0.91830  1.0000 0.1862512143
C   C2        1.0  0.24970  0.08670  0.90850  1.0000 -0.1603905982
C   C3        1.0  0.18910  0.14770  0.88520  1.0000 -0.1170585485
C   C4        1.0  0.99690  0.01910  0.87250  1.0000 0.0298900703
C   C5        1.0  0.86820  0.82640  0.88650  1.0000 -0.1170585485
C   C6        1.0  0.92940  0.76580  0.91020  1.0000 -0.1603905982
C   C7        1.0  0.93062  0.08478  0.84210  1.0000 0.2647821853
C   C8        1.0  0.18370  0.83270  0.93220  1.0000 -0.5401040664
C   C9        1.0  0.89610  0.12010  0.58170  1.0000 0.1862512143
C   C10       1.0  0.08670  0.24970  0.59150  1.0000 -0.1603905982
C   C11       1.0  0.14770  0.18910  0.61480  1.0000 -0.1170585485
C   C12       1.0  0.01910  0.99690  0.62750  1.0000 0.0298900703
C   C13       1.0  0.82640  0.86820  0.61350  1.0000 -0.1170585485
C   C14       1.0  0.76580  0.92940  0.58980  1.0000 -0.1603905982
C   C15       1.0  0.08478  0.93062  0.65790  1.0000 0.2654009113
C   C16       1.0  0.83270  0.18370  0.56780  1.0000 -0.5401040664
C   C17       1.0  0.87990  0.10390  0.08170  1.0000 0.1862512143
C   C18       1.0  0.75030  0.91330  0.09150  1.0000 -0.1603905982
C   C19       1.0  0.81090  0.85230  0.11480  1.0000 -0.1170585485
C   C20       1.0  0.00310  0.98090  0.12750  1.0000 0.0298900703
C   C21       1.0  0.13180  0.17360  0.11350  1.0000 -0.1170585485
C   C22       1.0  0.07060  0.23420  0.08980  1.0000 -0.1603905982
C   C23       1.0  0.06938  0.91522  0.15790  1.0000 0.2654009113
C   C24       1.0  0.81630  0.16730  0.06780  1.0000 -0.5401040664
C   C25       1.0  0.10390  0.87990  0.41830  1.0000 0.1862512143
C   C26       1.0  0.91330  0.75030  0.40850  1.0000 -0.1603905982
C   C27       1.0  0.85230  0.81090  0.38520  1.0000 -0.1170585485
C   C28       1.0  0.98090  0.00310  0.37250  1.0000 0.0298900703
C   C29       1.0  0.17360  0.13180  0.38650  1.0000 -0.1170585485
C   C30       1.0  0.23420  0.07060  0.41020  1.0000 -0.1603905982
C   C31       1.0  0.91522  0.06938  0.34210  1.0000 0.2647821853
C   C32       1.0  0.16730  0.81630  0.43220  1.0000 -0.5401040664
N   N1        1.0  0.04699  0.26681  0.82820  1.0000 -0.2662855437
N   N2        1.0  0.93187  0.26573  0.80040  1.0000 -0.0696948137
N   N3        1.0  0.75374  0.08906  0.79780  1.0000 -0.0696948137
N   N4        1.0  0.74901  0.97139  0.82420  1.0000 -0.2662855437
N   N5        1.0  0.26681  0.04699  0.67180  1.0000 -0.2662855437
N   N6        1.0  0.26573  0.93187  0.69960  1.0000 -0.0696948137
N   N7        1.0  0.08906  0.75374  0.70220  1.0000 -0.0696948137
N   N8        1.0  0.97139  0.74901  0.67580  1.0000 -0.2662855437
N   N9        1.0  0.95301  0.73319  0.17180  1.0000 -0.2662855437
N   N10       1.0  0.06813  0.73427  0.19960  1.0000 -0.0696948137
N   N11       1.0  0.24626  0.91094  0.20220  1.0000 -0.0696948137
N   N12       1.0  0.25099  0.02861  0.17580  1.0000 -0.2662855437
N   N13       1.0  0.73319  0.95301  0.32820  1.0000 -0.2662855437
N   N14       1.0  0.73427  0.06813  0.30040  1.0000 -0.0696948137
N   N15       1.0  0.91094  0.24626  0.29780  1.0000 -0.0696948137
N   N16       1.0  0.02861  0.25099  0.32420  1.0000 -0.2662855437
O   O1        1.0  0.28622  0.68738  0.04600  1.0000 -0.5993283739
O   O2        1.0  0.40992  0.90448  0.12920  1.0000 -0.7899593761
O   O3        1.0  0.05848  0.57032  0.11450  1.0000 -0.778457736
O   O4        1.0  0.67912  0.28668  0.15060  1.0000 -0.6777091077
O   O5        1.0  0.68738  0.28622  0.45400  1.0000 -0.5993283739
O   O6        1.0  0.90448  0.40992  0.37080  1.0000 -0.7899593761
O   O7        1.0  0.57032  0.05848  0.38550  1.0000 -0.778457736
O   O8        1.0  0.28668  0.67912  0.34940  1.0000 -0.6777091077
O   O9        1.0  0.71378  0.31262  0.95400  1.0000 -0.5993283739
O   O10       1.0  0.59008  0.09552  0.87080  1.0000 -0.7899593761
O   O11       1.0  0.94152  0.42968  0.88550  1.0000 -0.778457736
O   O12       1.0  0.32088  0.71332  0.84940  1.0000 -0.6777091077
O   O13       1.0  0.31262  0.71378  0.54600  1.0000 -0.5993283739
O   O14       1.0  0.09552  0.59008  0.62920  1.0000 -0.7899593761
O   O15       1.0  0.42968  0.94152  0.61450  1.0000 -0.778457736
O   O16       1.0  0.71332  0.32088  0.65060  1.0000 -0.6777091077
