# DDEC6 charges by PACMAN v1.1 (https://github.com/mtap-research/PACMAN-charge/)
data_2011[Zn][hcb]2[FSR]2
_chemical_formula_sum              "Zn4 H40 C44 S4 N4 O22"
_cell_length_a       14.6154
_cell_length_b       5.9671
_cell_length_c       17.3506
_cell_angle_alpha    90
_cell_angle_beta     107.094
_cell_angle_gamma    90

_symmetry_space_group_name_H-M    "P 1"
_symmetry_Int_Tables_number       1

loop_
  _symmetry_equiv_pos_as_xyz
  'x, y, z'

loop_
  _atom_site_type_symbol
  _atom_site_label
  _atom_site_symmetry_multiplicity
  _atom_site_fract_x
  _atom_site_fract_y
  _atom_site_fract_z
  _atom_site_occupancy
  _atom_site_charge
Zn  Zn1       1.0  0.89125  0.72811  0.70669  1.0000 0.8611530837
Zn  Zn2       1.0  0.72344  0.32005  0.88452  1.0000 0.8732211468
Zn  Zn3       1.0  0.10875  0.22811  0.29331  1.0000 0.8611530837
Zn  Zn4       1.0  0.27656  0.82005  0.11548  1.0000 0.8732211468
H   H1        1.0  0.91000  0.30100  0.70440  1.0000 0.3545787809
H   H2        1.0  0.89100  0.37500  0.77260  1.0000 0.360969114
H   H3        1.0  0.59640  0.38890  0.67300  1.0000 0.1189889339
H   H4        1.0  0.57670  0.83890  0.71850  1.0000 0.1392055794
H   H5        1.0  0.53730  0.73020  0.63090  1.0000 0.1392055794
H   H6        1.0  0.93830  0.78530  0.46280  1.0000 0.1189889339
H   H7        1.0  0.80730  0.34120  0.51180  1.0000 0.1348855523
H   H8        1.0  0.68710  0.99000  0.80990  1.0000 0.3092394349
H   H9        1.0  0.78150  0.95900  0.83980  1.0000 0.360969114
H   H10       1.0  0.88900  0.41700  0.98700  1.0000 0.3748843548
H   H11       1.0  0.89900  0.21300  0.95200  1.0000 0.360969114
H   H12       1.0  0.94800  0.94740  0.34400  1.0000 0.1189889339
H   H13       1.0  0.80810  0.49300  0.38790  1.0000 0.1104644862
H   H14       1.0  0.36720  0.60280  0.84420  1.0000 0.1048775789
H   H15       1.0  0.52840  0.04630  0.85510  1.0000 0.1189889339
H   H16       1.0  0.30430  0.45250  0.94170  1.0000 0.1392055794
H   H17       1.0  0.45810  0.88810  0.94680  1.0000 0.1189889339
H   H18       1.0  0.89810  0.27790  0.12830  1.0000 0.1189889339
H   H19       1.0  0.90310  0.73070  0.18110  1.0000 0.1467320499
H   H20       1.0  0.82810  0.62020  0.10440  1.0000 0.1392055794
H   H21       1.0  0.09000  0.80100  0.29560  1.0000 0.3545787809
H   H22       1.0  0.10900  0.87500  0.22740  1.0000 0.360969114
H   H23       1.0  0.40360  0.88890  0.32700  1.0000 0.1189889339
H   H24       1.0  0.42330  0.33890  0.28150  1.0000 0.1392055794
H   H25       1.0  0.46270  0.23020  0.36910  1.0000 0.1392055794
H   H26       1.0  0.06170  0.28530  0.53720  1.0000 0.1189889339
H   H27       1.0  0.19270  0.84120  0.48820  1.0000 0.1392055794
H   H28       1.0  0.31290  0.49000  0.19010  1.0000 0.3092394349
H   H29       1.0  0.21850  0.45900  0.16020  1.0000 0.360969114
H   H30       1.0  0.11100  0.91700  0.01300  1.0000 0.3753847358
H   H31       1.0  0.10100  0.71300  0.04800  1.0000 0.360969114
H   H32       1.0  0.05200  0.44740  0.65600  1.0000 0.1189889339
H   H33       1.0  0.19190  0.99300  0.61210  1.0000 0.1104644862
H   H34       1.0  0.63280  0.10280  0.15580  1.0000 0.1048775789
H   H35       1.0  0.47160  0.54630  0.14490  1.0000 0.1189889339
H   H36       1.0  0.69570  0.95250  0.05830  1.0000 0.1392055794
H   H37       1.0  0.54190  0.38810  0.05320  1.0000 0.1189889339
H   H38       1.0  0.10190  0.77790  0.87170  1.0000 0.1189889339
H   H39       1.0  0.09690  0.23070  0.81890  1.0000 0.1467320499
H   H40       1.0  0.17190  0.12020  0.89560  1.0000 0.1392055794
C   C1        1.0  0.71917  0.55110  0.73720  1.0000 0.5808979151
C   C2        1.0  0.87270  0.94820  0.57839  1.0000 0.5458483574
C   C3        1.0  0.61237  0.50040  0.71719  1.0000 -0.0107497844
C   C4        1.0  0.87264  0.04810  0.49881  1.0000 -0.0107497844
C   C5        1.0  0.54840  0.70410  0.68873  1.0000 -0.2528970289
C   C6        1.0  0.91386  0.93010  0.44845  1.0000 -0.1025183993
C   C7        1.0  0.83434  0.26070  0.47728  1.0000 -0.0925061825
C   C8        1.0  0.50248  0.44170  0.78521  1.0000 0.176941472
C   C9        1.0  0.91881  0.02590  0.37740  1.0000 -0.1025183993
C   C10       1.0  0.83658  0.35280  0.40415  1.0000 -0.1365965652
C   C11       1.0  0.45577  0.34170  0.84168  1.0000 0.0307382214
C   C12       1.0  0.88082  0.23830  0.35496  1.0000 0.0357831148
C   C13       1.0  0.38716  0.46090  0.86624  1.0000 -0.1365965652
C   C14       1.0  0.48257  0.12730  0.87195  1.0000 -0.1056818153
C   C15       1.0  0.88699  0.33770  0.27894  1.0000 0.168563473
C   C16       1.0  0.34843  0.36950  0.92333  1.0000 -0.1025183993
C   C17       1.0  0.44122  0.03380  0.92709  1.0000 -0.1056818153
C   C18       1.0  0.37468  0.15610  0.95319  1.0000 -0.0226359089
C   C19       1.0  0.93331  0.39440  0.16612  1.0000 -0.0226359089
C   C20       1.0  0.86690  0.59440  0.16023  1.0000 -0.2437651577
C   C21       1.0  0.33203  0.05300  0.01381  1.0000 0.5351040837
C   C22       1.0  0.02257  0.45620  0.14226  1.0000 0.5701895532
C   C23       1.0  0.28083  0.05110  0.26280  1.0000 0.5808979151
C   C24       1.0  0.12730  0.44820  0.42161  1.0000 0.5458483574
C   C25       1.0  0.38763  0.00040  0.28281  1.0000 -0.0107497844
C   C26       1.0  0.12736  0.54810  0.50119  1.0000 -0.0107497844
C   C27       1.0  0.45160  0.20410  0.31127  1.0000 -0.2528970289
C   C28       1.0  0.08614  0.43010  0.55155  1.0000 -0.1025183993
C   C29       1.0  0.16566  0.76070  0.52272  1.0000 -0.0925061825
C   C30       1.0  0.49752  0.94170  0.21479  1.0000 0.176941472
C   C31       1.0  0.08119  0.52590  0.62260  1.0000 -0.1025183993
C   C32       1.0  0.16342  0.85280  0.59585  1.0000 -0.1365965652
C   C33       1.0  0.54423  0.84170  0.15832  1.0000 0.0307382214
C   C34       1.0  0.11918  0.73830  0.64504  1.0000 0.0357831148
C   C35       1.0  0.61284  0.96090  0.13376  1.0000 -0.1365965652
C   C36       1.0  0.51743  0.62730  0.12805  1.0000 -0.1056818153
C   C37       1.0  0.11301  0.83770  0.72106  1.0000 0.168563473
C   C38       1.0  0.65157  0.86950  0.07667  1.0000 -0.1025183993
C   C39       1.0  0.55878  0.53380  0.07291  1.0000 -0.1056818153
C   C40       1.0  0.62532  0.65610  0.04681  1.0000 -0.0226359089
C   C41       1.0  0.06669  0.89440  0.83388  1.0000 -0.0226359089
C   C42       1.0  0.13310  0.09440  0.83977  1.0000 -0.2437651577
C   C43       1.0  0.66797  0.55300  0.98619  1.0000 0.5351040837
C   C44       1.0  0.97743  0.95620  0.85774  1.0000 0.5701895532
S   S1        1.0  0.43784  0.62853  0.71022  1.0000 0.0195035068
S   S2        1.0  0.79253  0.50946  0.22310  1.0000 0.0307382214
S   S3        1.0  0.56216  0.12853  0.28978  1.0000 0.0195035068
S   S4        1.0  0.20747  0.00946  0.77690  1.0000 0.0307382214
N   N1        1.0  0.04440  0.80350  0.75161  1.0000 -0.308131558
N   N2        1.0  0.58900  0.40040  0.78648  1.0000 -0.3472210291
N   N3        1.0  0.95560  0.30350  0.24839  1.0000 -0.308131558
N   N4        1.0  0.41100  0.90040  0.21352  1.0000 -0.3472210291
O   O1        1.0  0.89648  0.90290  0.81003  1.0000 -0.5563796881
O   O2        1.0  0.74559  0.66667  0.68787  1.0000 -0.5082152012
O   O3        1.0  0.92444  0.39760  0.74099  1.0000 -0.6609616401
O   O4        1.0  0.88136  0.73880  0.58676  1.0000 -0.5228653672
O   O5        1.0  0.86512  0.07050  0.63420  1.0000 -0.5306869867
O   O6        1.0  0.77426  0.46660  0.80051  1.0000 -0.5520405891
O   O7        1.0  0.73187  0.99590  0.85223  1.0000 -0.6421465996
O   O8        1.0  0.86114  0.30060  0.96450  1.0000 -0.6672997597
O   O9        1.0  0.66071  0.34520  0.97433  1.0000 -0.5306869867
O   O10       1.0  0.71161  0.67420  0.94959  1.0000 -0.5228653672
O   O11       1.0  0.00879  0.55160  0.07667  1.0000 -0.5228653672
O   O12       1.0  0.10352  0.40290  0.18997  1.0000 -0.5563796881
O   O13       1.0  0.25441  0.16667  0.31213  1.0000 -0.5082152012
O   O14       1.0  0.07556  0.89760  0.25901  1.0000 -0.6609616401
O   O15       1.0  0.11864  0.23880  0.41324  1.0000 -0.5228653672
O   O16       1.0  0.13488  0.57050  0.36580  1.0000 -0.5306869867
O   O17       1.0  0.22574  0.96660  0.19949  1.0000 -0.5520405891
O   O18       1.0  0.26813  0.49590  0.14777  1.0000 -0.6421465996
O   O19       1.0  0.13886  0.80060  0.03550  1.0000 -0.6672997597
O   O20       1.0  0.33929  0.84520  0.02567  1.0000 -0.5306869867
O   O21       1.0  0.28839  0.17420  0.05041  1.0000 -0.5228653672
O   O22       1.0  0.99121  0.05160  0.92333  1.0000 -0.5228653672
