# DDEC6 charges by PACMAN v1.1 (https://github.com/mtap-research/PACMAN-charge/)
data_2011[Co][nan]3[FSR]9
_chemical_formula_sum              "Co3 H2 C8 O10"
_cell_length_a       7.93157
_cell_length_b       7.93157
_cell_length_c       5.494
_cell_angle_alpha    89.5997
_cell_angle_beta     90.4003
_cell_angle_gamma    71.5273

_symmetry_space_group_name_H-M    "P 1"
_symmetry_Int_Tables_number       1

loop_
  _symmetry_equiv_pos_as_xyz
  'x, y, z'

loop_
  _atom_site_type_symbol
  _atom_site_label
  _atom_site_symmetry_multiplicity
  _atom_site_fract_x
  _atom_site_fract_y
  _atom_site_fract_z
  _atom_site_occupancy
  _atom_site_charge
Co  Co1       1.0  0.00000  0.00000  0.50000  1.0000 1.0073890049
Co  Co2       1.0  0.11989  0.11989  0.00000  1.0000 1.0073890049
Co  Co3       1.0  0.88011  0.88011  0.00000  1.0000 1.0073890049
H   H1        1.0  0.80800  0.19200  0.14400  1.0000 0.4133179544
H   H2        1.0  0.19200  0.80800  0.85600  1.0000 0.4133179544
C   C1        1.0  0.38390  0.99150  0.42460  1.0000 0.1758073161
C   C2        1.0  0.99150  0.38390  0.57540  1.0000 0.1758073161
C   C3        1.0  0.61610  0.00850  0.57540  1.0000 0.1758073161
C   C4        1.0  0.00850  0.61610  0.42460  1.0000 0.1758073161
C   C5        1.0  0.43260  0.05220  0.65840  1.0000 0.1758073161
C   C6        1.0  0.05220  0.43260  0.34160  1.0000 0.1758073161
C   C7        1.0  0.56740  0.94780  0.34160  1.0000 0.1758073161
C   C8        1.0  0.94780  0.56740  0.65840  1.0000 0.1758073161
O   O1        1.0  0.89700  0.10300  0.17440  1.0000 -0.8820054771
O   O2        1.0  0.10300  0.89700  0.82560  1.0000 -0.8820054771
O   O3        1.0  0.24299  0.97999  0.32900  1.0000 -0.4620990099
O   O4        1.0  0.97999  0.24299  0.67100  1.0000 -0.4620990099
O   O5        1.0  0.75701  0.02001  0.67100  1.0000 -0.4620990099
O   O6        1.0  0.02001  0.75701  0.32900  1.0000 -0.4620990099
O   O7        1.0  0.35614  0.11814  0.85010  1.0000 -0.4107136146
O   O8        1.0  0.11814  0.35614  0.14990  1.0000 -0.4107136146
O   O9        1.0  0.64386  0.88186  0.14990  1.0000 -0.4107136146
O   O10       1.0  0.88186  0.64386  0.85010  1.0000 -0.4107136146
