# DDEC6 charges by PACMAN v1.1 (https://github.com/mtap-research/PACMAN-charge/)
data_2011[Zn][nan]3[FSR]28
_chemical_formula_sum              "Zn8 H104 C128 N16 O32"
_cell_length_a       12.034
_cell_length_b       16.389
_cell_length_c       19.803
_cell_angle_alpha    90
_cell_angle_beta     90
_cell_angle_gamma    90

_symmetry_space_group_name_H-M    "P 1"
_symmetry_Int_Tables_number       1

loop_
  _symmetry_equiv_pos_as_xyz
  'x, y, z'

loop_
  _atom_site_type_symbol
  _atom_site_label
  _atom_site_symmetry_multiplicity
  _atom_site_fract_x
  _atom_site_fract_y
  _atom_site_fract_z
  _atom_site_occupancy
  _atom_site_charge
Zn  Zn1       1.0  0.41722  0.96941  0.66836  1.0000 0.7328922556
Zn  Zn2       1.0  0.08278  0.96941  0.83164  1.0000 0.7328922556
Zn  Zn3       1.0  0.91722  0.53059  0.33164  1.0000 0.7328922556
Zn  Zn4       1.0  0.58278  0.53059  0.16836  1.0000 0.7328922556
Zn  Zn5       1.0  0.58278  0.03059  0.33164  1.0000 0.7328922556
Zn  Zn6       1.0  0.91722  0.03059  0.16836  1.0000 0.7328922556
Zn  Zn7       1.0  0.08278  0.46941  0.66836  1.0000 0.7328922556
Zn  Zn8       1.0  0.41722  0.46941  0.83164  1.0000 0.7328922556
H   H1        1.0  0.62630  0.87280  0.67390  1.0000 0.1204134163
H   H2        1.0  0.87370  0.87280  0.82610  1.0000 0.1204134163
H   H3        1.0  0.12630  0.62720  0.32610  1.0000 0.1204134163
H   H4        1.0  0.37370  0.62720  0.17390  1.0000 0.1204134163
H   H5        1.0  0.37370  0.12720  0.32610  1.0000 0.1204134163
H   H6        1.0  0.12630  0.12720  0.17390  1.0000 0.1204134163
H   H7        1.0  0.87370  0.37280  0.67390  1.0000 0.1204134163
H   H8        1.0  0.62630  0.37280  0.82610  1.0000 0.1204134163
H   H9        1.0  0.79070  0.85600  0.61360  1.0000 0.138627974
H   H10       1.0  0.70930  0.85600  0.88640  1.0000 0.138627974
H   H11       1.0  0.29070  0.64400  0.38640  1.0000 0.138627974
H   H12       1.0  0.20930  0.64400  0.11360  1.0000 0.138627974
H   H13       1.0  0.20930  0.14400  0.38640  1.0000 0.138627974
H   H14       1.0  0.29070  0.14400  0.11360  1.0000 0.138627974
H   H15       1.0  0.70930  0.35600  0.61360  1.0000 0.138627974
H   H16       1.0  0.79070  0.35600  0.88640  1.0000 0.138627974
H   H17       1.0  0.69670  0.03250  0.48590  1.0000 0.1460429833
H   H18       1.0  0.80330  0.03250  0.01410  1.0000 0.1460429833
H   H19       1.0  0.19670  0.46750  0.51410  1.0000 0.1460429833
H   H20       1.0  0.30330  0.46750  0.98590  1.0000 0.1460429833
H   H21       1.0  0.30330  0.96750  0.51410  1.0000 0.1460429833
H   H22       1.0  0.19670  0.96750  0.98590  1.0000 0.1460429833
H   H23       1.0  0.80330  0.53250  0.48590  1.0000 0.1460429833
H   H24       1.0  0.69670  0.53250  0.01410  1.0000 0.1460429833
H   H25       1.0  0.53440  0.05060  0.54720  1.0000 0.1204134163
H   H26       1.0  0.96560  0.05060  0.95280  1.0000 0.1204134163
H   H27       1.0  0.03440  0.44940  0.45280  1.0000 0.1204134163
H   H28       1.0  0.46560  0.44940  0.04720  1.0000 0.1204134163
H   H29       1.0  0.46560  0.94940  0.45280  1.0000 0.1204134163
H   H30       1.0  0.03440  0.94940  0.04720  1.0000 0.1204134163
H   H31       1.0  0.96560  0.55060  0.54720  1.0000 0.1204134163
H   H32       1.0  0.53440  0.55060  0.95280  1.0000 0.1204134163
H   H33       1.0  0.87590  0.87640  0.50550  1.0000 0.1271349893
H   H34       1.0  0.62410  0.87640  0.99450  1.0000 0.1271349893
H   H35       1.0  0.37590  0.62360  0.49450  1.0000 0.1271349893
H   H36       1.0  0.12410  0.62360  0.00550  1.0000 0.1271349893
H   H37       1.0  0.12410  0.12360  0.49450  1.0000 0.1271349893
H   H38       1.0  0.37590  0.12360  0.00550  1.0000 0.1271349893
H   H39       1.0  0.62410  0.37640  0.50550  1.0000 0.1271349893
H   H40       1.0  0.87590  0.37640  0.99450  1.0000 0.1271349893
H   H41       1.0  0.84850  0.95330  0.46320  1.0000 0.138627974
H   H42       1.0  0.65150  0.95330  0.03680  1.0000 0.138627974
H   H43       1.0  0.34850  0.54670  0.53680  1.0000 0.138627974
H   H44       1.0  0.15150  0.54670  0.96320  1.0000 0.138627974
H   H45       1.0  0.15150  0.04670  0.53680  1.0000 0.138627974
H   H46       1.0  0.34850  0.04670  0.96320  1.0000 0.138627974
H   H47       1.0  0.65150  0.45330  0.46320  1.0000 0.138627974
H   H48       1.0  0.84850  0.45330  0.03680  1.0000 0.138627974
H   H49       1.0  0.02220  0.92230  0.51240  1.0000 0.1001706824
H   H50       1.0  0.47780  0.92230  0.98760  1.0000 0.1001706824
H   H51       1.0  0.52220  0.57770  0.48760  1.0000 0.1001706824
H   H52       1.0  0.97780  0.57770  0.01240  1.0000 0.1001706824
H   H53       1.0  0.97780  0.07770  0.48760  1.0000 0.1001706824
H   H54       1.0  0.52220  0.07770  0.01240  1.0000 0.1001706824
H   H55       1.0  0.47780  0.42230  0.51240  1.0000 0.1001706824
H   H56       1.0  0.02220  0.42230  0.98760  1.0000 0.1001706824
H   H57       1.0  0.09500  0.86870  0.59750  1.0000 0.138627974
H   H58       1.0  0.40500  0.86870  0.90250  1.0000 0.138627974
H   H59       1.0  0.59500  0.63130  0.40250  1.0000 0.138627974
H   H60       1.0  0.90500  0.63130  0.09750  1.0000 0.138627974
H   H61       1.0  0.90500  0.13130  0.40250  1.0000 0.138627974
H   H62       1.0  0.59500  0.13130  0.09750  1.0000 0.138627974
H   H63       1.0  0.40500  0.36870  0.59750  1.0000 0.138627974
H   H64       1.0  0.09500  0.36870  0.90250  1.0000 0.138627974
H   H65       1.0  0.13570  0.87280  0.71220  1.0000 0.1204134163
H   H66       1.0  0.36430  0.87280  0.78780  1.0000 0.1204134163
H   H67       1.0  0.63570  0.62720  0.28780  1.0000 0.1204134163
H   H68       1.0  0.86430  0.62720  0.21220  1.0000 0.1204134163
H   H69       1.0  0.86430  0.12720  0.28780  1.0000 0.1204134163
H   H70       1.0  0.63570  0.12720  0.21220  1.0000 0.1204134163
H   H71       1.0  0.36430  0.37280  0.71220  1.0000 0.1204134163
H   H72       1.0  0.13570  0.37280  0.78780  1.0000 0.1204134163
H   H73       1.0  0.90000  0.06820  0.61800  1.0000 0.138627974
H   H74       1.0  0.60000  0.06820  0.88200  1.0000 0.138627974
H   H75       1.0  0.40000  0.43180  0.38200  1.0000 0.138627974
H   H76       1.0  0.10000  0.43180  0.11800  1.0000 0.138627974
H   H77       1.0  0.10000  0.93180  0.38200  1.0000 0.138627974
H   H78       1.0  0.40000  0.93180  0.11800  1.0000 0.138627974
H   H79       1.0  0.60000  0.56820  0.61800  1.0000 0.138627974
H   H80       1.0  0.90000  0.56820  0.88200  1.0000 0.138627974
H   H81       1.0  0.94110  0.07030  0.73310  1.0000 0.1149167225
H   H82       1.0  0.55890  0.07030  0.76690  1.0000 0.1149167225
H   H83       1.0  0.44110  0.42970  0.26690  1.0000 0.1149167225
H   H84       1.0  0.05890  0.42970  0.23310  1.0000 0.1149167225
H   H85       1.0  0.05890  0.92970  0.26690  1.0000 0.1149167225
H   H86       1.0  0.44110  0.92970  0.23310  1.0000 0.1149167225
H   H87       1.0  0.55890  0.57030  0.73310  1.0000 0.1149167225
H   H88       1.0  0.94110  0.57030  0.76690  1.0000 0.1149167225
H   H89       1.0  0.19890  0.73810  0.64190  1.0000 0.138627974
H   H90       1.0  0.30110  0.73810  0.85810  1.0000 0.138627974
H   H91       1.0  0.69890  0.76190  0.35810  1.0000 0.138627974
H   H92       1.0  0.80110  0.76190  0.14190  1.0000 0.138627974
H   H93       1.0  0.80110  0.26190  0.35810  1.0000 0.138627974
H   H94       1.0  0.69890  0.26190  0.14190  1.0000 0.138627974
H   H95       1.0  0.30110  0.23810  0.64190  1.0000 0.138627974
H   H96       1.0  0.19890  0.23810  0.85810  1.0000 0.138627974
H   H97       1.0  0.39650  0.64480  0.64910  1.0000 0.138627974
H   H98       1.0  0.10350  0.64480  0.85090  1.0000 0.138627974
H   H99       1.0  0.89650  0.85520  0.35090  1.0000 0.138627974
H   H100      1.0  0.60350  0.85520  0.14910  1.0000 0.138627974
H   H101      1.0  0.60350  0.35520  0.35090  1.0000 0.138627974
H   H102      1.0  0.89650  0.35520  0.14910  1.0000 0.138627974
H   H103      1.0  0.10350  0.14480  0.64910  1.0000 0.138627974
H   H104      1.0  0.39650  0.14480  0.85090  1.0000 0.138627974
C   C1        1.0  0.64040  0.90480  0.63612  1.0000 0.0789772402
C   C2        1.0  0.85960  0.90480  0.86388  1.0000 0.0789772402
C   C3        1.0  0.14040  0.59520  0.36388  1.0000 0.0789772402
C   C4        1.0  0.35960  0.59520  0.13612  1.0000 0.0789772402
C   C5        1.0  0.35960  0.09520  0.36388  1.0000 0.0789772402
C   C6        1.0  0.14040  0.09520  0.13612  1.0000 0.0789772402
C   C7        1.0  0.85960  0.40480  0.63612  1.0000 0.0789772402
C   C8        1.0  0.64040  0.40480  0.86388  1.0000 0.0789772402
C   C9        1.0  0.73930  0.89520  0.60010  1.0000 -0.1883793015
C   C10       1.0  0.76070  0.89520  0.89990  1.0000 -0.1883793015
C   C11       1.0  0.23930  0.60480  0.39990  1.0000 -0.1883793015
C   C12       1.0  0.26070  0.60480  0.10010  1.0000 -0.1883793015
C   C13       1.0  0.26070  0.10480  0.39990  1.0000 -0.1883793015
C   C14       1.0  0.23930  0.10480  0.10010  1.0000 -0.1883793015
C   C15       1.0  0.76070  0.39520  0.60010  1.0000 -0.1883793015
C   C16       1.0  0.73930  0.39520  0.89990  1.0000 -0.1883793015
C   C17       1.0  0.76130  0.94370  0.54441  1.0000 0.1684110865
C   C18       1.0  0.73870  0.94370  0.95559  1.0000 0.1684110865
C   C19       1.0  0.26130  0.55630  0.45559  1.0000 0.1684110865
C   C20       1.0  0.23870  0.55630  0.04441  1.0000 0.1684110865
C   C21       1.0  0.23870  0.05630  0.45559  1.0000 0.1684110865
C   C22       1.0  0.26130  0.05630  0.04441  1.0000 0.1684110865
C   C23       1.0  0.73870  0.44370  0.54441  1.0000 0.1684110865
C   C24       1.0  0.76130  0.44370  0.95559  1.0000 0.1684110865
C   C25       1.0  0.68340  0.00080  0.52400  1.0000 -0.1795673172
C   C26       1.0  0.81660  0.00080  0.97600  1.0000 -0.1795673172
C   C27       1.0  0.18340  0.49920  0.47600  1.0000 -0.1795673172
C   C28       1.0  0.31660  0.49920  0.02400  1.0000 -0.1795673172
C   C29       1.0  0.31660  0.99920  0.47600  1.0000 -0.1795673172
C   C30       1.0  0.18340  0.99920  0.02400  1.0000 -0.1795673172
C   C31       1.0  0.81660  0.50080  0.52400  1.0000 -0.1795673172
C   C32       1.0  0.68340  0.50080  0.97600  1.0000 -0.1795673172
C   C33       1.0  0.58520  0.01090  0.56030  1.0000 0.0789772402
C   C34       1.0  0.91480  0.01090  0.93970  1.0000 0.0789772402
C   C35       1.0  0.08520  0.48910  0.43970  1.0000 0.0789772402
C   C36       1.0  0.41480  0.48910  0.06030  1.0000 0.0789772402
C   C37       1.0  0.41480  0.98910  0.43970  1.0000 0.0789772402
C   C38       1.0  0.08520  0.98910  0.06030  1.0000 0.0789772402
C   C39       1.0  0.91480  0.51090  0.56030  1.0000 0.0789772402
C   C40       1.0  0.58520  0.51090  0.93970  1.0000 0.0789772402
C   C41       1.0  0.86420  0.93480  0.50880  1.0000 -0.2710522159
C   C42       1.0  0.63580  0.93480  0.99120  1.0000 -0.2710522159
C   C43       1.0  0.36420  0.56520  0.49120  1.0000 -0.2710522159
C   C44       1.0  0.13580  0.56520  0.00880  1.0000 -0.2710522159
C   C45       1.0  0.13580  0.06520  0.49120  1.0000 -0.2710522159
C   C46       1.0  0.36420  0.06520  0.00880  1.0000 -0.2710522159
C   C47       1.0  0.63580  0.43480  0.50880  1.0000 -0.2710522159
C   C48       1.0  0.86420  0.43480  0.99120  1.0000 -0.2710522159
C   C49       1.0  0.97680  0.96950  0.52510  1.0000 -0.0742655888
C   C50       1.0  0.52320  0.96950  0.97490  1.0000 -0.0742655888
C   C51       1.0  0.47680  0.53050  0.47490  1.0000 -0.0742655888
C   C52       1.0  0.02320  0.53050  0.02510  1.0000 -0.0742655888
C   C53       1.0  0.02320  0.03050  0.47490  1.0000 -0.0742655888
C   C54       1.0  0.47680  0.03050  0.02510  1.0000 -0.0742655888
C   C55       1.0  0.52320  0.46950  0.52510  1.0000 -0.0742655888
C   C56       1.0  0.97680  0.46950  0.97490  1.0000 -0.0742655888
C   C57       1.0  0.99750  0.96880  0.59670  1.0000 0.1204134163
C   C58       1.0  0.50250  0.96880  0.90330  1.0000 0.1204134163
C   C59       1.0  0.49750  0.53120  0.40330  1.0000 0.1204134163
C   C60       1.0  0.00250  0.53120  0.09670  1.0000 0.1204134163
C   C61       1.0  0.00250  0.03120  0.40330  1.0000 0.1204134163
C   C62       1.0  0.49750  0.03120  0.09670  1.0000 0.1204134163
C   C63       1.0  0.50250  0.46880  0.59670  1.0000 0.1204134163
C   C64       1.0  0.99750  0.46880  0.90330  1.0000 0.1204134163
C   C65       1.0  0.06520  0.90960  0.62460  1.0000 -0.1795673172
C   C66       1.0  0.43480  0.90960  0.87540  1.0000 -0.1795673172
C   C67       1.0  0.56520  0.59040  0.37540  1.0000 -0.1795673172
C   C68       1.0  0.93480  0.59040  0.12460  1.0000 -0.1795673172
C   C69       1.0  0.93480  0.09040  0.37540  1.0000 -0.1795673172
C   C70       1.0  0.56520  0.09040  0.12460  1.0000 -0.1795673172
C   C71       1.0  0.43480  0.40960  0.62460  1.0000 -0.1795673172
C   C72       1.0  0.06520  0.40960  0.87540  1.0000 -0.1795673172
C   C73       1.0  0.08860  0.91150  0.69320  1.0000 0.1001706824
C   C74       1.0  0.41140  0.91150  0.80680  1.0000 0.1001706824
C   C75       1.0  0.58860  0.58850  0.30680  1.0000 0.1001706824
C   C76       1.0  0.91140  0.58850  0.19320  1.0000 0.1001706824
C   C77       1.0  0.91140  0.08850  0.30680  1.0000 0.1001706824
C   C78       1.0  0.58860  0.08850  0.19320  1.0000 0.1001706824
C   C79       1.0  0.41140  0.41150  0.69320  1.0000 0.1001706824
C   C80       1.0  0.08860  0.41150  0.80680  1.0000 0.1001706824
C   C81       1.0  0.94750  0.02970  0.63680  1.0000 -0.1883793015
C   C82       1.0  0.55250  0.02970  0.86320  1.0000 -0.1883793015
C   C83       1.0  0.44750  0.47030  0.36320  1.0000 -0.1883793015
C   C84       1.0  0.05250  0.47030  0.13680  1.0000 -0.1883793015
C   C85       1.0  0.05250  0.97030  0.36320  1.0000 -0.1883793015
C   C86       1.0  0.44750  0.97030  0.13680  1.0000 -0.1883793015
C   C87       1.0  0.55250  0.52970  0.63680  1.0000 -0.1883793015
C   C88       1.0  0.94750  0.52970  0.86320  1.0000 -0.1883793015
C   C89       1.0  0.97180  0.03020  0.70570  1.0000 0.0789772402
C   C90       1.0  0.52820  0.03020  0.79430  1.0000 0.0789772402
C   C91       1.0  0.47180  0.46980  0.29430  1.0000 0.0789772402
C   C92       1.0  0.02820  0.46980  0.20570  1.0000 0.0789772402
C   C93       1.0  0.02820  0.96980  0.29430  1.0000 0.0789772402
C   C94       1.0  0.47180  0.96980  0.20570  1.0000 0.0789772402
C   C95       1.0  0.52820  0.53020  0.70570  1.0000 0.0789772402
C   C96       1.0  0.97180  0.53020  0.79430  1.0000 0.0789772402
C   C97       1.0  0.34490  0.79940  0.63170  1.0000 0.5660595478
C   C98       1.0  0.15510  0.79940  0.86830  1.0000 0.5660595478
C   C99       1.0  0.84490  0.70060  0.36830  1.0000 0.5660595478
C   C100      1.0  0.65510  0.70060  0.13170  1.0000 0.5660595478
C   C101      1.0  0.65510  0.20060  0.36830  1.0000 0.5660595478
C   C102      1.0  0.84490  0.20060  0.13170  1.0000 0.5660595478
C   C103      1.0  0.15510  0.29940  0.63170  1.0000 0.5660595478
C   C104      1.0  0.34490  0.29940  0.86830  1.0000 0.5660595478
C   C105      1.0  0.27550  0.73100  0.63960  1.0000 -0.2296904854
C   C106      1.0  0.22450  0.73100  0.86040  1.0000 -0.2296904854
C   C107      1.0  0.77550  0.76900  0.36040  1.0000 -0.2296904854
C   C108      1.0  0.72450  0.76900  0.13960  1.0000 -0.2296904854
C   C109      1.0  0.72450  0.26900  0.36040  1.0000 -0.2296904854
C   C110      1.0  0.77550  0.26900  0.13960  1.0000 -0.2296904854
C   C111      1.0  0.22450  0.23100  0.63960  1.0000 -0.2296904854
C   C112      1.0  0.27550  0.23100  0.86040  1.0000 -0.2296904854
C   C113      1.0  0.32020  0.65170  0.64410  1.0000 -0.285491091
C   C114      1.0  0.17980  0.65170  0.85590  1.0000 -0.285491091
C   C115      1.0  0.82020  0.84830  0.35590  1.0000 -0.285491091
C   C116      1.0  0.67980  0.84830  0.14410  1.0000 -0.285491091
C   C117      1.0  0.67980  0.34830  0.35590  1.0000 -0.285491091
C   C118      1.0  0.82020  0.34830  0.14410  1.0000 -0.285491091
C   C119      1.0  0.17980  0.15170  0.64410  1.0000 -0.285491091
C   C120      1.0  0.32020  0.15170  0.85590  1.0000 -0.285491091
C   C121      1.0  0.25240  0.58480  0.64110  1.0000 0.5254424916
C   C122      1.0  0.24760  0.58480  0.85890  1.0000 0.5254424916
C   C123      1.0  0.75240  0.91520  0.35890  1.0000 0.5254424916
C   C124      1.0  0.74760  0.91520  0.14110  1.0000 0.5254424916
C   C125      1.0  0.74760  0.41520  0.35890  1.0000 0.5254424916
C   C126      1.0  0.75240  0.41520  0.14110  1.0000 0.5254424916
C   C127      1.0  0.24760  0.08480  0.64110  1.0000 0.5254424916
C   C128      1.0  0.25240  0.08480  0.85890  1.0000 0.5254424916
N   N1        1.0  0.56280  0.96255  0.61516  1.0000 -0.2582176968
N   N2        1.0  0.93720  0.96255  0.88484  1.0000 -0.2582176968
N   N3        1.0  0.06280  0.53745  0.38484  1.0000 -0.2582176968
N   N4        1.0  0.43720  0.53745  0.11516  1.0000 -0.2582176968
N   N5        1.0  0.43720  0.03745  0.38484  1.0000 -0.2582176968
N   N6        1.0  0.06280  0.03745  0.11516  1.0000 -0.2582176968
N   N7        1.0  0.93720  0.46255  0.61516  1.0000 -0.2582176968
N   N8        1.0  0.56280  0.46255  0.88484  1.0000 -0.2582176968
N   N9        1.0  0.04060  0.97220  0.73350  1.0000 -0.2710522159
N   N10       1.0  0.45940  0.97220  0.76650  1.0000 -0.2710522159
N   N11       1.0  0.54060  0.52780  0.26650  1.0000 -0.2710522159
N   N12       1.0  0.95940  0.52780  0.23350  1.0000 -0.2710522159
N   N13       1.0  0.95940  0.02780  0.26650  1.0000 -0.2710522159
N   N14       1.0  0.54060  0.02780  0.23350  1.0000 -0.2710522159
N   N15       1.0  0.45940  0.47220  0.73350  1.0000 -0.2710522159
N   N16       1.0  0.04060  0.47220  0.76650  1.0000 -0.2710522159
O   O1        1.0  0.32450  0.86116  0.66044  1.0000 -0.4879905774
O   O2        1.0  0.17550  0.86116  0.83956  1.0000 -0.4879905774
O   O3        1.0  0.82450  0.63884  0.33956  1.0000 -0.4879905774
O   O4        1.0  0.67550  0.63884  0.16044  1.0000 -0.4879905774
O   O5        1.0  0.67550  0.13884  0.33956  1.0000 -0.4879905774
O   O6        1.0  0.82450  0.13884  0.16044  1.0000 -0.4879905774
O   O7        1.0  0.17550  0.36116  0.66044  1.0000 -0.4879905774
O   O8        1.0  0.32450  0.36116  0.83956  1.0000 -0.4879905774
O   O9        1.0  0.42830  0.79469  0.59120  1.0000 -0.5856198265
O   O10       1.0  0.07170  0.79469  0.90880  1.0000 -0.5856198265
O   O11       1.0  0.92830  0.70531  0.40880  1.0000 -0.5856198265
O   O12       1.0  0.57170  0.70531  0.09120  1.0000 -0.5856198265
O   O13       1.0  0.57170  0.20531  0.40880  1.0000 -0.5856198265
O   O14       1.0  0.92830  0.20531  0.09120  1.0000 -0.5856198265
O   O15       1.0  0.07170  0.29469  0.59120  1.0000 -0.5856198265
O   O16       1.0  0.42830  0.29469  0.90880  1.0000 -0.5856198265
O   O17       1.0  0.28700  0.52057  0.61579  1.0000 -0.4778819129
O   O18       1.0  0.21300  0.52057  0.88421  1.0000 -0.4778819129
O   O19       1.0  0.78700  0.97943  0.38421  1.0000 -0.4778819129
O   O20       1.0  0.71300  0.97943  0.11579  1.0000 -0.4778819129
O   O21       1.0  0.71300  0.47943  0.38421  1.0000 -0.4778819129
O   O22       1.0  0.78700  0.47943  0.11579  1.0000 -0.4778819129
O   O23       1.0  0.21300  0.02057  0.61579  1.0000 -0.4778819129
O   O24       1.0  0.28700  0.02057  0.88421  1.0000 -0.4778819129
O   O25       1.0  0.15540  0.58602  0.65583  1.0000 -0.4544398233
O   O26       1.0  0.34460  0.58602  0.84417  1.0000 -0.4544398233
O   O27       1.0  0.65540  0.91398  0.34417  1.0000 -0.4544398233
O   O28       1.0  0.84460  0.91398  0.15583  1.0000 -0.4544398233
O   O29       1.0  0.84460  0.41398  0.34417  1.0000 -0.4544398233
O   O30       1.0  0.65540  0.41398  0.15583  1.0000 -0.4544398233
O   O31       1.0  0.34460  0.08602  0.65583  1.0000 -0.4544398233
O   O32       1.0  0.15540  0.08602  0.84417  1.0000 -0.4544398233
