# DDEC6 charges by PACMAN v1.1 (https://github.com/mtap-research/PACMAN-charge/)
data_2011[Zn][flu]3[FSR]1
_chemical_formula_sum              "Zn4 H36 C60 O20"
_cell_length_a       14.4141
_cell_length_b       14.4141
_cell_length_c       7.7066
_cell_angle_alpha    78.0582
_cell_angle_beta     101.942
_cell_angle_gamma    109.086

_symmetry_space_group_name_H-M    "P 1"
_symmetry_Int_Tables_number       1

loop_
  _symmetry_equiv_pos_as_xyz
  'x, y, z'

loop_
  _atom_site_type_symbol
  _atom_site_label
  _atom_site_symmetry_multiplicity
  _atom_site_fract_x
  _atom_site_fract_y
  _atom_site_fract_z
  _atom_site_occupancy
  _atom_site_charge
Zn  Zn1       1.0  0.20380  0.73230  0.00882  1.0000 0.9745447139
Zn  Zn2       1.0  0.73230  0.20380  0.49118  1.0000 0.9755399923
Zn  Zn3       1.0  0.79620  0.26770  0.99118  1.0000 0.9745447139
Zn  Zn4       1.0  0.26770  0.79620  0.50882  1.0000 0.9745447139
H   H1        1.0  0.04270  0.46170  0.82910  1.0000 0.1355705659
H   H2        1.0  0.46170  0.04270  0.67090  1.0000 0.1355705659
H   H3        1.0  0.95730  0.53830  0.17090  1.0000 0.1355705659
H   H4        1.0  0.53830  0.95730  0.32910  1.0000 0.1355705659
H   H5        1.0  0.01500  0.29820  0.44860  1.0000 0.1471179376
H   H6        1.0  0.29820  0.01500  0.05140  1.0000 0.1471179376
H   H7        1.0  0.98500  0.70180  0.55140  1.0000 0.1471179376
H   H8        1.0  0.70180  0.98500  0.94860  1.0000 0.1471179376
H   H9        1.0  0.23830  0.55090  0.48110  1.0000 0.1184455517
H   H10       1.0  0.55090  0.23830  0.01890  1.0000 0.1184455517
H   H11       1.0  0.76170  0.44910  0.51890  1.0000 0.1184455517
H   H12       1.0  0.44910  0.76170  0.98110  1.0000 0.1184455517
H   H13       1.0  0.24700  0.53020  0.20620  1.0000 0.1110519302
H   H14       1.0  0.53020  0.24700  0.29380  1.0000 0.1110519302
H   H15       1.0  0.75300  0.46980  0.79380  1.0000 0.1110519302
H   H16       1.0  0.46980  0.75300  0.70620  1.0000 0.1110519302
H   H17       1.0  0.30420  0.46420  0.34640  1.0000 0.1029069523
H   H18       1.0  0.46420  0.30420  0.15360  1.0000 0.1029069523
H   H19       1.0  0.69580  0.53580  0.65360  1.0000 0.1029069523
H   H20       1.0  0.53580  0.69580  0.84640  1.0000 0.1029069523
H   H21       1.0  0.37910  0.55190  0.02810  1.0000 0.1184455517
H   H22       1.0  0.55190  0.37910  0.47190  1.0000 0.1184455517
H   H23       1.0  0.62090  0.44810  0.97190  1.0000 0.1184455517
H   H24       1.0  0.44810  0.62090  0.52810  1.0000 0.1184455517
H   H25       1.0  0.42610  0.50130  0.80660  1.0000 0.1110519302
H   H26       1.0  0.50130  0.42610  0.69340  1.0000 0.1110519302
H   H27       1.0  0.57390  0.49870  0.19340  1.0000 0.1110519302
H   H28       1.0  0.49870  0.57390  0.30660  1.0000 0.1110519302
H   H29       1.0  0.22160  0.23760  0.88280  1.0000 0.1110519302
H   H30       1.0  0.23760  0.22160  0.61720  1.0000 0.1110519302
H   H31       1.0  0.77840  0.76240  0.11720  1.0000 0.1110519302
H   H32       1.0  0.76240  0.77840  0.38280  1.0000 0.1110519302
H   H33       1.0  0.17560  0.28960  0.10920  1.0000 0.1325860719
H   H34       1.0  0.28960  0.17560  0.39080  1.0000 0.1325860719
H   H35       1.0  0.82440  0.71040  0.89080  1.0000 0.1325860719
H   H36       1.0  0.71040  0.82440  0.60920  1.0000 0.1325860719
C   C1        1.0  0.19733  0.61067  0.75170  1.0000 0.5853399585
C   C2        1.0  0.61067  0.19733  0.74830  1.0000 0.5853399585
C   C3        1.0  0.80267  0.38933  0.24830  1.0000 0.5853399585
C   C4        1.0  0.38933  0.80267  0.25170  1.0000 0.5853399585
C   C5        1.0  0.14765  0.51955  0.66830  1.0000 -0.0266220656
C   C6        1.0  0.51955  0.14765  0.83170  1.0000 -0.0266220656
C   C7        1.0  0.85235  0.48045  0.33170  1.0000 -0.0266220656
C   C8        1.0  0.48045  0.85235  0.16830  1.0000 -0.0266220656
C   C9        1.0  0.06498  0.45222  0.73110  1.0000 -0.1232702447
C   C10       1.0  0.45222  0.06498  0.76890  1.0000 -0.1232702447
C   C11       1.0  0.93502  0.54778  0.26890  1.0000 -0.1232702447
C   C12       1.0  0.54778  0.93502  0.23110  1.0000 -0.1232702447
C   C13       1.0  0.01523  0.37017  0.64740  1.0000 -0.014381829
C   C14       1.0  0.37017  0.01523  0.85260  1.0000 -0.014381829
C   C15       1.0  0.98477  0.62983  0.35260  1.0000 -0.014381829
C   C16       1.0  0.62983  0.98477  0.14740  1.0000 -0.014381829
C   C17       1.0  0.04871  0.35409  0.50340  1.0000 -0.2026108702
C   C18       1.0  0.35409  0.04871  0.99660  1.0000 -0.2026108702
C   C19       1.0  0.95129  0.64591  0.49660  1.0000 -0.2026108702
C   C20       1.0  0.64591  0.95129  0.00340  1.0000 -0.2026108702
C   C21       1.0  0.13270  0.42190  0.44150  1.0000 0.2454434435
C   C22       1.0  0.42190  0.13270  0.05850  1.0000 0.2454434435
C   C23       1.0  0.86730  0.57810  0.55850  1.0000 0.2454434435
C   C24       1.0  0.57810  0.86730  0.94150  1.0000 0.2454434435
C   C25       1.0  0.18230  0.50490  0.52290  1.0000 -0.2323829656
C   C26       1.0  0.50490  0.18230  0.97710  1.0000 -0.2323829656
C   C27       1.0  0.81770  0.49510  0.47710  1.0000 -0.2323829656
C   C28       1.0  0.49510  0.81770  0.02290  1.0000 -0.2323829656
C   C29       1.0  0.92190  0.30010  0.71000  1.0000 0.6068900476
C   C30       1.0  0.30010  0.92190  0.79000  1.0000 0.6068900476
C   C31       1.0  0.07810  0.69990  0.29000  1.0000 0.6068900476
C   C32       1.0  0.69990  0.07810  0.21000  1.0000 0.6068900476
C   C33       1.0  0.25120  0.46300  0.24550  1.0000 -0.0648172631
C   C34       1.0  0.46300  0.25120  0.25450  1.0000 -0.0648172631
C   C35       1.0  0.74880  0.53700  0.75450  1.0000 -0.0648172631
C   C36       1.0  0.53700  0.74880  0.74550  1.0000 -0.0648172631
C   C37       1.0  0.27340  0.42520  0.09350  1.0000 0.0862817976
C   C38       1.0  0.42520  0.27340  0.40650  1.0000 0.0862817976
C   C39       1.0  0.72660  0.57480  0.90650  1.0000 0.0862817976
C   C40       1.0  0.57480  0.72660  0.59350  1.0000 0.0862817976
C   C41       1.0  0.34764  0.48816  0.00040  1.0000 -0.1507883084
C   C42       1.0  0.48816  0.34764  0.49960  1.0000 -0.1507883084
C   C43       1.0  0.65236  0.51184  0.99960  1.0000 -0.1507883084
C   C44       1.0  0.51184  0.65236  0.50040  1.0000 -0.1507883084
C   C45       1.0  0.37551  0.45769  0.86740  1.0000 -0.1507883084
C   C46       1.0  0.45769  0.37551  0.63260  1.0000 -0.1507883084
C   C47       1.0  0.62449  0.54231  0.13260  1.0000 -0.1507883084
C   C48       1.0  0.54231  0.62449  0.36740  1.0000 -0.1507883084
C   C49       1.0  0.33057  0.36423  0.82180  1.0000 0.0620296529
C   C50       1.0  0.36423  0.33057  0.67820  1.0000 0.0620296529
C   C51       1.0  0.66943  0.63577  0.17820  1.0000 0.0620296529
C   C52       1.0  0.63577  0.66943  0.32180  1.0000 0.0620296529
C   C53       1.0  0.25420  0.30080  0.91250  1.0000 -0.1409957794
C   C54       1.0  0.30080  0.25420  0.58750  1.0000 -0.1409957794
C   C55       1.0  0.74580  0.69920  0.08750  1.0000 -0.1409957794
C   C56       1.0  0.69920  0.74580  0.41250  1.0000 -0.1409957794
C   C57       1.0  0.22651  0.33229  0.04850  1.0000 -0.1256076314
C   C58       1.0  0.33229  0.22651  0.45150  1.0000 -0.1256076314
C   C59       1.0  0.77349  0.66771  0.95150  1.0000 -0.1256076314
C   C60       1.0  0.66771  0.77349  0.54850  1.0000 -0.1256076314
O   O1        1.0  0.16554  0.61958  0.88450  1.0000 -0.5270607521
O   O2        1.0  0.61958  0.16554  0.61550  1.0000 -0.5270607521
O   O3        1.0  0.83446  0.38042  0.11550  1.0000 -0.5270607521
O   O4        1.0  0.38042  0.83446  0.38450  1.0000 -0.5270607521
O   O5        1.0  0.27012  0.67670  0.68600  1.0000 -0.6052735348
O   O6        1.0  0.67670  0.27012  0.81400  1.0000 -0.6048546334
O   O7        1.0  0.72988  0.32330  0.31400  1.0000 -0.6052735348
O   O8        1.0  0.32330  0.72988  0.18600  1.0000 -0.6052735348
O   O9        1.0  0.90424  0.30716  0.85830  1.0000 -0.5391217967
O   O10       1.0  0.30716  0.90424  0.64170  1.0000 -0.5391217967
O   O11       1.0  0.09576  0.69284  0.14170  1.0000 -0.5391217967
O   O12       1.0  0.69284  0.09576  0.35830  1.0000 -0.5391217967
O   O13       1.0  0.86715  0.23827  0.60890  1.0000 -0.5753064056
O   O14       1.0  0.23827  0.86715  0.89110  1.0000 -0.5746652384
O   O15       1.0  0.13285  0.76173  0.39110  1.0000 -0.5753064056
O   O16       1.0  0.76173  0.13285  0.10890  1.0000 -0.5746652384
O   O17       1.0  0.16029  0.40031  0.29880  1.0000 -0.1704044093
O   O18       1.0  0.40031  0.16029  0.20120  1.0000 -0.1704044093
O   O19       1.0  0.83971  0.59969  0.70120  1.0000 -0.1704044093
O   O20       1.0  0.59969  0.83971  0.79880  1.0000 -0.1704044093
