# DDEC6 charges by PACMAN v1.1 (https://github.com/mtap-research/PACMAN-charge/)
data_2011[Sm][nan]3[FSR]1
_chemical_formula_sum              "Sm8 H40 C56 N16 O60"
_cell_length_a       10.962
_cell_length_b       11.868
_cell_length_c       19.307
_cell_angle_alpha    90
_cell_angle_beta     90
_cell_angle_gamma    90

_symmetry_space_group_name_H-M    "P 1"
_symmetry_Int_Tables_number       1

loop_
  _symmetry_equiv_pos_as_xyz
  'x, y, z'

loop_
  _atom_site_type_symbol
  _atom_site_label
  _atom_site_symmetry_multiplicity
  _atom_site_fract_x
  _atom_site_fract_y
  _atom_site_fract_z
  _atom_site_occupancy
  _atom_site_charge
Sm  Sm1       1.0  0.63724  0.34234  0.39881  1.0000 1.9621434581
Sm  Sm2       1.0  0.36276  0.65766  0.89881  1.0000 1.9621434581
Sm  Sm3       1.0  0.13724  0.15766  0.89881  1.0000 1.9621434581
Sm  Sm4       1.0  0.86276  0.84234  0.39881  1.0000 1.9621434581
Sm  Sm5       1.0  0.11880  0.52708  0.18436  1.0000 1.9873308313
Sm  Sm6       1.0  0.88120  0.47292  0.68436  1.0000 1.9873308313
Sm  Sm7       1.0  0.61880  0.97292  0.68436  1.0000 1.9873308313
Sm  Sm8       1.0  0.38120  0.02708  0.18436  1.0000 1.9873308313
H   H1        1.0  0.85200  0.49530  0.29290  1.0000 0.1096429226
H   H2        1.0  0.14800  0.50470  0.79290  1.0000 0.1096429226
H   H3        1.0  0.35200  0.00470  0.79290  1.0000 0.1096429226
H   H4        1.0  0.64800  0.99530  0.29290  1.0000 0.1096429226
H   H5        1.0  0.72910  0.24740  0.13020  1.0000 0.1681872528
H   H6        1.0  0.27090  0.75260  0.63020  1.0000 0.1681872528
H   H7        1.0  0.22910  0.25260  0.63020  1.0000 0.1681872528
H   H8        1.0  0.77090  0.74740  0.13020  1.0000 0.1681872528
H   H9        1.0  0.37230  0.39840  0.28490  1.0000 0.1096429226
H   H10       1.0  0.62770  0.60160  0.78490  1.0000 0.1096429226
H   H11       1.0  0.87230  0.10160  0.78490  1.0000 0.1096429226
H   H12       1.0  0.12770  0.89840  0.28490  1.0000 0.1096429226
H   H13       1.0  0.50490  0.75800  0.29850  1.0000 0.15992624
H   H14       1.0  0.49510  0.24200  0.79850  1.0000 0.15992624
H   H15       1.0  0.00490  0.74200  0.79850  1.0000 0.15992624
H   H16       1.0  0.99510  0.25800  0.29850  1.0000 0.15992624
H   H17       1.0  0.38940  0.38740  0.41460  1.0000 0.3636300933
H   H18       1.0  0.61060  0.61260  0.91460  1.0000 0.3636300933
H   H19       1.0  0.88940  0.11260  0.91460  1.0000 0.3636300933
H   H20       1.0  0.11060  0.88740  0.41460  1.0000 0.3636300933
H   H21       1.0  0.40820  0.31230  0.47140  1.0000 0.4011363033
H   H22       1.0  0.59180  0.68770  0.97140  1.0000 0.4011363033
H   H23       1.0  0.90820  0.18770  0.97140  1.0000 0.4011363033
H   H24       1.0  0.09180  0.81230  0.47140  1.0000 0.4011363033
H   H25       1.0  0.55460  0.13490  0.49280  1.0000 0.4011363033
H   H26       1.0  0.44540  0.86510  0.99280  1.0000 0.4011363033
H   H27       1.0  0.05460  0.36510  0.99280  1.0000 0.4068100226
H   H28       1.0  0.94540  0.63490  0.49280  1.0000 0.4011363033
H   H29       1.0  0.68490  0.11620  0.45790  1.0000 0.4068100226
H   H30       1.0  0.31510  0.88380  0.95790  1.0000 0.4068100226
H   H31       1.0  0.18490  0.38380  0.95790  1.0000 0.4068100226
H   H32       1.0  0.81510  0.61620  0.45790  1.0000 0.4068100226
H   H33       1.0  0.03530  0.59800  0.32570  1.0000 0.3860682618
H   H34       1.0  0.96470  0.40200  0.82570  1.0000 0.3860682618
H   H35       1.0  0.53530  0.90200  0.82570  1.0000 0.3860682618
H   H36       1.0  0.46470  0.09800  0.32570  1.0000 0.3860682618
H   H37       1.0  0.13480  0.53310  0.34150  1.0000 0.3636300933
H   H38       1.0  0.86520  0.46690  0.84150  1.0000 0.3636300933
H   H39       1.0  0.63480  0.96690  0.84150  1.0000 0.3636300933
H   H40       1.0  0.36520  0.03310  0.34150  1.0000 0.3636300933
C   C1        1.0  0.83020  0.44080  0.26060  1.0000 0.2594197017
C   C2        1.0  0.16980  0.55920  0.76060  1.0000 0.2594197017
C   C3        1.0  0.33020  0.05920  0.76060  1.0000 0.2594197017
C   C4        1.0  0.66980  0.94080  0.26060  1.0000 0.2594197017
C   C5        1.0  0.86440  0.35590  0.15750  1.0000 0.15992624
C   C6        1.0  0.13560  0.64410  0.65750  1.0000 0.15992624
C   C7        1.0  0.36440  0.14410  0.65750  1.0000 0.15992624
C   C8        1.0  0.63560  0.85590  0.15750  1.0000 0.15992624
C   C9        1.0  0.75690  0.29510  0.16500  1.0000 -0.1698862522
C   C10       1.0  0.24310  0.70490  0.66500  1.0000 -0.1698862522
C   C11       1.0  0.25690  0.20490  0.66500  1.0000 -0.1698862522
C   C12       1.0  0.74310  0.79510  0.16500  1.0000 -0.1698862522
C   C13       1.0  0.69360  0.30800  0.22520  1.0000 0.15992624
C   C14       1.0  0.30640  0.69200  0.72520  1.0000 0.15992624
C   C15       1.0  0.19360  0.19200  0.72520  1.0000 0.15992624
C   C16       1.0  0.80640  0.80800  0.22520  1.0000 0.15992624
C   C17       1.0  0.58700  0.23130  0.24350  1.0000 0.5845258009
C   C18       1.0  0.41300  0.76870  0.74350  1.0000 0.5845258009
C   C19       1.0  0.08700  0.26870  0.74350  1.0000 0.5845258009
C   C20       1.0  0.91300  0.73130  0.24350  1.0000 0.5845258009
C   C21       1.0  0.94830  0.33720  0.09570  1.0000 0.5517158281
C   C22       1.0  0.05170  0.66280  0.59570  1.0000 0.5517158281
C   C23       1.0  0.44830  0.16280  0.59570  1.0000 0.5517158281
C   C24       1.0  0.55170  0.83720  0.09570  1.0000 0.5517158281
C   C25       1.0  0.39930  0.47250  0.28770  1.0000 0.2533943426
C   C26       1.0  0.60070  0.52750  0.78770  1.0000 0.2533943426
C   C27       1.0  0.89930  0.02750  0.78770  1.0000 0.2533943426
C   C28       1.0  0.10070  0.97250  0.28770  1.0000 0.2533943426
C   C29       1.0  0.37350  0.65710  0.26000  1.0000 0.1503167149
C   C30       1.0  0.62650  0.34290  0.76000  1.0000 0.1503167149
C   C31       1.0  0.87350  0.84290  0.76000  1.0000 0.1503167149
C   C32       1.0  0.12650  0.15710  0.26000  1.0000 0.1503167149
C   C33       1.0  0.47790  0.68390  0.29530  1.0000 -0.1698862522
C   C34       1.0  0.52210  0.31610  0.79530  1.0000 -0.1698862522
C   C35       1.0  0.97790  0.81610  0.79530  1.0000 -0.1698862522
C   C36       1.0  0.02210  0.18390  0.29530  1.0000 -0.1698862522
C   C37       1.0  0.54130  0.59720  0.32580  1.0000 0.15992624
C   C38       1.0  0.45870  0.40280  0.82580  1.0000 0.15992624
C   C39       1.0  0.04130  0.90280  0.82580  1.0000 0.15992624
C   C40       1.0  0.95870  0.09720  0.32580  1.0000 0.15992624
C   C41       1.0  0.66100  0.61650  0.36390  1.0000 0.6000452751
C   C42       1.0  0.33900  0.38350  0.86390  1.0000 0.6000452751
C   C43       1.0  0.16100  0.88350  0.86390  1.0000 0.6000452751
C   C44       1.0  0.83900  0.11650  0.36390  1.0000 0.6000452751
C   C45       1.0  0.29640  0.74690  0.22460  1.0000 0.6053467762
C   C46       1.0  0.70360  0.25310  0.72460  1.0000 0.6000452751
C   C47       1.0  0.79640  0.75310  0.72460  1.0000 0.6000452751
C   C48       1.0  0.20360  0.24690  0.22460  1.0000 0.6000452751
C   C49       1.0  0.17790  0.61980  0.02900  1.0000 0.5096415278
C   C50       1.0  0.82210  0.38020  0.52900  1.0000 0.5096415278
C   C51       1.0  0.67790  0.88020  0.52900  1.0000 0.5096415278
C   C52       1.0  0.32210  0.11980  0.02900  1.0000 0.5096415278
C   C53       1.0  0.29950  0.56750  0.05310  1.0000 0.5096415278
C   C54       1.0  0.70050  0.43250  0.55310  1.0000 0.5096415278
C   C55       1.0  0.79950  0.93250  0.55310  1.0000 0.5096415278
C   C56       1.0  0.20050  0.06750  0.05310  1.0000 0.5096415278
N   N1        1.0  0.72960  0.38110  0.27380  1.0000 -0.3778415698
N   N2        1.0  0.27040  0.61890  0.77380  1.0000 -0.3778415698
N   N3        1.0  0.22960  0.11890  0.77380  1.0000 -0.3778415698
N   N4        1.0  0.77040  0.88110  0.27380  1.0000 -0.3778415698
N   N5        1.0  0.90160  0.42960  0.20600  1.0000 -0.3643714416
N   N6        1.0  0.09840  0.57040  0.70600  1.0000 -0.3643714416
N   N7        1.0  0.40160  0.07040  0.70600  1.0000 -0.3643714416
N   N8        1.0  0.59840  0.92960  0.20600  1.0000 -0.3650818098
N   N9        1.0  0.50110  0.49090  0.32430  1.0000 -0.3896200437
N   N10       1.0  0.49890  0.50910  0.82430  1.0000 -0.3896200437
N   N11       1.0  0.00110  0.00910  0.82430  1.0000 -0.3896200437
N   N12       1.0  0.99890  0.99090  0.32430  1.0000 -0.3896200437
N   N13       1.0  0.33300  0.54960  0.25480  1.0000 -0.3535930294
N   N14       1.0  0.66700  0.45040  0.75480  1.0000 -0.3535930294
N   N15       1.0  0.83300  0.95040  0.75480  1.0000 -0.3535930294
N   N16       1.0  0.16700  0.04960  0.25480  1.0000 -0.3535930294
O   O1        1.0  0.54550  0.23990  0.30380  1.0000 -0.6294836927
O   O2        1.0  0.45450  0.76010  0.80380  1.0000 -0.6294836927
O   O3        1.0  0.04550  0.26010  0.80380  1.0000 -0.6294836927
O   O4        1.0  0.95450  0.73990  0.30380  1.0000 -0.6294836927
O   O5        1.0  0.55020  0.16570  0.19690  1.0000 -0.586161055
O   O6        1.0  0.44980  0.83430  0.69690  1.0000 -0.586161055
O   O7        1.0  0.05020  0.33430  0.69690  1.0000 -0.586161055
O   O8        1.0  0.94980  0.66570  0.19690  1.0000 -0.586161055
O   O9        1.0  0.04420  0.39550  0.09440  1.0000 -0.6154126156
O   O10       1.0  0.95580  0.60450  0.59440  1.0000 -0.6154126156
O   O11       1.0  0.54420  0.10450  0.59440  1.0000 -0.6154126156
O   O12       1.0  0.45580  0.89550  0.09440  1.0000 -0.6154126156
O   O13       1.0  0.91550  0.26680  0.05350  1.0000 -0.5073109496
O   O14       1.0  0.08450  0.73320  0.55350  1.0000 -0.5073109496
O   O15       1.0  0.41550  0.23320  0.55350  1.0000 -0.5073109496
O   O16       1.0  0.58450  0.76680  0.05350  1.0000 -0.5073109496
O   O17       1.0  0.70600  0.53440  0.39670  1.0000 -0.6294836927
O   O18       1.0  0.29400  0.46560  0.89670  1.0000 -0.6294836927
O   O19       1.0  0.20600  0.96560  0.89670  1.0000 -0.6294836927
O   O20       1.0  0.79400  0.03440  0.39670  1.0000 -0.6294836927
O   O21       1.0  0.70810  0.71150  0.35640  1.0000 -0.586161055
O   O22       1.0  0.29190  0.28850  0.85640  1.0000 -0.586161055
O   O23       1.0  0.20810  0.78850  0.85640  1.0000 -0.586161055
O   O24       1.0  0.79190  0.21150  0.35640  1.0000 -0.586161055
O   O25       1.0  0.20020  0.71610  0.19570  1.0000 -0.5790560323
O   O26       1.0  0.79980  0.28390  0.69570  1.0000 -0.5790560323
O   O27       1.0  0.70020  0.78390  0.69570  1.0000 -0.5790560323
O   O28       1.0  0.29980  0.21610  0.19570  1.0000 -0.5790560323
O   O29       1.0  0.33400  0.84610  0.22800  1.0000 -0.6455974209
O   O30       1.0  0.66600  0.15390  0.72800  1.0000 -0.6455974209
O   O31       1.0  0.83400  0.65390  0.72800  1.0000 -0.6455974209
O   O32       1.0  0.16600  0.34610  0.22800  1.0000 -0.6455974209
O   O33       1.0  0.17470  0.65350  0.96770  1.0000 -0.5790560323
O   O34       1.0  0.82530  0.34650  0.46770  1.0000 -0.5790560323
O   O35       1.0  0.67470  0.84650  0.46770  1.0000 -0.5790560323
O   O36       1.0  0.32530  0.15350  0.96770  1.0000 -0.5790560323
O   O37       1.0  0.09140  0.62320  0.07290  1.0000 -0.5790560323
O   O38       1.0  0.90860  0.37680  0.57290  1.0000 -0.5790560323
O   O39       1.0  0.59140  0.87680  0.57290  1.0000 -0.5790560323
O   O40       1.0  0.40860  0.12320  0.07290  1.0000 -0.5790560323
O   O41       1.0  0.39050  0.58140  0.01540  1.0000 -0.5790560323
O   O42       1.0  0.60950  0.41860  0.51540  1.0000 -0.5790560323
O   O43       1.0  0.89050  0.91860  0.51540  1.0000 -0.5790560323
O   O44       1.0  0.10950  0.08140  0.01540  1.0000 -0.5790560323
O   O45       1.0  0.29580  0.51320  0.10990  1.0000 -0.5975022543
O   O46       1.0  0.70420  0.48680  0.60990  1.0000 -0.5975022543
O   O47       1.0  0.79580  0.98680  0.60990  1.0000 -0.5975022543
O   O48       1.0  0.20420  0.01320  0.10990  1.0000 -0.5975022543
O   O49       1.0  0.42180  0.32190  0.42630  1.0000 -0.7668314803
O   O50       1.0  0.57820  0.67810  0.92630  1.0000 -0.7668314803
O   O51       1.0  0.92180  0.17810  0.92630  1.0000 -0.7668314803
O   O52       1.0  0.07820  0.82190  0.42630  1.0000 -0.7668314803
O   O53       1.0  0.61680  0.16270  0.45980  1.0000 -0.8512688506
O   O54       1.0  0.38320  0.83730  0.95980  1.0000 -0.8512688506
O   O55       1.0  0.11680  0.33730  0.95980  1.0000 -0.8512688506
O   O56       1.0  0.88320  0.66270  0.45980  1.0000 -0.8512688506
O   O57       1.0  0.08190  0.54650  0.30880  1.0000 -0.763739847
O   O58       1.0  0.91810  0.45350  0.80880  1.0000 -0.763739847
O   O59       1.0  0.58190  0.95350  0.80880  1.0000 -0.763739847
O   O60       1.0  0.41810  0.04650  0.30880  1.0000 -0.763739847
