# DDEC6 charges by PACMAN v1.1 (https://github.com/mtap-research/PACMAN-charge/)
data_2011[ZnCo][rtl]3[FSR]1
_chemical_formula_sum              "Zn4 Co8 P8 H24 C64 O56"
_cell_length_a       18.1943
_cell_length_b       17.5985
_cell_length_c       17.2821
_cell_angle_alpha    62.8736
_cell_angle_beta     59.4134
_cell_angle_gamma    57.713

_symmetry_space_group_name_H-M    "P 1"
_symmetry_Int_Tables_number       1

loop_
  _symmetry_equiv_pos_as_xyz
  'x, y, z'

loop_
  _atom_site_type_symbol
  _atom_site_label
  _atom_site_symmetry_multiplicity
  _atom_site_fract_x
  _atom_site_fract_y
  _atom_site_fract_z
  _atom_site_occupancy
  _atom_site_charge
Zn  Zn1       1.0  0.16738  0.77724  0.32054  1.0000 1.0490253741
Zn  Zn2       1.0  0.73484  0.32054  0.77724  1.0000 1.0490253741
Zn  Zn3       1.0  0.92946  0.51516  0.08262  1.0000 1.0490253741
Zn  Zn4       1.0  0.47276  0.08262  0.51516  1.0000 1.0490253741
Co  Co1       1.0  0.23450  0.27704  0.70730  1.0000 1.1319313521
Co  Co2       1.0  0.78116  0.70730  0.27704  1.0000 1.1319313521
Co  Co3       1.0  0.54270  0.46884  0.01550  1.0000 1.1319313521
Co  Co4       1.0  0.97296  0.01550  0.46884  1.0000 1.1319313521
Co  Co5       1.0  0.22176  0.89312  0.39870  1.0000 1.0490253741
Co  Co6       1.0  0.48642  0.39870  0.89312  1.0000 1.0490253741
Co  Co7       1.0  0.85130  0.76358  0.02824  1.0000 1.0490253741
Co  Co8       1.0  0.35688  0.02824  0.76358  1.0000 1.0490253741
P   P1        1.0  0.07456  0.80390  0.52388  1.0000 1.3061035449
P   P2        1.0  0.59766  0.52388  0.80390  1.0000 1.3061035449
P   P3        1.0  0.72612  0.65234  0.17544  1.0000 1.3061035449
P   P4        1.0  0.44610  0.17544  0.65234  1.0000 1.3061035449
P   P5        1.0  0.98218  0.61200  0.14326  1.0000 1.3018047088
P   P6        1.0  0.26256  0.14326  0.61200  1.0000 1.3018047088
P   P7        1.0  0.10674  0.98744  0.26782  1.0000 1.3018047088
P   P8        1.0  0.63800  0.26782  0.98744  1.0000 1.3018047088
H   H1        1.0  0.14070  0.61130  0.56590  1.0000 0.1492311844
H   H2        1.0  0.68210  0.56590  0.61130  1.0000 0.1492311844
H   H3        1.0  0.68410  0.56790  0.10930  1.0000 0.1492311844
H   H4        1.0  0.63870  0.10930  0.56790  1.0000 0.1492311844
H   H5        1.0  0.03800  0.52000  0.84020  1.0000 0.1492311844
H   H6        1.0  0.60180  0.84020  0.52000  1.0000 0.1492311844
H   H7        1.0  0.40980  0.64820  0.21200  1.0000 0.1492311844
H   H8        1.0  0.73000  0.21200  0.64820  1.0000 0.1492311844
H   H9        1.0  0.97490  0.79170  0.72210  1.0000 0.1492311844
H   H10       1.0  0.51130  0.72210  0.79170  1.0000 0.1492311844
H   H11       1.0  0.52790  0.73870  0.27510  1.0000 0.1492311844
H   H12       1.0  0.45830  0.27510  0.73870  1.0000 0.1492311844
H   H13       1.0  0.02300  0.67820  0.23420  1.0000 0.1448587799
H   H14       1.0  0.06460  0.23420  0.67820  1.0000 0.1448587799
H   H15       1.0  0.01580  0.18540  0.22700  1.0000 0.1448587799
H   H16       1.0  0.57180  0.22700  0.18540  1.0000 0.1448587799
H   H17       1.0  0.30200  0.57580  0.14640  1.0000 0.1492311844
H   H18       1.0  0.97580  0.14640  0.57580  1.0000 0.1492311844
H   H19       1.0  0.10360  0.27420  0.94800  1.0000 0.1492311844
H   H20       1.0  0.67420  0.94800  0.27420  1.0000 0.1492311844
H   H21       1.0  0.18150  0.51870  0.05170  1.0000 0.1492311844
H   H22       1.0  0.24810  0.05170  0.51870  1.0000 0.1492311844
H   H23       1.0  0.19830  0.00190  0.06850  1.0000 0.1492311844
H   H24       1.0  0.73130  0.06850  0.00190  1.0000 0.1492311844
C   C1        1.0  0.05690  0.71470  0.62970  1.0000 -0.1339933699
C   C2        1.0  0.59870  0.62970  0.71470  1.0000 -0.1339933699
C   C3        1.0  0.62030  0.65130  0.19310  1.0000 -0.1339933699
C   C4        1.0  0.53530  0.19310  0.65130  1.0000 -0.1339933699
C   C5        1.0  0.10330  0.62390  0.62390  1.0000 -0.0635360859
C   C6        1.0  0.64890  0.62390  0.62390  1.0000 -0.0635360859
C   C7        1.0  0.62610  0.60110  0.14670  1.0000 -0.0635360859
C   C8        1.0  0.62610  0.14670  0.60110  1.0000 -0.0635360859
C   C9        1.0  0.09550  0.55110  0.70210  1.0000 0.0170582743
C   C10       1.0  0.65130  0.70210  0.55110  1.0000 0.0170582743
C   C11       1.0  0.54790  0.59870  0.15450  1.0000 0.0170582743
C   C12       1.0  0.69890  0.15450  0.59870  1.0000 0.0170582743
C   C13       1.0  0.15020  0.45020  0.68860  1.0000 0.5519101375
C   C14       1.0  0.71100  0.68860  0.45020  1.0000 0.5519101375
C   C15       1.0  0.56140  0.53900  0.09980  1.0000 0.5519101375
C   C16       1.0  0.79980  0.09980  0.53900  1.0000 0.5519101375
C   C17       1.0  0.04330  0.56870  0.78730  1.0000 -0.0833129561
C   C18       1.0  0.60070  0.78730  0.56870  1.0000 -0.0833129561
C   C19       1.0  0.46270  0.64930  0.20670  1.0000 -0.0833129561
C   C20       1.0  0.68130  0.20670  0.64930  1.0000 -0.0833129561
C   C21       1.0  0.99730  0.65990  0.79530  1.0000 0.009079785
C   C22       1.0  0.54750  0.79530  0.65990  1.0000 0.009079785
C   C23       1.0  0.45470  0.70250  0.25270  1.0000 0.009079785
C   C24       1.0  0.59010  0.25270  0.70250  1.0000 0.009079785
C   C25       1.0  0.94240  0.67560  0.89280  1.0000 0.6125651473
C   C26       1.0  0.48920  0.89280  0.67560  1.0000 0.6125651473
C   C27       1.0  0.35720  0.76080  0.30760  1.0000 0.6125651473
C   C28       1.0  0.57440  0.30760  0.76080  1.0000 0.6125651473
C   C29       1.0  0.00520  0.73100  0.71660  1.0000 -0.0635360859
C   C30       1.0  0.54720  0.71660  0.73100  1.0000 -0.0635360859
C   C31       1.0  0.53340  0.70280  0.24480  1.0000 -0.0635360859
C   C32       1.0  0.51900  0.24480  0.70280  1.0000 -0.0635360859
C   C33       1.0  0.08650  0.59870  0.14410  1.0000 -0.1528849876
C   C34       1.0  0.17070  0.14410  0.59870  1.0000 -0.1528849876
C   C35       1.0  0.10590  0.07930  0.16350  1.0000 -0.1528849876
C   C36       1.0  0.65130  0.16350  0.07930  1.0000 -0.1528849876
C   C37       1.0  0.08070  0.64270  0.19870  1.0000 -0.0510882115
C   C38       1.0  0.07790  0.19870  0.64270  1.0000 -0.0510882115
C   C39       1.0  0.05130  0.17210  0.16930  1.0000 -0.0510882115
C   C40       1.0  0.60730  0.16930  0.17210  1.0000 -0.0510882115
C   C41       1.0  0.16190  0.63270  0.19970  1.0000 -0.0212066895
C   C42       1.0  0.00570  0.19970  0.63270  1.0000 -0.0212066895
C   C43       1.0  0.05030  0.24430  0.08810  1.0000 -0.0212066895
C   C44       1.0  0.61730  0.08810  0.24430  1.0000 -0.0212066895
C   C45       1.0  0.15070  0.68490  0.25350  1.0000 0.5519101375
C   C46       1.0  0.91090  0.25350  0.68490  1.0000 0.5448747152
C   C47       1.0  0.99650  0.33910  0.09930  1.0000 0.5448747152
C   C48       1.0  0.56510  0.09930  0.33910  1.0000 0.5448747152
C   C49       1.0  0.24850  0.58170  0.14530  1.0000 -0.0739390844
C   C50       1.0  0.02450  0.14530  0.58170  1.0000 -0.0739390844
C   C51       1.0  0.10470  0.22550  0.00150  1.0000 -0.0739390844
C   C52       1.0  0.66830  0.00150  0.22550  1.0000 -0.0739390844
C   C53       1.0  0.25570  0.53950  0.08950  1.0000 -0.0046440339
C   C54       1.0  0.11530  0.08950  0.53950  1.0000 -0.0046440339
C   C55       1.0  0.16050  0.13470  0.99430  1.0000 -0.0046440339
C   C56       1.0  0.71050  0.99430  0.13470  1.0000 -0.0046440339
C   C57       1.0  0.35110  0.48630  0.02950  1.0000 0.6125651473
C   C58       1.0  0.13310  0.02950  0.48630  1.0000 0.6125651473
C   C59       1.0  0.22050  0.11690  0.89890  1.0000 0.6125651473
C   C60       1.0  0.76370  0.89890  0.11690  1.0000 0.6125651473
C   C61       1.0  0.17620  0.54760  0.08900  1.0000 -0.0635360859
C   C62       1.0  0.18720  0.08900  0.54760  1.0000 -0.0635360859
C   C63       1.0  0.16100  0.06280  0.07380  1.0000 -0.0635360859
C   C64       1.0  0.70240  0.07380  0.06280  1.0000 -0.0635360859
O   O1        1.0  0.98550  0.89070  0.54230  1.0000 -0.718907781
O   O2        1.0  0.58150  0.54230  0.89070  1.0000 -0.718907781
O   O3        1.0  0.70770  0.66850  0.26450  1.0000 -0.718907781
O   O4        1.0  0.35930  0.26450  0.66850  1.0000 -0.718907781
O   O5        1.0  0.15990  0.81530  0.50530  1.0000 -0.7605347982
O   O6        1.0  0.51950  0.50530  0.81530  1.0000 -0.7605347982
O   O7        1.0  0.74470  0.73050  0.09010  1.0000 -0.7605347982
O   O8        1.0  0.43470  0.09010  0.73050  1.0000 -0.7605347982
O   O9        1.0  0.08880  0.77080  0.44740  1.0000 -0.718907781
O   O10       1.0  0.69300  0.44740  0.77080  1.0000 -0.718907781
O   O11       1.0  0.80260  0.55700  0.16120  1.0000 -0.718907781
O   O12       1.0  0.47920  0.16120  0.55700  1.0000 -0.718907781
O   O13       1.0  0.19490  0.43590  0.61110  1.0000 -0.4812300827
O   O14       1.0  0.75810  0.61110  0.43590  1.0000 -0.4812300827
O   O15       1.0  0.63890  0.49190  0.05510  1.0000 -0.4812300827
O   O16       1.0  0.81410  0.05510  0.49190  1.0000 -0.4812300827
O   O17       1.0  0.14280  0.38600  0.76200  1.0000 -0.5110310441
O   O18       1.0  0.70920  0.76200  0.38600  1.0000 -0.5110310441
O   O19       1.0  0.48800  0.54080  0.10720  1.0000 -0.5110310441
O   O20       1.0  0.86400  0.10720  0.54080  1.0000 -0.5110310441
O   O21       1.0  0.93230  0.60910  0.96010  1.0000 -0.531886076
O   O22       1.0  0.49850  0.96010  0.60910  1.0000 -0.531886076
O   O23       1.0  0.28990  0.75150  0.31770  1.0000 -0.531886076
O   O24       1.0  0.64090  0.31770  0.75150  1.0000 -0.531886076
O   O25       1.0  0.90740  0.75960  0.89680  1.0000 -0.5110310441
O   O26       1.0  0.43620  0.89680  0.75960  1.0000 -0.5110310441
O   O27       1.0  0.35320  0.81380  0.34260  1.0000 -0.5110310441
O   O28       1.0  0.49040  0.34260  0.81380  1.0000 -0.5110310441
O   O29       1.0  0.95960  0.69720  0.06620  1.0000 -0.7605347982
O   O30       1.0  0.27700  0.06620  0.69720  1.0000 -0.7605347982
O   O31       1.0  0.18380  0.97300  0.29040  1.0000 -0.7605347982
O   O32       1.0  0.55280  0.29040  0.97300  1.0000 -0.7605347982
O   O33       1.0  0.90950  0.62530  0.23730  1.0000 -0.718907781
O   O34       1.0  0.22790  0.23730  0.62530  1.0000 -0.718907781
O   O35       1.0  0.01270  0.02210  0.34050  1.0000 -0.718907781
O   O36       1.0  0.62470  0.34050  0.02210  1.0000 -0.718907781
O   O37       1.0  0.00310  0.52370  0.12590  1.0000 -0.7116015082
O   O38       1.0  0.34730  0.12590  0.52370  1.0000 -0.7116015082
O   O39       1.0  0.12410  0.90270  0.24690  1.0000 -0.7116015082
O   O40       1.0  0.72630  0.24690  0.90270  1.0000 -0.7116015082
O   O41       1.0  0.07360  0.73180  0.29880  1.0000 -0.4481205916
O   O42       1.0  0.89580  0.29880  0.73180  1.0000 -0.4481205916
O   O43       1.0  0.95120  0.35420  0.17640  1.0000 -0.4481205916
O   O44       1.0  0.51820  0.17640  0.35420  1.0000 -0.4481205916
O   O45       1.0  0.22210  0.68390  0.25070  1.0000 -0.4812300827
O   O46       1.0  0.84330  0.25070  0.68390  1.0000 -0.4812300827
O   O47       1.0  0.99930  0.40670  0.02790  1.0000 -0.4812300827
O   O48       1.0  0.56610  0.02790  0.40670  1.0000 -0.4812300827
O   O49       1.0  0.41950  0.47510  0.03790  1.0000 -0.531886076
O   O50       1.0  0.06750  0.03790  0.47510  1.0000 -0.531886076
O   O51       1.0  0.21210  0.18250  0.83050  1.0000 -0.531886076
O   O52       1.0  0.77490  0.83050  0.18250  1.0000 -0.531886076
O   O53       1.0  0.35580  0.45440  0.97500  1.0000 -0.4812300827
O   O54       1.0  0.21480  0.97500  0.45440  1.0000 -0.4812300827
O   O55       1.0  0.27500  0.03520  0.89420  1.0000 -0.4812300827
O   O56       1.0  0.79560  0.89420  0.03520  1.0000 -0.4812300827
