# DDEC6 charges by PACMAN v1.1 (https://github.com/mtap-research/PACMAN-charge/)
data_2011[Ni][cds]3[FSR]1
_chemical_formula_sum              "Ni2 H60 C70 N4 O16"
_cell_length_a       13.2836
_cell_length_b       13.2836
_cell_length_c       13.265
_cell_angle_alpha    61.1299
_cell_angle_beta     118.87
_cell_angle_gamma    94.2465

_symmetry_space_group_name_H-M    "P 1"
_symmetry_Int_Tables_number       1

loop_
  _symmetry_equiv_pos_as_xyz
  'x, y, z'

loop_
  _atom_site_type_symbol
  _atom_site_label
  _atom_site_symmetry_multiplicity
  _atom_site_fract_x
  _atom_site_fract_y
  _atom_site_fract_z
  _atom_site_occupancy
  _atom_site_charge
Ni  Ni1       1.0  0.00000  0.00000  0.50000  1.0000 0.7716354262
Ni  Ni2       1.0  0.00000  0.00000  0.00000  1.0000 0.7716354262
H   H1        1.0  0.19640  0.68080  0.50830  1.0000 0.332660785
H   H2        1.0  0.68080  0.19640  0.99170  1.0000 0.332660785
H   H3        1.0  0.80360  0.31920  0.49170  1.0000 0.332660785
H   H4        1.0  0.31920  0.80360  0.00830  1.0000 0.332660785
H   H5        1.0  0.89250  0.88230  0.39390  1.0000 0.3426165563
H   H6        1.0  0.88230  0.89250  0.10610  1.0000 0.3426165563
H   H7        1.0  0.10750  0.11770  0.60610  1.0000 0.3426165563
H   H8        1.0  0.11770  0.10750  0.89390  1.0000 0.3426165563
H   H9        1.0  0.85010  0.99930  0.29190  1.0000 0.3426165563
H   H10       1.0  0.99930  0.85010  0.20810  1.0000 0.3426165563
H   H11       1.0  0.14990  0.00070  0.70810  1.0000 0.3426165563
H   H12       1.0  0.00070  0.14990  0.79190  1.0000 0.3426165563
H   H13       1.0  0.35980  0.83640  0.75610  1.0000 0.1214137804
H   H14       1.0  0.83640  0.35980  0.74390  1.0000 0.1214137804
H   H15       1.0  0.64020  0.16360  0.24390  1.0000 0.1214137804
H   H16       1.0  0.16360  0.64020  0.25610  1.0000 0.1214137804
H   H17       1.0  0.55120  0.78040  0.95960  1.0000 0.1288236585
H   H18       1.0  0.78040  0.55120  0.54040  1.0000 0.1288236585
H   H19       1.0  0.44880  0.21960  0.04040  1.0000 0.1288236585
H   H20       1.0  0.21960  0.44880  0.45960  1.0000 0.1288236585
H   H21       1.0  0.73130  0.65590  0.12450  1.0000 0.1214137804
H   H22       1.0  0.65590  0.73130  0.37550  1.0000 0.1214137804
H   H23       1.0  0.26870  0.34410  0.87550  1.0000 0.1214137804
H   H24       1.0  0.34410  0.26870  0.62450  1.0000 0.1214137804
H   H25       1.0  0.78130  0.49350  0.12340  1.0000 0.1130011529
H   H26       1.0  0.49350  0.78130  0.37660  1.0000 0.1130011529
H   H27       1.0  0.21870  0.50650  0.87660  1.0000 0.1130011529
H   H28       1.0  0.50650  0.21870  0.62340  1.0000 0.1130011529
H   H29       1.0  0.65470  0.45450  0.96290  1.0000 0.1130011529
H   H30       1.0  0.45450  0.65470  0.53710  1.0000 0.1130011529
H   H31       1.0  0.34530  0.54550  0.03710  1.0000 0.1130011529
H   H32       1.0  0.54550  0.34530  0.46290  1.0000 0.1130011529
H   H33       1.0  0.40110  0.47190  0.67190  1.0000 0.1130011529
H   H34       1.0  0.47190  0.40110  0.82810  1.0000 0.1130011529
H   H35       1.0  0.59890  0.52810  0.32810  1.0000 0.1130011529
H   H36       1.0  0.52810  0.59890  0.17190  1.0000 0.1130011529
H   H37       1.0  0.18780  0.13420  0.46250  1.0000 0.1031800565
H   H38       1.0  0.13420  0.18780  0.03750  1.0000 0.1031800565
H   H39       1.0  0.81220  0.86580  0.53750  1.0000 0.1031800565
H   H40       1.0  0.86580  0.81220  0.96250  1.0000 0.1031800565
H   H41       1.0  0.20670  0.29670  0.30370  1.0000 0.1356430483
H   H42       1.0  0.29670  0.20670  0.19630  1.0000 0.1356430483
H   H43       1.0  0.79330  0.70330  0.69630  1.0000 0.1356430483
H   H44       1.0  0.70330  0.79330  0.80370  1.0000 0.1356430483
H   H45       1.0  0.86270  0.36170  0.05300  1.0000 0.1288236585
H   H46       1.0  0.36170  0.86270  0.44700  1.0000 0.1288236585
H   H47       1.0  0.13730  0.63830  0.94700  1.0000 0.1288236585
H   H48       1.0  0.63830  0.13730  0.55300  1.0000 0.1288236585
H   H49       1.0  0.85040  0.19940  0.21830  1.0000 0.1031800565
H   H50       1.0  0.19940  0.85040  0.28170  1.0000 0.1031800565
H   H51       1.0  0.14960  0.80060  0.78170  1.0000 0.1031800565
H   H52       1.0  0.80060  0.14960  0.71830  1.0000 0.1031800565
H   H53       1.0  0.11300  0.48500  0.09640  1.0000 0.1130011529
H   H54       1.0  0.48500  0.11300  0.40360  1.0000 0.1130011529
H   H55       1.0  0.88700  0.51500  0.90360  1.0000 0.1130011529
H   H56       1.0  0.51500  0.88700  0.59640  1.0000 0.1130011529
H   H57       1.0  0.07510  0.42590  0.01000  1.0000 0.1214137804
H   H58       1.0  0.42590  0.07510  0.49000  1.0000 0.1214137804
H   H59       1.0  0.92490  0.57410  0.99000  1.0000 0.1214137804
H   H60       1.0  0.57410  0.92490  0.51000  1.0000 0.1214137804
C   C1        1.0  0.18210  0.82870  0.55790  1.0000 0.5734247696
C   C2        1.0  0.82870  0.18210  0.94210  1.0000 0.5734247696
C   C3        1.0  0.81790  0.17130  0.44210  1.0000 0.5734247696
C   C4        1.0  0.17130  0.81790  0.05790  1.0000 0.5734247696
C   C5        1.0  0.38060  0.77180  0.75520  1.0000 -0.1528614368
C   C6        1.0  0.77180  0.38060  0.74480  1.0000 -0.1528614368
C   C7        1.0  0.61940  0.22820  0.24480  1.0000 -0.1528614368
C   C8        1.0  0.22820  0.61940  0.25520  1.0000 -0.1528614368
C   C9        1.0  0.30340  0.75040  0.65890  1.0000 -0.1528614368
C   C10       1.0  0.75040  0.30340  0.84110  1.0000 -0.1528614368
C   C11       1.0  0.69660  0.24960  0.34110  1.0000 -0.1528614368
C   C12       1.0  0.24960  0.69660  0.15890  1.0000 -0.1528614368
C   C13       1.0  0.33420  0.65280  0.65590  1.0000 0.1947189588
C   C14       1.0  0.65280  0.33420  0.84410  1.0000 0.1947189588
C   C15       1.0  0.66580  0.34720  0.34410  1.0000 0.1947189588
C   C16       1.0  0.34720  0.66580  0.15590  1.0000 0.1947189588
C   C17       1.0  0.44400  0.57760  0.75120  1.0000 -0.028728811
C   C18       1.0  0.57760  0.44400  0.74880  1.0000 -0.028728811
C   C19       1.0  0.55600  0.42240  0.24880  1.0000 -0.028728811
C   C20       1.0  0.42240  0.55600  0.25120  1.0000 -0.028728811
C   C21       1.0  0.52310  0.59790  0.85340  1.0000 0.039237937
C   C22       1.0  0.59790  0.52310  0.64660  1.0000 0.039237937
C   C23       1.0  0.47690  0.40210  0.14660  1.0000 0.039237937
C   C24       1.0  0.40210  0.47690  0.35340  1.0000 0.039237937
C   C25       1.0  0.49290  0.69770  0.85500  1.0000 0.0561187622
C   C26       1.0  0.69770  0.49290  0.64500  1.0000 0.0561187622
C   C27       1.0  0.50710  0.30230  0.14500  1.0000 0.0561187622
C   C28       1.0  0.30230  0.50710  0.35500  1.0000 0.0561187622
C   C29       1.0  0.57160  0.71600  0.95780  1.0000 -0.1421403382
C   C30       1.0  0.71600  0.57160  0.54220  1.0000 -0.1421403382
C   C31       1.0  0.42840  0.28400  0.04220  1.0000 -0.1421403382
C   C32       1.0  0.28400  0.42840  0.45780  1.0000 -0.1421403382
C   C33       1.0  0.67890  0.64130  0.05730  1.0000 -0.1026742775
C   C34       1.0  0.64130  0.67890  0.44270  1.0000 -0.1026742775
C   C35       1.0  0.32110  0.35870  0.94270  1.0000 -0.1026742775
C   C36       1.0  0.35870  0.32110  0.55730  1.0000 -0.1026742775
C   C37       1.0  0.70850  0.54410  0.05630  1.0000 -0.1054390836
C   C38       1.0  0.54410  0.70850  0.44370  1.0000 -0.1054390836
C   C39       1.0  0.29150  0.45590  0.94370  1.0000 -0.1054390836
C   C40       1.0  0.45590  0.29150  0.55630  1.0000 -0.1054390836
C   C41       1.0  0.63350  0.52150  0.95970  1.0000 -0.1421403382
C   C42       1.0  0.52150  0.63350  0.54030  1.0000 -0.1421403382
C   C43       1.0  0.36650  0.47850  0.04030  1.0000 -0.1421403382
C   C44       1.0  0.47850  0.36650  0.45970  1.0000 -0.1421403382
C   C45       1.0  0.46840  0.46840  0.75000  1.0000 -0.2615087497
C   C46       1.0  0.53160  0.53160  0.25000  1.0000 -0.2615087497
C   C47       1.0  0.12130  0.18070  0.37900  1.0000 0.0725317374
C   C48       1.0  0.18070  0.12130  0.12100  1.0000 0.0725317374
C   C49       1.0  0.87870  0.81930  0.62100  1.0000 0.0725317374
C   C50       1.0  0.81930  0.87870  0.87900  1.0000 0.0725317374
C   C51       1.0  0.13310  0.27790  0.28330  1.0000 -0.208423661
C   C52       1.0  0.27790  0.13310  0.21670  1.0000 -0.208423661
C   C53       1.0  0.86690  0.72210  0.71670  1.0000 -0.208423661
C   C54       1.0  0.72210  0.86690  0.78330  1.0000 -0.208423661
C   C55       1.0  0.03710  0.34810  0.15740  1.0000 0.167375369
C   C56       1.0  0.34810  0.03710  0.34260  1.0000 0.167375369
C   C57       1.0  0.96290  0.65190  0.84260  1.0000 0.167375369
C   C58       1.0  0.65190  0.96290  0.65740  1.0000 0.167375369
C   C59       1.0  0.93050  0.31650  0.13580  1.0000 -0.2007929552
C   C60       1.0  0.31650  0.93050  0.36420  1.0000 -0.2007929552
C   C61       1.0  0.06950  0.68350  0.86420  1.0000 -0.2007929552
C   C62       1.0  0.68350  0.06950  0.63580  1.0000 -0.2007929552
C   C63       1.0  0.92350  0.21870  0.23580  1.0000 0.0891075414
C   C64       1.0  0.21870  0.92350  0.26420  1.0000 0.0891075414
C   C65       1.0  0.07650  0.78130  0.76420  1.0000 0.0891075414
C   C66       1.0  0.78130  0.07650  0.73580  1.0000 0.0891075414
C   C67       1.0  0.05010  0.45310  0.05190  1.0000 -0.2443242092
C   C68       1.0  0.45310  0.05010  0.44810  1.0000 -0.2443242092
C   C69       1.0  0.94990  0.54690  0.94810  1.0000 -0.2443242092
C   C70       1.0  0.54690  0.94990  0.55190  1.0000 -0.2443242092
N   N1        1.0  0.01709  0.15029  0.35670  1.0000 -0.2457617986
N   N2        1.0  0.15029  0.01709  0.14330  1.0000 -0.2457617986
N   N3        1.0  0.98291  0.84971  0.64330  1.0000 -0.2457617986
N   N4        1.0  0.84971  0.98291  0.85670  1.0000 -0.2457617986
O   O1        1.0  0.15955  0.91217  0.56660  1.0000 -0.5570707041
O   O2        1.0  0.91217  0.15955  0.93340  1.0000 -0.5570707041
O   O3        1.0  0.84045  0.08783  0.43340  1.0000 -0.5570707041
O   O4        1.0  0.08783  0.84045  0.06660  1.0000 -0.5570707041
O   O5        1.0  0.10960  0.80300  0.47200  1.0000 -0.5457747299
O   O6        1.0  0.80300  0.10960  0.02800  1.0000 -0.5457747299
O   O7        1.0  0.89040  0.19700  0.52800  1.0000 -0.5457747299
O   O8        1.0  0.19700  0.89040  0.97200  1.0000 -0.5457747299
O   O9        1.0  0.25770  0.63130  0.55790  1.0000 -0.4236078131
O   O10       1.0  0.63130  0.25770  0.94210  1.0000 -0.4236078131
O   O11       1.0  0.74230  0.36870  0.44210  1.0000 -0.4236078131
O   O12       1.0  0.36870  0.74230  0.05790  1.0000 -0.4236078131
O   O13       1.0  0.91165  0.94737  0.35840  1.0000 -0.6287671495
O   O14       1.0  0.94737  0.91165  0.14160  1.0000 -0.6287671495
O   O15       1.0  0.08835  0.05263  0.64160  1.0000 -0.6287671495
O   O16       1.0  0.05263  0.08835  0.85840  1.0000 -0.6287671495
