# DDEC6 charges by PACMAN v1.1 (https://github.com/mtap-research/PACMAN-charge/)
data_2011[Cd][nan]3[FSR]6
_chemical_formula_sum              "Cd6 H44 C76 N8 O24"
_cell_length_a       13.2126
_cell_length_b       13.2126
_cell_length_c       17.1289
_cell_angle_alpha    61.4787
_cell_angle_beta     118.521
_cell_angle_gamma    127.5

_symmetry_space_group_name_H-M    "P 1"
_symmetry_Int_Tables_number       1

loop_
  _symmetry_equiv_pos_as_xyz
  'x, y, z'

loop_
  _atom_site_type_symbol
  _atom_site_label
  _atom_site_symmetry_multiplicity
  _atom_site_fract_x
  _atom_site_fract_y
  _atom_site_fract_z
  _atom_site_occupancy
  _atom_site_charge
Cd  Cd1       1.0  0.53581  0.92917  0.13198  1.0000 0.8716963125
Cd  Cd2       1.0  0.92917  0.53581  0.36802  1.0000 0.8716963125
Cd  Cd3       1.0  0.46419  0.07083  0.86802  1.0000 0.8716963125
Cd  Cd4       1.0  0.07083  0.46419  0.63198  1.0000 0.8716963125
Cd  Cd5       1.0  0.55087  0.55087  0.25000  1.0000 0.9734792901
Cd  Cd6       1.0  0.44913  0.44913  0.75000  1.0000 0.9734792901
H   H1        1.0  0.29290  0.19930  0.88160  1.0000 0.1293686131
H   H2        1.0  0.19930  0.29290  0.61840  1.0000 0.1293686131
H   H3        1.0  0.70710  0.80070  0.11840  1.0000 0.1293686131
H   H4        1.0  0.80070  0.70710  0.38160  1.0000 0.1293686131
H   H5        1.0  0.29050  0.44570  0.95350  1.0000 0.1293686131
H   H6        1.0  0.44570  0.29050  0.54650  1.0000 0.1293686131
H   H7        1.0  0.70950  0.55430  0.04650  1.0000 0.1293686131
H   H8        1.0  0.55430  0.70950  0.45350  1.0000 0.1293686131
H   H9        1.0  0.45450  0.21910  0.14250  1.0000 0.1175733754
H   H10       1.0  0.21910  0.45450  0.35750  1.0000 0.1175733754
H   H11       1.0  0.54550  0.78090  0.85750  1.0000 0.1175733754
H   H12       1.0  0.78090  0.54550  0.64250  1.0000 0.1175733754
H   H13       1.0  0.25700  0.78260  0.17160  1.0000 0.1099836333
H   H14       1.0  0.78260  0.25700  0.32840  1.0000 0.1099836333
H   H15       1.0  0.74300  0.21740  0.82840  1.0000 0.1099836333
H   H16       1.0  0.21740  0.74300  0.67160  1.0000 0.1099836333
H   H17       1.0  0.06240  0.58260  0.18050  1.0000 0.1409938583
H   H18       1.0  0.58260  0.06240  0.31950  1.0000 0.1409938583
H   H19       1.0  0.93760  0.41740  0.81950  1.0000 0.1409938583
H   H20       1.0  0.41740  0.93760  0.68050  1.0000 0.1409938583
H   H21       1.0  0.17190  0.47070  0.06850  1.0000 0.1293686131
H   H22       1.0  0.47070  0.17190  0.43150  1.0000 0.1293686131
H   H23       1.0  0.82810  0.52930  0.93150  1.0000 0.1293686131
H   H24       1.0  0.52930  0.82810  0.56850  1.0000 0.1293686131
H   H25       1.0  0.36080  0.67120  0.06150  1.0000 0.1099836333
H   H26       1.0  0.67120  0.36080  0.43850  1.0000 0.1099836333
H   H27       1.0  0.63920  0.32880  0.93850  1.0000 0.1099836333
H   H28       1.0  0.32880  0.63920  0.56150  1.0000 0.1099836333
H   H29       1.0  0.69200  0.20620  0.17680  1.0000 0.1099836333
H   H30       1.0  0.20620  0.69200  0.32320  1.0000 0.1099836333
H   H31       1.0  0.30800  0.79380  0.82320  1.0000 0.1099836333
H   H32       1.0  0.79380  0.30800  0.67680  1.0000 0.1099836333
H   H33       1.0  0.88030  0.40610  0.17550  1.0000 0.1409938583
H   H34       1.0  0.40610  0.88030  0.32450  1.0000 0.1409938583
H   H35       1.0  0.11970  0.59390  0.82450  1.0000 0.1409938583
H   H36       1.0  0.59390  0.11970  0.67550  1.0000 0.1409938583
H   H37       1.0  0.01470  0.28330  0.09130  1.0000 0.1293686131
H   H38       1.0  0.28330  0.01470  0.40870  1.0000 0.1293686131
H   H39       1.0  0.98530  0.71670  0.90870  1.0000 0.1293686131
H   H40       1.0  0.71670  0.98530  0.59130  1.0000 0.1293686131
H   H41       1.0  0.82080  0.08640  0.09490  1.0000 0.1099836333
H   H42       1.0  0.08640  0.82080  0.40510  1.0000 0.1099836333
H   H43       1.0  0.17920  0.91360  0.90510  1.0000 0.1099836333
H   H44       1.0  0.91360  0.17920  0.59490  1.0000 0.1099836333
C   C1        1.0  0.41870  0.09330  0.04460  1.0000 0.5592550529
C   C2        1.0  0.09330  0.41870  0.45540  1.0000 0.5592550529
C   C3        1.0  0.58130  0.90670  0.95540  1.0000 0.5592550529
C   C4        1.0  0.90670  0.58130  0.54460  1.0000 0.5592550529
C   C5        1.0  0.37790  0.19190  0.01700  1.0000 -0.023339759
C   C6        1.0  0.19190  0.37790  0.48300  1.0000 -0.023339759
C   C7        1.0  0.62210  0.80810  0.98300  1.0000 -0.023339759
C   C8        1.0  0.80810  0.62210  0.51700  1.0000 -0.023339759
C   C9        1.0  0.31350  0.23410  0.92660  1.0000 -0.1346446866
C   C10       1.0  0.23410  0.31350  0.57340  1.0000 -0.1346446866
C   C11       1.0  0.68650  0.76590  0.07340  1.0000 -0.1346446866
C   C12       1.0  0.76590  0.68650  0.42660  1.0000 -0.1346446866
C   C13       1.0  0.27970  0.32810  0.90310  1.0000 -0.023339759
C   C14       1.0  0.32810  0.27970  0.59690  1.0000 -0.023339759
C   C15       1.0  0.72030  0.67190  0.09690  1.0000 -0.023339759
C   C16       1.0  0.67190  0.72030  0.40310  1.0000 -0.023339759
C   C17       1.0  0.31340  0.38300  0.96920  1.0000 -0.1134903276
C   C18       1.0  0.38300  0.31340  0.53080  1.0000 -0.1134903276
C   C19       1.0  0.68660  0.61700  0.03080  1.0000 -0.1134903276
C   C20       1.0  0.61700  0.68660  0.46920  1.0000 -0.1134903276
C   C21       1.0  0.38140  0.34420  0.05910  1.0000 -0.0095486552
C   C22       1.0  0.34420  0.38140  0.44090  1.0000 -0.0095486552
C   C23       1.0  0.61860  0.65580  0.94090  1.0000 -0.0095486552
C   C24       1.0  0.65580  0.61860  0.55910  1.0000 -0.0095486552
C   C25       1.0  0.41120  0.24700  0.08200  1.0000 -0.1134903276
C   C26       1.0  0.24700  0.41120  0.41800  1.0000 -0.1134903276
C   C27       1.0  0.58880  0.75300  0.91800  1.0000 -0.1134903276
C   C28       1.0  0.75300  0.58880  0.58200  1.0000 -0.1134903276
C   C29       1.0  0.43460  0.41380  0.12930  1.0000 0.5347863627
C   C30       1.0  0.41380  0.43460  0.37070  1.0000 0.5347863627
C   C31       1.0  0.56540  0.58620  0.87070  1.0000 0.5347863627
C   C32       1.0  0.58620  0.56540  0.62930  1.0000 0.5347863627
C   C33       1.0  0.21150  0.37590  0.80550  1.0000 0.5592550529
C   C34       1.0  0.37590  0.21150  0.69450  1.0000 0.5592550529
C   C35       1.0  0.78850  0.62410  0.19450  1.0000 0.5592550529
C   C36       1.0  0.62410  0.78850  0.30550  1.0000 0.5592550529
C   C37       1.0  0.23950  0.71870  0.15080  1.0000 0.0743664247
C   C38       1.0  0.71870  0.23950  0.34920  1.0000 0.0743664247
C   C39       1.0  0.76050  0.28130  0.84920  1.0000 0.0743664247
C   C40       1.0  0.28130  0.76050  0.65080  1.0000 0.0743664247
C   C41       1.0  0.12230  0.59790  0.15690  1.0000 -0.183720821
C   C42       1.0  0.59790  0.12230  0.34310  1.0000 -0.183720821
C   C43       1.0  0.87770  0.40210  0.84310  1.0000 -0.183720821
C   C44       1.0  0.40210  0.87770  0.65690  1.0000 -0.183720821
C   C45       1.0  0.09560  0.49980  0.12730  1.0000 0.0990495662
C   C46       1.0  0.49980  0.09560  0.37270  1.0000 0.0990495662
C   C47       1.0  0.90440  0.50020  0.87270  1.0000 0.0990495662
C   C48       1.0  0.50020  0.90440  0.62730  1.0000 0.0990495662
C   C49       1.0  0.18700  0.53200  0.09070  1.0000 -0.1640164958
C   C50       1.0  0.53200  0.18700  0.40930  1.0000 -0.1640164958
C   C51       1.0  0.81300  0.46800  0.90930  1.0000 -0.1640164958
C   C52       1.0  0.46800  0.81300  0.59070  1.0000 -0.1640164958
C   C53       1.0  0.30080  0.65340  0.08630  1.0000 0.0990495662
C   C54       1.0  0.65340  0.30080  0.41370  1.0000 0.0990495662
C   C55       1.0  0.69920  0.34660  0.91370  1.0000 0.0990495662
C   C56       1.0  0.34660  0.69920  0.58630  1.0000 0.0990495662
C   C57       1.0  0.75870  0.22230  0.15970  1.0000 0.0588767497
C   C58       1.0  0.22230  0.75870  0.34030  1.0000 0.0588767497
C   C59       1.0  0.24130  0.77770  0.84030  1.0000 0.0588767497
C   C60       1.0  0.77770  0.24130  0.65970  1.0000 0.0588767497
C   C61       1.0  0.87140  0.34280  0.15910  1.0000 -0.183720821
C   C62       1.0  0.34280  0.87140  0.34090  1.0000 -0.183720821
C   C63       1.0  0.12860  0.65720  0.84090  1.0000 -0.183720821
C   C64       1.0  0.65720  0.12860  0.65910  1.0000 -0.183720821
C   C65       1.0  0.97420  0.37040  0.13340  1.0000 0.1099836333
C   C66       1.0  0.37040  0.97420  0.36660  1.0000 0.1099836333
C   C67       1.0  0.02580  0.62960  0.86660  1.0000 0.1099836333
C   C68       1.0  0.62960  0.02580  0.63340  1.0000 0.1099836333
C   C69       1.0  0.95060  0.27040  0.10940  1.0000 -0.1971910106
C   C70       1.0  0.27040  0.95060  0.39060  1.0000 -0.1971910106
C   C71       1.0  0.04940  0.72960  0.89060  1.0000 -0.1971910106
C   C72       1.0  0.72960  0.04940  0.60940  1.0000 -0.1971910106
C   C73       1.0  0.83310  0.15110  0.11180  1.0000 0.0990495662
C   C74       1.0  0.15110  0.83310  0.38820  1.0000 0.0990495662
C   C75       1.0  0.16690  0.84890  0.88820  1.0000 0.0990495662
C   C76       1.0  0.84890  0.16690  0.61180  1.0000 0.0990495662
N   N1        1.0  0.32870  0.74630  0.11590  1.0000 -0.2384433443
N   N2        1.0  0.74630  0.32870  0.38410  1.0000 -0.2384433443
N   N3        1.0  0.67130  0.25370  0.88410  1.0000 -0.2384433443
N   N4        1.0  0.25370  0.67130  0.61590  1.0000 -0.2384433443
N   N5        1.0  0.73770  0.12490  0.13710  1.0000 -0.2384433443
N   N6        1.0  0.12490  0.73770  0.36290  1.0000 -0.2384433443
N   N7        1.0  0.26230  0.87510  0.86290  1.0000 -0.2384433443
N   N8        1.0  0.87510  0.26230  0.63710  1.0000 -0.2384433443
O   O1        1.0  0.42740  0.07140  0.98530  1.0000 -0.5713990735
O   O2        1.0  0.07140  0.42740  0.51470  1.0000 -0.5713990735
O   O3        1.0  0.57260  0.92860  0.01470  1.0000 -0.5713990735
O   O4        1.0  0.92860  0.57260  0.48530  1.0000 -0.5713990735
O   O5        1.0  0.44760  0.03740  0.12930  1.0000 -0.5491315009
O   O6        1.0  0.03740  0.44760  0.37070  1.0000 -0.5491315009
O   O7        1.0  0.55240  0.96260  0.87070  1.0000 -0.5491315009
O   O8        1.0  0.96260  0.55240  0.62930  1.0000 -0.5491315009
O   O9        1.0  0.49800  0.37780  0.20780  1.0000 -0.5223137545
O   O10       1.0  0.37780  0.49800  0.29220  1.0000 -0.5223137545
O   O11       1.0  0.50200  0.62220  0.79220  1.0000 -0.5223137545
O   O12       1.0  0.62220  0.50200  0.70780  1.0000 -0.5223137545
O   O13       1.0  0.41810  0.51050  0.10540  1.0000 -0.5491315009
O   O14       1.0  0.51050  0.41810  0.39460  1.0000 -0.5491315009
O   O15       1.0  0.58190  0.48950  0.89460  1.0000 -0.5491315009
O   O16       1.0  0.48950  0.58190  0.60540  1.0000 -0.5491315009
O   O17       1.0  0.13460  0.41160  0.79170  1.0000 -0.5223137545
O   O18       1.0  0.41160  0.13460  0.70830  1.0000 -0.5223137545
O   O19       1.0  0.86540  0.58840  0.20830  1.0000 -0.5223137545
O   O20       1.0  0.58840  0.86540  0.29170  1.0000 -0.5223137545
O   O21       1.0  0.23340  0.37820  0.74010  1.0000 -0.5713990735
O   O22       1.0  0.37820  0.23340  0.75990  1.0000 -0.5713990735
O   O23       1.0  0.76660  0.62180  0.25990  1.0000 -0.5713990735
O   O24       1.0  0.62180  0.76660  0.24010  1.0000 -0.5713990735
