# DDEC6 charges by PACMAN v1.1 (https://github.com/mtap-research/PACMAN-charge/)
data_2011[Co][dia]3[FSR]3
_chemical_formula_sum              "Co4 H40 C52 S4 N16 O16"
_cell_length_a       11.323
_cell_length_b       14.469
_cell_length_c       15.383
_cell_angle_alpha    83.835
_cell_angle_beta     110.003
_cell_angle_gamma    112.233

_symmetry_space_group_name_H-M    "P 1"
_symmetry_Int_Tables_number       1

loop_
  _symmetry_equiv_pos_as_xyz
  'x, y, z'

loop_
  _atom_site_type_symbol
  _atom_site_label
  _atom_site_symmetry_multiplicity
  _atom_site_fract_x
  _atom_site_fract_y
  _atom_site_fract_z
  _atom_site_occupancy
  _atom_site_charge
Co  Co1       1.0  0.68668  0.41742  0.10854  1.0000 0.796570258
Co  Co2       1.0  0.85694  0.92277  0.61545  1.0000 0.796570258
Co  Co3       1.0  0.31332  0.58258  0.89146  1.0000 0.796570258
Co  Co4       1.0  0.14306  0.07723  0.38455  1.0000 0.796570258
H   H1        1.0  0.22000  0.29890  0.96960  1.0000 0.1208558286
H   H2        1.0  0.00920  0.19690  0.85680  1.0000 0.1288475346
H   H3        1.0  0.05180  0.68810  0.34590  1.0000 0.1288475346
H   H4        1.0  0.05770  0.79160  0.46420  1.0000 0.1208558286
H   H5        1.0  0.58630  0.19320  0.15420  1.0000 0.1123645012
H   H6        1.0  0.95690  0.38360  0.26280  1.0000 0.1288475346
H   H7        1.0  0.94350  0.22340  0.33730  1.0000 0.1380537095
H   H8        1.0  0.73740  0.03020  0.25610  1.0000 0.1288475346
H   H9        1.0  0.59540  0.03700  0.23650  1.0000 0.1288475346
H   H10       1.0  0.82950  0.97360  0.41110  1.0000 0.1288475346
H   H11       1.0  0.58550  0.11460  0.40060  1.0000 0.1288475346
H   H12       1.0  0.65970  0.05650  0.55650  1.0000 0.1288475346
H   H13       1.0  0.76170  0.69490  0.65410  1.0000 0.1123645012
H   H14       1.0  0.69550  0.89420  0.76590  1.0000 0.1288475346
H   H15       1.0  0.59590  0.73230  0.83010  1.0000 0.1380537095
H   H16       1.0  0.53000  0.54040  0.75350  1.0000 0.1288475346
H   H17       1.0  0.64480  0.53770  0.71980  1.0000 0.1288475346
H   H18       1.0  0.54890  0.47220  0.91020  1.0000 0.1288475346
H   H19       1.0  0.90310  0.61430  0.87360  1.0000 0.1288475346
H   H20       1.0  0.94050  0.55110  0.02970  1.0000 0.1288475346
H   H21       1.0  0.78000  0.70110  0.03040  1.0000 0.1208558286
H   H22       1.0  0.99080  0.80310  0.14320  1.0000 0.1288475346
H   H23       1.0  0.94820  0.31190  0.65410  1.0000 0.1288475346
H   H24       1.0  0.94230  0.20840  0.53580  1.0000 0.1208558286
H   H25       1.0  0.41370  0.80680  0.84580  1.0000 0.1123645012
H   H26       1.0  0.04310  0.61640  0.73720  1.0000 0.1288475346
H   H27       1.0  0.05650  0.77660  0.66270  1.0000 0.1380537095
H   H28       1.0  0.26260  0.96980  0.74390  1.0000 0.1288475346
H   H29       1.0  0.40460  0.96300  0.76350  1.0000 0.1288475346
H   H30       1.0  0.17050  0.02640  0.58890  1.0000 0.1288475346
H   H31       1.0  0.41450  0.88540  0.59940  1.0000 0.1288475346
H   H32       1.0  0.34030  0.94350  0.44350  1.0000 0.1288475346
H   H33       1.0  0.23830  0.30510  0.34590  1.0000 0.1123645012
H   H34       1.0  0.30450  0.10580  0.23410  1.0000 0.1288475346
H   H35       1.0  0.40410  0.26770  0.16990  1.0000 0.1380537095
H   H36       1.0  0.47000  0.45960  0.24650  1.0000 0.1288475346
H   H37       1.0  0.35520  0.46230  0.28020  1.0000 0.1288475346
H   H38       1.0  0.45110  0.52780  0.08980  1.0000 0.1288475346
H   H39       1.0  0.09690  0.38570  0.12640  1.0000 0.1288475346
H   H40       1.0  0.05950  0.44890  0.97030  1.0000 0.1288475346
C   C1        1.0  0.32260  0.23280  0.92890  1.0000 -0.1172800911
C   C2        1.0  0.21420  0.25200  0.92990  1.0000 -0.1111162273
C   C3        1.0  0.09260  0.19340  0.86470  1.0000 -0.1172800911
C   C4        1.0  0.11060  0.13060  0.81410  1.0000 -0.1012751028
C   C5        1.0  0.46570  0.27980  0.98590  1.0000 0.5511668242
C   C6        1.0  0.00530  0.05750  0.74080  1.0000 0.5511668242
C   C7        1.0  0.84660  0.62860  0.30710  1.0000 -0.1012751028
C   C8        1.0  0.97510  0.68740  0.35610  1.0000 -0.1172800911
C   C9        1.0  0.97830  0.74730  0.42440  1.0000 -0.1172800911
C   C10       1.0  0.85450  0.73380  0.42610  1.0000 -0.1012751028
C   C11       1.0  0.80300  0.55520  0.23130  1.0000 0.5511668242
C   C12       1.0  0.81510  0.78150  0.48710  1.0000 0.5559311228
C   C13       1.0  0.67670  0.22110  0.19030  1.0000 0.0932803134
C   C14       1.0  0.88050  0.32530  0.25030  1.0000 -0.0367416238
C   C15       1.0  0.87360  0.23680  0.29160  1.0000 -0.1012751028
C   C16       1.0  0.69010  0.06520  0.27330  1.0000 -0.0367416238
C   C17       1.0  0.77850  0.00130  0.42810  1.0000 0.1288475346
C   C18       1.0  0.64360  0.07960  0.42190  1.0000 -0.1290842874
C   C19       1.0  0.68430  0.04710  0.50730  1.0000 -0.0316658855
C   C20       1.0  0.73290  0.72450  0.68940  1.0000 0.0978153663
C   C21       1.0  0.69590  0.83370  0.75130  1.0000 -0.0316658855
C   C22       1.0  0.64100  0.74460  0.78720  1.0000 -0.1111162273
C   C23       1.0  0.62630  0.56930  0.76350  1.0000 -0.0316658855
C   C24       1.0  0.64140  0.49890  0.92050  1.0000 0.1288475346
C   C25       1.0  0.83680  0.57790  0.89980  1.0000 -0.1172800911
C   C26       1.0  0.85670  0.54280  0.98560  1.0000 -0.0316658855
C   C27       1.0  0.67740  0.76720  0.07110  1.0000 -0.1172800911
C   C28       1.0  0.78580  0.74800  0.07010  1.0000 -0.1111162273
C   C29       1.0  0.90740  0.80660  0.13530  1.0000 -0.1172800911
C   C30       1.0  0.88940  0.86940  0.18590  1.0000 -0.1012751028
C   C31       1.0  0.53430  0.72020  0.01410  1.0000 0.5511668242
C   C32       1.0  0.99470  0.94250  0.25920  1.0000 0.5511668242
C   C33       1.0  0.15340  0.37140  0.69290  1.0000 -0.1012751028
C   C34       1.0  0.02490  0.31260  0.64390  1.0000 -0.1172800911
C   C35       1.0  0.02170  0.25270  0.57560  1.0000 -0.1172800911
C   C36       1.0  0.14550  0.26620  0.57390  1.0000 -0.1111162273
C   C37       1.0  0.19700  0.44480  0.76870  1.0000 0.5511668242
C   C38       1.0  0.18490  0.21850  0.51290  1.0000 0.5559311228
C   C39       1.0  0.32330  0.77890  0.80970  1.0000 0.0932803134
C   C40       1.0  0.11950  0.67470  0.74970  1.0000 -0.0367416238
C   C41       1.0  0.12640  0.76320  0.70840  1.0000 -0.1012751028
C   C42       1.0  0.30990  0.93480  0.72670  1.0000 -0.0367416238
C   C43       1.0  0.22150  0.99870  0.57190  1.0000 0.1288475346
C   C44       1.0  0.35640  0.92040  0.57810  1.0000 -0.1290842874
C   C45       1.0  0.31570  0.95290  0.49270  1.0000 -0.0316658855
C   C46       1.0  0.26710  0.27550  0.31060  1.0000 0.0978153663
C   C47       1.0  0.30410  0.16630  0.24870  1.0000 -0.0316658855
C   C48       1.0  0.35900  0.25540  0.21280  1.0000 -0.1111162273
C   C49       1.0  0.37370  0.43070  0.23650  1.0000 -0.0316658855
C   C50       1.0  0.35860  0.50110  0.07950  1.0000 0.1288475346
C   C51       1.0  0.16320  0.42210  0.10020  1.0000 -0.1172800911
C   C52       1.0  0.14330  0.45720  0.01440  1.0000 -0.0316658855
S   S1        1.0  0.27628  0.14331  0.84611  1.0000 0.1123645012
S   S2        1.0  0.72970  0.64635  0.34357  1.0000 0.1208558286
S   S3        1.0  0.72372  0.85669  0.15389  1.0000 0.1123645012
S   S4        1.0  0.27030  0.35365  0.65643  1.0000 0.1208558286
N   N1        1.0  0.75510  0.31460  0.18630  1.0000 -0.2830861293
N   N2        1.0  0.74490  0.17110  0.25380  1.0000 0.0227499344
N   N3        1.0  0.70470  0.05130  0.37110  1.0000 0.0227499344
N   N4        1.0  0.76830  0.99730  0.51130  1.0000 -0.2872740013
N   N5        1.0  0.75260  0.82070  0.68950  1.0000 -0.2830861293
N   N6        1.0  0.66550  0.67580  0.74740  1.0000 0.0227499344
N   N7        1.0  0.69940  0.54980  0.85760  1.0000 0.0227499344
N   N8        1.0  0.73390  0.49220  0.99840  1.0000 -0.2830861293
N   N9        1.0  0.24490  0.68540  0.81370  1.0000 -0.2830861293
N   N10       1.0  0.25510  0.82890  0.74620  1.0000 0.0227499344
N   N11       1.0  0.29530  0.94870  0.62890  1.0000 0.0227499344
N   N12       1.0  0.23170  0.00270  0.48870  1.0000 -0.2872740013
N   N13       1.0  0.24740  0.17930  0.31050  1.0000 -0.2830861293
N   N14       1.0  0.33450  0.32420  0.25260  1.0000 0.0227499344
N   N15       1.0  0.30060  0.45020  0.14240  1.0000 0.0227499344
N   N16       1.0  0.26610  0.50780  0.00160  1.0000 -0.2830861293
O   O1        1.0  0.55320  0.25840  0.97230  1.0000 -0.5622581584
O   O2        1.0  0.48980  0.34391  0.04807  1.0000 -0.5730293674
O   O3        1.0  0.04230  0.00510  0.70070  1.0000 -0.5622581584
O   O4        1.0  0.88480  0.04720  0.72020  1.0000 -0.5266294909
O   O5        1.0  0.67540  0.50610  0.19621  1.0000 -0.5622581584
O   O6        1.0  0.88670  0.54150  0.20480  1.0000 -0.5266294909
O   O7        1.0  0.69470  0.75910  0.47660  1.0000 -0.5622581584
O   O8        1.0  0.91200  0.84502  0.54724  1.0000 -0.5622581584
O   O9        1.0  0.44680  0.74160  0.02770  1.0000 -0.5622581584
O   O10       1.0  0.51020  0.65609  0.95193  1.0000 -0.5730293674
O   O11       1.0  0.95770  0.99490  0.29930  1.0000 -0.5622581584
O   O12       1.0  0.11520  0.95280  0.27980  1.0000 -0.5266294909
O   O13       1.0  0.32460  0.49390  0.80379  1.0000 -0.5622581584
O   O14       1.0  0.11330  0.45850  0.79520  1.0000 -0.5266294909
O   O15       1.0  0.30530  0.24090  0.52340  1.0000 -0.5622581584
O   O16       1.0  0.08800  0.15498  0.45276  1.0000 -0.5622581584
