# DDEC6 charges by PACMAN v1.1 (https://github.com/mtap-research/PACMAN-charge/)
data_2011[Zn][nan]3[FSR]5
_chemical_formula_sum              "Zn4 H32 C40 N6 O16"
_cell_length_a       14.0599
_cell_length_b       14.0599
_cell_length_c       14.35
_cell_angle_alpha    60.9754
_cell_angle_beta     119.025
_cell_angle_gamma    96.1089

_symmetry_space_group_name_H-M    "P 1"
_symmetry_Int_Tables_number       1

loop_
  _symmetry_equiv_pos_as_xyz
  'x, y, z'

loop_
  _atom_site_type_symbol
  _atom_site_label
  _atom_site_symmetry_multiplicity
  _atom_site_fract_x
  _atom_site_fract_y
  _atom_site_fract_z
  _atom_site_occupancy
  _atom_site_charge
Zn  Zn1       1.0  0.98025  0.01975  0.08429  1.0000 0.8589240282
Zn  Zn2       1.0  0.01975  0.98025  0.91571  1.0000 0.8589240282
Zn  Zn3       1.0  0.09951  0.09951  0.50000  1.0000 0.7544723719
Zn  Zn4       1.0  0.90049  0.90049  0.50000  1.0000 0.7555485933
H   H1        1.0  0.93520  0.37700  0.88430  1.0000 0.1273242875
H   H2        1.0  0.37700  0.93520  0.11570  1.0000 0.1273242875
H   H3        1.0  0.06480  0.62300  0.11570  1.0000 0.1273242875
H   H4        1.0  0.62300  0.06480  0.88430  1.0000 0.1273242875
H   H5        1.0  0.91670  0.56670  0.76080  1.0000 0.1188652019
H   H6        1.0  0.56670  0.91670  0.23920  1.0000 0.1188652019
H   H7        1.0  0.08330  0.43330  0.23920  1.0000 0.1188652019
H   H8        1.0  0.43330  0.08330  0.76080  1.0000 0.1188652019
H   H9        1.0  0.03620  0.50760  0.59010  1.0000 0.0965177535
H   H10       1.0  0.50760  0.03620  0.40990  1.0000 0.0965177535
H   H11       1.0  0.96380  0.49240  0.40990  1.0000 0.0965177535
H   H12       1.0  0.49240  0.96380  0.59010  1.0000 0.0965177535
H   H13       1.0  0.03350  0.32050  0.69750  1.0000 0.1188652019
H   H14       1.0  0.32050  0.03350  0.30250  1.0000 0.1188652019
H   H15       1.0  0.96650  0.67950  0.30250  1.0000 0.1188652019
H   H16       1.0  0.67950  0.96650  0.69750  1.0000 0.1188652019
H   H17       1.0  0.06600  0.23580  0.20950  1.0000 0.1502015932
H   H18       1.0  0.23580  0.06600  0.79050  1.0000 0.1502015932
H   H19       1.0  0.93400  0.76420  0.79050  1.0000 0.1502015932
H   H20       1.0  0.76420  0.93400  0.20950  1.0000 0.1502015932
H   H21       1.0  0.17210  0.14510  0.30750  1.0000 0.1273242875
H   H22       1.0  0.14510  0.17210  0.69250  1.0000 0.1273242875
H   H23       1.0  0.82790  0.85490  0.69250  1.0000 0.1273242875
H   H24       1.0  0.85490  0.82790  0.30750  1.0000 0.1273242875
H   H25       1.0  0.10290  0.16270  0.17410  1.0000 0.1502015932
H   H26       1.0  0.16270  0.10290  0.82590  1.0000 0.1502015932
H   H27       1.0  0.89710  0.83730  0.82590  1.0000 0.1502015932
H   H28       1.0  0.83730  0.89710  0.17410  1.0000 0.1502015932
H   H29       1.0  0.06860  0.72480  0.50720  1.0000 0.370331642
H   H30       1.0  0.72480  0.06860  0.49280  1.0000 0.370331642
H   H31       1.0  0.93140  0.27520  0.49280  1.0000 0.370331642
H   H32       1.0  0.27520  0.93140  0.50720  1.0000 0.370331642
C   C1        1.0  0.98700  0.20920  0.87430  1.0000 0.5725352137
C   C2        1.0  0.20920  0.98700  0.12570  1.0000 0.5725352137
C   C3        1.0  0.01300  0.79080  0.12570  1.0000 0.5725352137
C   C4        1.0  0.79080  0.01300  0.87430  1.0000 0.5725352137
C   C5        1.0  0.98460  0.33060  0.80130  1.0000 -0.016663641
C   C6        1.0  0.33060  0.98460  0.19870  1.0000 -0.016663641
C   C7        1.0  0.01540  0.66940  0.19870  1.0000 -0.016663641
C   C8        1.0  0.66940  0.01540  0.80130  1.0000 -0.016663641
C   C9        1.0  0.95240  0.40340  0.82200  1.0000 -0.1112164504
C   C10       1.0  0.40340  0.95240  0.17800  1.0000 -0.1112164504
C   C11       1.0  0.04760  0.59660  0.17800  1.0000 -0.1112164504
C   C12       1.0  0.59660  0.04760  0.82200  1.0000 -0.1112164504
C   C13       1.0  0.94480  0.51780  0.75040  1.0000 -0.1112164504
C   C14       1.0  0.51780  0.94480  0.24960  1.0000 -0.1112164504
C   C15       1.0  0.05520  0.48220  0.24960  1.0000 -0.1112164504
C   C16       1.0  0.48220  0.05520  0.75040  1.0000 -0.1112164504
C   C17       1.0  0.97840  0.55660  0.66667  1.0000 -0.030997779
C   C18       1.0  0.55660  0.97840  0.33340  1.0000 -0.030997779
C   C19       1.0  0.02160  0.44340  0.33340  1.0000 -0.030997779
C   C20       1.0  0.44340  0.02160  0.66667  1.0000 -0.030997779
C   C21       1.0  0.01290  0.48210  0.64750  1.0000 -0.1461397291
C   C22       1.0  0.48210  0.01290  0.35250  1.0000 -0.1461397291
C   C23       1.0  0.98710  0.51790  0.35250  1.0000 -0.1461397291
C   C24       1.0  0.51790  0.98710  0.64750  1.0000 -0.1461397291
C   C25       1.0  0.01340  0.36920  0.71380  1.0000 -0.1231247963
C   C26       1.0  0.36920  0.01340  0.28620  1.0000 -0.1231247963
C   C27       1.0  0.98660  0.63080  0.28620  1.0000 -0.1231247963
C   C28       1.0  0.63080  0.98660  0.71380  1.0000 -0.1231247963
C   C29       1.0  0.97140  0.67940  0.58990  1.0000 0.5521122633
C   C30       1.0  0.67940  0.97140  0.41010  1.0000 0.5521122633
C   C31       1.0  0.02860  0.32060  0.41010  1.0000 0.5521122633
C   C32       1.0  0.32060  0.02860  0.58990  1.0000 0.5521122633
C   C33       1.0  0.03110  0.08150  0.27720  1.0000 0.3851123124
C   C34       1.0  0.08150  0.03110  0.72280  1.0000 0.3851123124
C   C35       1.0  0.96890  0.91850  0.72280  1.0000 0.3851123124
C   C36       1.0  0.91850  0.96890  0.27720  1.0000 0.3851123124
C   C37       1.0  0.09910  0.16350  0.23870  1.0000 -0.5496567816
C   C38       1.0  0.16350  0.09910  0.76130  1.0000 -0.5496567816
C   C39       1.0  0.90090  0.83650  0.76130  1.0000 -0.5496567816
C   C40       1.0  0.83650  0.90090  0.23870  1.0000 -0.5496567816
N   N1        1.0  0.96980  0.03020  0.21580  1.0000 -0.4100492627
N   N2        1.0  0.03020  0.96980  0.78420  1.0000 -0.4100492627
N   N3        1.0  0.02280  0.05140  0.37470  1.0000 -0.3321115331
N   N4        1.0  0.05140  0.02280  0.62530  1.0000 -0.3321115331
N   N5        1.0  0.97720  0.94860  0.62530  1.0000 -0.3321115331
N   N6        1.0  0.94860  0.97720  0.37470  1.0000 -0.3321115331
O   O1        1.0  0.97320  0.17860  0.96500  1.0000 -0.5496567816
O   O2        1.0  0.17860  0.97320  0.03500  1.0000 -0.5496567816
O   O3        1.0  0.02680  0.82140  0.03500  1.0000 -0.5496567816
O   O4        1.0  0.82140  0.02680  0.96500  1.0000 -0.5496567816
O   O5        1.0  0.00260  0.14880  0.84200  1.0000 -0.5392288745
O   O6        1.0  0.14880  0.00260  0.15800  1.0000 -0.5392288745
O   O7        1.0  0.99740  0.85120  0.15800  1.0000 -0.5392288745
O   O8        1.0  0.85120  0.99740  0.84200  1.0000 -0.5392288745
O   O9        1.0  0.92790  0.74210  0.59850  1.0000 -0.4512718947
O   O10       1.0  0.74210  0.92790  0.40150  1.0000 -0.4512718947
O   O11       1.0  0.07210  0.25790  0.40150  1.0000 -0.4512718947
O   O12       1.0  0.25790  0.07210  0.59850  1.0000 -0.4512718947
O   O13       1.0  0.01660  0.71100  0.52540  1.0000 -0.4100492627
O   O14       1.0  0.71100  0.01660  0.47460  1.0000 -0.4100492627
O   O15       1.0  0.98340  0.28900  0.47460  1.0000 -0.4100492627
O   O16       1.0  0.28900  0.98340  0.52540  1.0000 -0.4100492627
