# DDEC6 charges by PACMAN v1.1 (https://github.com/mtap-research/PACMAN-charge/)
data_2011[Cd][pts]3[FSR]1
_chemical_formula_sum              "Cd4 H80 C96 N16 Cl8"
_cell_length_a       9.1351
_cell_length_b       15.583
_cell_length_c       17.419
_cell_angle_alpha    90
_cell_angle_beta     90
_cell_angle_gamma    90

_symmetry_space_group_name_H-M    "P 1"
_symmetry_Int_Tables_number       1

loop_
  _symmetry_equiv_pos_as_xyz
  'x, y, z'

loop_
  _atom_site_type_symbol
  _atom_site_label
  _atom_site_symmetry_multiplicity
  _atom_site_fract_x
  _atom_site_fract_y
  _atom_site_fract_z
  _atom_site_occupancy
  _atom_site_charge
Cd  Cd1       1.0  0.00000  0.96082  0.75000  1.0000 0.6784265991
Cd  Cd2       1.0  0.00000  0.53918  0.25000  1.0000 0.6784265991
Cd  Cd3       1.0  0.00000  0.03918  0.25000  1.0000 0.6784265991
Cd  Cd4       1.0  0.00000  0.46082  0.75000  1.0000 0.6784265991
H   H1        1.0  0.03930  0.03600  0.57900  1.0000 0.1071365196
H   H2        1.0  0.96070  0.03600  0.92100  1.0000 0.1071365196
H   H3        1.0  0.03930  0.46400  0.42100  1.0000 0.1071365196
H   H4        1.0  0.96070  0.46400  0.07900  1.0000 0.1071365196
H   H5        1.0  0.96070  0.96400  0.42100  1.0000 0.1071365196
H   H6        1.0  0.03930  0.96400  0.07900  1.0000 0.1071365196
H   H7        1.0  0.96070  0.53600  0.57900  1.0000 0.1071365196
H   H8        1.0  0.03930  0.53600  0.92100  1.0000 0.1071365196
H   H9        1.0  0.16810  0.13090  0.50330  1.0000 0.1386104729
H   H10       1.0  0.83190  0.13090  0.99670  1.0000 0.1386104729
H   H11       1.0  0.16810  0.36910  0.49670  1.0000 0.1386104729
H   H12       1.0  0.83190  0.36910  0.00330  1.0000 0.1386104729
H   H13       1.0  0.83190  0.86910  0.49670  1.0000 0.1386104729
H   H14       1.0  0.16810  0.86910  0.00330  1.0000 0.1386104729
H   H15       1.0  0.83190  0.63090  0.50330  1.0000 0.1386104729
H   H16       1.0  0.16810  0.63090  0.99670  1.0000 0.1386104729
H   H17       1.0  0.33580  0.23200  0.69590  1.0000 0.1339374687
H   H18       1.0  0.66420  0.23200  0.80410  1.0000 0.1339374687
H   H19       1.0  0.33580  0.26800  0.30410  1.0000 0.1339374687
H   H20       1.0  0.66420  0.26800  0.19590  1.0000 0.1339374687
H   H21       1.0  0.66420  0.76800  0.30410  1.0000 0.1339374687
H   H22       1.0  0.33580  0.76800  0.19590  1.0000 0.1339374687
H   H23       1.0  0.66420  0.73200  0.69590  1.0000 0.1339374687
H   H24       1.0  0.33580  0.73200  0.80410  1.0000 0.1339374687
H   H25       1.0  0.20490  0.13320  0.76560  1.0000 0.1006677132
H   H26       1.0  0.79510  0.13320  0.73440  1.0000 0.1006677132
H   H27       1.0  0.20490  0.36680  0.23440  1.0000 0.1006677132
H   H28       1.0  0.79510  0.36680  0.26560  1.0000 0.1006677132
H   H29       1.0  0.79510  0.86680  0.23440  1.0000 0.1006677132
H   H30       1.0  0.20490  0.86680  0.26560  1.0000 0.1006677132
H   H31       1.0  0.79510  0.63320  0.76560  1.0000 0.1006677132
H   H32       1.0  0.20490  0.63320  0.73440  1.0000 0.1006677132
H   H33       1.0  0.34670  0.31200  0.56150  1.0000 0.1006677132
H   H34       1.0  0.65330  0.31200  0.93850  1.0000 0.1006677132
H   H35       1.0  0.34670  0.18800  0.43850  1.0000 0.1006677132
H   H36       1.0  0.65330  0.18800  0.06150  1.0000 0.1006677132
H   H37       1.0  0.65330  0.68800  0.43850  1.0000 0.1006677132
H   H38       1.0  0.34670  0.68800  0.06150  1.0000 0.1006677132
H   H39       1.0  0.65330  0.81200  0.56150  1.0000 0.1006677132
H   H40       1.0  0.34670  0.81200  0.93850  1.0000 0.1006677132
H   H41       1.0  0.54810  0.17050  0.54380  1.0000 0.1071365196
H   H42       1.0  0.45190  0.17050  0.95620  1.0000 0.1071365196
H   H43       1.0  0.54810  0.32950  0.45620  1.0000 0.1071365196
H   H44       1.0  0.45190  0.32950  0.04380  1.0000 0.1071365196
H   H45       1.0  0.45190  0.82950  0.45620  1.0000 0.1071365196
H   H46       1.0  0.54810  0.82950  0.04380  1.0000 0.1071365196
H   H47       1.0  0.45190  0.67050  0.54380  1.0000 0.1071365196
H   H48       1.0  0.54810  0.67050  0.95620  1.0000 0.1071365196
H   H49       1.0  0.49780  0.36700  0.64000  1.0000 0.1386104729
H   H50       1.0  0.50220  0.36700  0.86000  1.0000 0.1386104729
H   H51       1.0  0.49780  0.13300  0.36000  1.0000 0.1386104729
H   H52       1.0  0.50220  0.13300  0.14000  1.0000 0.1386104729
H   H53       1.0  0.50220  0.63300  0.36000  1.0000 0.1386104729
H   H54       1.0  0.49780  0.63300  0.14000  1.0000 0.1386104729
H   H55       1.0  0.50220  0.86700  0.64000  1.0000 0.1386104729
H   H56       1.0  0.49780  0.86700  0.86000  1.0000 0.1386104729
H   H57       1.0  0.67040  0.43760  0.71240  1.0000 0.1071365196
H   H58       1.0  0.32960  0.43760  0.78760  1.0000 0.1071365196
H   H59       1.0  0.67040  0.06240  0.28760  1.0000 0.1071365196
H   H60       1.0  0.32960  0.06240  0.21240  1.0000 0.1071365196
H   H61       1.0  0.32960  0.56240  0.28760  1.0000 0.1071365196
H   H62       1.0  0.67040  0.56240  0.21240  1.0000 0.1071365196
H   H63       1.0  0.32960  0.93760  0.71240  1.0000 0.1071365196
H   H64       1.0  0.67040  0.93760  0.78760  1.0000 0.1071365196
H   H65       1.0  0.97830  0.28000  0.64470  1.0000 0.1006677132
H   H66       1.0  0.02170  0.28000  0.85530  1.0000 0.1006677132
H   H67       1.0  0.97830  0.22000  0.35530  1.0000 0.1006677132
H   H68       1.0  0.02170  0.22000  0.14470  1.0000 0.1006677132
H   H69       1.0  0.02170  0.72000  0.35530  1.0000 0.1006677132
H   H70       1.0  0.97830  0.72000  0.14470  1.0000 0.1006677132
H   H71       1.0  0.02170  0.78000  0.64470  1.0000 0.1006677132
H   H72       1.0  0.97830  0.78000  0.85530  1.0000 0.1006677132
H   H73       1.0  0.81250  0.20190  0.57410  1.0000 0.1386104729
H   H74       1.0  0.18750  0.20190  0.92590  1.0000 0.1386104729
H   H75       1.0  0.81250  0.29810  0.42590  1.0000 0.1386104729
H   H76       1.0  0.18750  0.29810  0.07410  1.0000 0.1386104729
H   H77       1.0  0.18750  0.79810  0.42590  1.0000 0.1386104729
H   H78       1.0  0.81250  0.79810  0.07410  1.0000 0.1386104729
H   H79       1.0  0.18750  0.70190  0.57410  1.0000 0.1386104729
H   H80       1.0  0.81250  0.70190  0.92590  1.0000 0.1386104729
C   C1        1.0  0.10240  0.07540  0.60288  1.0000 0.0784172011
C   C2        1.0  0.89760  0.07540  0.89712  1.0000 0.0784172011
C   C3        1.0  0.10240  0.42460  0.39712  1.0000 0.0710009684
C   C4        1.0  0.89760  0.42460  0.10288  1.0000 0.0784172011
C   C5        1.0  0.89760  0.92460  0.39712  1.0000 0.0710009684
C   C6        1.0  0.10240  0.92460  0.10288  1.0000 0.0710009684
C   C7        1.0  0.89760  0.57540  0.60288  1.0000 0.0710009684
C   C8        1.0  0.10240  0.57540  0.89712  1.0000 0.0710009684
C   C9        1.0  0.17870  0.13250  0.55696  1.0000 -0.1986712286
C   C10       1.0  0.82130  0.13250  0.94304  1.0000 -0.1986712286
C   C11       1.0  0.17870  0.36750  0.44304  1.0000 -0.1986712286
C   C12       1.0  0.82130  0.36750  0.05696  1.0000 -0.1986712286
C   C13       1.0  0.82130  0.86750  0.44304  1.0000 -0.1986712286
C   C14       1.0  0.17870  0.86750  0.05696  1.0000 -0.1986712286
C   C15       1.0  0.82130  0.63250  0.55696  1.0000 -0.1986712286
C   C16       1.0  0.17870  0.63250  0.94304  1.0000 -0.1986712286
C   C17       1.0  0.27070  0.19187  0.59078  1.0000 0.1459186729
C   C18       1.0  0.72930  0.19187  0.90922  1.0000 0.1459186729
C   C19       1.0  0.27070  0.30813  0.40922  1.0000 0.1459186729
C   C20       1.0  0.72930  0.30813  0.09078  1.0000 0.1459186729
C   C21       1.0  0.72930  0.80813  0.40922  1.0000 0.1459186729
C   C22       1.0  0.27070  0.80813  0.09078  1.0000 0.1459186729
C   C23       1.0  0.72930  0.69187  0.59078  1.0000 0.1459186729
C   C24       1.0  0.27070  0.69187  0.90922  1.0000 0.1459186729
C   C25       1.0  0.27730  0.19150  0.67022  1.0000 -0.1986712286
C   C26       1.0  0.72270  0.19150  0.82978  1.0000 -0.1986712286
C   C27       1.0  0.27730  0.30850  0.32978  1.0000 -0.1986712286
C   C28       1.0  0.72270  0.30850  0.17022  1.0000 -0.1986712286
C   C29       1.0  0.72270  0.80850  0.32978  1.0000 -0.1986712286
C   C30       1.0  0.27730  0.80850  0.17022  1.0000 -0.1986712286
C   C31       1.0  0.72270  0.69150  0.67022  1.0000 -0.1986712286
C   C32       1.0  0.27730  0.69150  0.82978  1.0000 -0.1986712286
C   C33       1.0  0.19840  0.13210  0.71171  1.0000 0.0631563607
C   C34       1.0  0.80160  0.13210  0.78829  1.0000 0.0631563607
C   C35       1.0  0.19840  0.36790  0.28829  1.0000 0.0631563607
C   C36       1.0  0.80160  0.36790  0.21171  1.0000 0.0631563607
C   C37       1.0  0.80160  0.86790  0.28829  1.0000 0.0631563607
C   C38       1.0  0.19840  0.86790  0.21171  1.0000 0.0631563607
C   C39       1.0  0.80160  0.63210  0.71171  1.0000 0.0631563607
C   C40       1.0  0.19840  0.63210  0.78829  1.0000 0.0631563607
C   C41       1.0  0.36380  0.25219  0.54451  1.0000 -0.0988552207
C   C42       1.0  0.63620  0.25219  0.95549  1.0000 -0.0988552207
C   C43       1.0  0.36380  0.24781  0.45549  1.0000 -0.0988552207
C   C44       1.0  0.63620  0.24781  0.04451  1.0000 -0.0988552207
C   C45       1.0  0.63620  0.74781  0.45549  1.0000 -0.0988552207
C   C46       1.0  0.36380  0.74781  0.04451  1.0000 -0.0988552207
C   C47       1.0  0.63620  0.75219  0.54451  1.0000 -0.0988552207
C   C48       1.0  0.36380  0.75219  0.95549  1.0000 -0.0988552207
C   C49       1.0  0.53090  0.23320  0.54281  1.0000 -0.0876613502
C   C50       1.0  0.46910  0.23320  0.95719  1.0000 -0.0876613502
C   C51       1.0  0.53090  0.26680  0.45719  1.0000 -0.0876613502
C   C52       1.0  0.46910  0.26680  0.04281  1.0000 -0.0876613502
C   C53       1.0  0.46910  0.76680  0.45719  1.0000 -0.0876613502
C   C54       1.0  0.53090  0.76680  0.04281  1.0000 -0.0876613502
C   C55       1.0  0.46910  0.73320  0.54281  1.0000 -0.0876613502
C   C56       1.0  0.53090  0.73320  0.95719  1.0000 -0.0876613502
C   C57       1.0  0.63520  0.27752  0.59640  1.0000 0.1386104729
C   C58       1.0  0.36480  0.27752  0.90360  1.0000 0.1386104729
C   C59       1.0  0.63520  0.22248  0.40360  1.0000 0.1386104729
C   C60       1.0  0.36480  0.22248  0.09640  1.0000 0.1386104729
C   C61       1.0  0.36480  0.72248  0.40360  1.0000 0.1386104729
C   C62       1.0  0.63520  0.72248  0.09640  1.0000 0.1386104729
C   C63       1.0  0.36480  0.77752  0.59640  1.0000 0.1386104729
C   C64       1.0  0.63520  0.77752  0.90360  1.0000 0.1386104729
C   C65       1.0  0.59540  0.34800  0.63973  1.0000 -0.1986712286
C   C66       1.0  0.40460  0.34800  0.86027  1.0000 -0.1986712286
C   C67       1.0  0.59540  0.15200  0.36027  1.0000 -0.1986712286
C   C68       1.0  0.40460  0.15200  0.13973  1.0000 -0.1986712286
C   C69       1.0  0.40460  0.65200  0.36027  1.0000 -0.1986712286
C   C70       1.0  0.59540  0.65200  0.13973  1.0000 -0.1986712286
C   C71       1.0  0.40460  0.84800  0.63973  1.0000 -0.1986712286
C   C72       1.0  0.59540  0.84800  0.86027  1.0000 -0.1986712286
C   C73       1.0  0.69980  0.39040  0.68260  1.0000 0.0784172011
C   C74       1.0  0.30020  0.39040  0.81740  1.0000 0.0784172011
C   C75       1.0  0.69980  0.10960  0.31740  1.0000 0.0784172011
C   C76       1.0  0.30020  0.10960  0.18260  1.0000 0.0784172011
C   C77       1.0  0.30020  0.60960  0.31740  1.0000 0.0784172011
C   C78       1.0  0.69980  0.60960  0.18260  1.0000 0.0784172011
C   C79       1.0  0.30020  0.89040  0.68260  1.0000 0.0784172011
C   C80       1.0  0.69980  0.89040  0.81740  1.0000 0.0784172011
C   C81       1.0  0.88000  0.29780  0.64350  1.0000 0.0710009684
C   C82       1.0  0.12000  0.29780  0.85650  1.0000 0.0710009684
C   C83       1.0  0.88000  0.20220  0.35650  1.0000 0.0710009684
C   C84       1.0  0.12000  0.20220  0.14350  1.0000 0.0710009684
C   C85       1.0  0.12000  0.70220  0.35650  1.0000 0.0710009684
C   C86       1.0  0.88000  0.70220  0.14350  1.0000 0.0710009684
C   C87       1.0  0.12000  0.79780  0.64350  1.0000 0.0710009684
C   C88       1.0  0.88000  0.79780  0.85650  1.0000 0.0710009684
C   C89       1.0  0.78160  0.25120  0.60058  1.0000 -0.2152175401
C   C90       1.0  0.21840  0.25120  0.89942  1.0000 -0.2152175401
C   C91       1.0  0.78160  0.24880  0.39942  1.0000 -0.2152175401
C   C92       1.0  0.21840  0.24880  0.10058  1.0000 -0.2152175401
C   C93       1.0  0.21840  0.74880  0.39942  1.0000 -0.2152175401
C   C94       1.0  0.78160  0.74880  0.10058  1.0000 -0.2152175401
C   C95       1.0  0.21840  0.75120  0.60058  1.0000 -0.2152175401
C   C96       1.0  0.78160  0.75120  0.89942  1.0000 -0.2152175401
N   N1        1.0  0.11350  0.07339  0.67893  1.0000 -0.2265754398
N   N2        1.0  0.88650  0.07339  0.82107  1.0000 -0.2265754398
N   N3        1.0  0.11350  0.42661  0.32107  1.0000 -0.2265754398
N   N4        1.0  0.88650  0.42661  0.17893  1.0000 -0.2265754398
N   N5        1.0  0.88650  0.92661  0.32107  1.0000 -0.2265754398
N   N6        1.0  0.11350  0.92661  0.17893  1.0000 -0.2265754398
N   N7        1.0  0.88650  0.57339  0.67893  1.0000 -0.2265754398
N   N8        1.0  0.11350  0.57339  0.82107  1.0000 -0.2265754398
N   N9        1.0  0.84120  0.36723  0.68374  1.0000 -0.2265754398
N   N10       1.0  0.15880  0.36723  0.81626  1.0000 -0.2265754398
N   N11       1.0  0.84120  0.13277  0.31626  1.0000 -0.2265754398
N   N12       1.0  0.15880  0.13277  0.18374  1.0000 -0.2265754398
N   N13       1.0  0.15880  0.63277  0.31626  1.0000 -0.2265754398
N   N14       1.0  0.84120  0.63277  0.18374  1.0000 -0.2265754398
N   N15       1.0  0.15880  0.86723  0.68374  1.0000 -0.2265754398
N   N16       1.0  0.84120  0.86723  0.81626  1.0000 -0.2265754398
Cl  Cl1       1.0  0.80481  0.95106  0.64002  1.0000 -0.6323819403
Cl  Cl2       1.0  0.19519  0.95106  0.85998  1.0000 -0.6323819403
Cl  Cl3       1.0  0.80481  0.54894  0.35998  1.0000 -0.6323819403
Cl  Cl4       1.0  0.19519  0.54894  0.14002  1.0000 -0.6323819403
Cl  Cl5       1.0  0.19519  0.04894  0.35998  1.0000 -0.6323819403
Cl  Cl6       1.0  0.80481  0.04894  0.14002  1.0000 -0.6323819403
Cl  Cl7       1.0  0.19519  0.45106  0.64002  1.0000 -0.6323819403
Cl  Cl8       1.0  0.80481  0.45106  0.85998  1.0000 -0.6323819403
