# DDEC6 charges by PACMAN v1.1 (https://github.com/mtap-research/PACMAN-charge/)
data_2011[Zn][nan]2[FSR]1
_chemical_formula_sum              "Zn8 H104 C112 N8 O40"
_cell_length_a       8.0585
_cell_length_b       18.9733
_cell_length_c       20.2539
_cell_angle_alpha    90
_cell_angle_beta     101.834
_cell_angle_gamma    90

_symmetry_space_group_name_H-M    "P 1"
_symmetry_Int_Tables_number       1

loop_
  _symmetry_equiv_pos_as_xyz
  'x, y, z'

loop_
  _atom_site_type_symbol
  _atom_site_label
  _atom_site_symmetry_multiplicity
  _atom_site_fract_x
  _atom_site_fract_y
  _atom_site_fract_z
  _atom_site_occupancy
  _atom_site_charge
Zn  Zn1       1.0  0.99824  0.19651  0.01159  1.0000 0.925792699
Zn  Zn2       1.0  0.60091  0.28638  0.98061  1.0000 0.9827567537
Zn  Zn3       1.0  0.00176  0.69651  0.48841  1.0000 0.925792699
Zn  Zn4       1.0  0.39909  0.78638  0.51939  1.0000 0.9827567537
Zn  Zn5       1.0  0.00176  0.80349  0.98841  1.0000 0.925792699
Zn  Zn6       1.0  0.39909  0.71362  0.01939  1.0000 0.9827567537
Zn  Zn7       1.0  0.99824  0.30349  0.51159  1.0000 0.925792699
Zn  Zn8       1.0  0.60091  0.21362  0.48061  1.0000 0.9827567537
H   H1        1.0  0.35880  0.32990  0.02910  1.0000 0.3723133926
H   H2        1.0  0.29660  0.27380  0.98660  1.0000 0.3723133926
H   H3        1.0  0.77880  0.00140  0.96320  1.0000 0.1290844438
H   H4        1.0  0.36070  0.89680  0.87480  1.0000 0.1197451196
H   H5        1.0  0.34430  0.10660  0.89760  1.0000 0.1197451196
H   H6        1.0  0.09890  0.90180  0.87720  1.0000 0.1197451196
H   H7        1.0  0.93470  0.94370  0.84540  1.0000 0.1197451196
H   H8        1.0  0.92180  0.81930  0.78860  1.0000 0.1197451196
H   H9        1.0  0.91820  0.76540  0.68600  1.0000 0.1197451196
H   H10       1.0  0.18810  0.92640  0.63410  1.0000 0.1197451196
H   H11       1.0  0.18600  0.98100  0.73570  1.0000 0.1114551418
H   H12       1.0  0.93760  0.04990  0.87580  1.0000 0.1197451196
H   H13       1.0  0.10240  0.09530  0.89640  1.0000 0.1290844438
H   H14       1.0  0.23310  0.11310  0.78070  1.0000 0.1197451196
H   H15       1.0  0.16840  0.17700  0.68060  1.0000 0.1290844438
H   H16       1.0  0.67790  0.16710  0.68900  1.0000 0.1290844438
H   H17       1.0  0.74240  0.10860  0.79030  1.0000 0.1290844438
H   H18       1.0  0.43570  0.29170  0.75420  1.0000 0.1606139813
H   H19       1.0  0.61900  0.28720  0.79880  1.0000 0.1606139813
H   H20       1.0  0.47160  0.24280  0.81790  1.0000 0.1673944046
H   H21       1.0  0.46530  0.50290  0.85720  1.0000 0.1290844438
H   H22       1.0  0.27170  0.48700  0.83210  1.0000 0.1290844438
H   H23       1.0  0.37240  0.45100  0.89790  1.0000 0.1358812352
H   H24       1.0  0.41550  0.38730  0.71880  1.0000 0.1290844438
H   H25       1.0  0.31350  0.45540  0.72900  1.0000 0.1290844438
H   H26       1.0  0.51210  0.45730  0.74330  1.0000 0.1197451196
H   H27       1.0  0.64120  0.82990  0.47090  1.0000 0.3723133926
H   H28       1.0  0.70340  0.77380  0.51340  1.0000 0.3723133926
H   H29       1.0  0.22120  0.50140  0.53680  1.0000 0.1290844438
H   H30       1.0  0.63930  0.39680  0.62520  1.0000 0.1197451196
H   H31       1.0  0.65570  0.60660  0.60240  1.0000 0.1197451196
H   H32       1.0  0.90110  0.40180  0.62280  1.0000 0.1197451196
H   H33       1.0  0.06530  0.44370  0.65460  1.0000 0.1197451196
H   H34       1.0  0.07820  0.31930  0.71140  1.0000 0.1197451196
H   H35       1.0  0.08180  0.26540  0.81400  1.0000 0.1197451196
H   H36       1.0  0.81190  0.42640  0.86590  1.0000 0.1197451196
H   H37       1.0  0.81400  0.48100  0.76430  1.0000 0.1114551418
H   H38       1.0  0.06240  0.54990  0.62420  1.0000 0.1197451196
H   H39       1.0  0.89760  0.59530  0.60360  1.0000 0.1290844438
H   H40       1.0  0.76690  0.61310  0.71930  1.0000 0.1197451196
H   H41       1.0  0.83160  0.67700  0.81940  1.0000 0.1290844438
H   H42       1.0  0.32210  0.66710  0.81100  1.0000 0.1290844438
H   H43       1.0  0.25760  0.60860  0.70970  1.0000 0.1290844438
H   H44       1.0  0.56430  0.79170  0.74580  1.0000 0.1606139813
H   H45       1.0  0.38100  0.78720  0.70120  1.0000 0.1606139813
H   H46       1.0  0.52840  0.74280  0.68210  1.0000 0.1673944046
H   H47       1.0  0.53470  0.00290  0.64280  1.0000 0.1290844438
H   H48       1.0  0.72830  0.98700  0.66790  1.0000 0.1290844438
H   H49       1.0  0.62760  0.95100  0.60210  1.0000 0.1358812352
H   H50       1.0  0.58450  0.88730  0.78120  1.0000 0.1290844438
H   H51       1.0  0.68650  0.95540  0.77100  1.0000 0.1290844438
H   H52       1.0  0.48790  0.95730  0.75670  1.0000 0.1197451196
H   H53       1.0  0.64120  0.67010  0.97090  1.0000 0.3723133926
H   H54       1.0  0.70340  0.72620  0.01340  1.0000 0.3723133926
H   H55       1.0  0.22120  0.99860  0.03680  1.0000 0.1290844438
H   H56       1.0  0.63930  0.10320  0.12520  1.0000 0.1197451196
H   H57       1.0  0.65570  0.89340  0.10240  1.0000 0.1197451196
H   H58       1.0  0.90110  0.09820  0.12280  1.0000 0.1197451196
H   H59       1.0  0.06530  0.05630  0.15460  1.0000 0.1197451196
H   H60       1.0  0.07820  0.18070  0.21140  1.0000 0.1197451196
H   H61       1.0  0.08180  0.23460  0.31400  1.0000 0.1197451196
H   H62       1.0  0.81190  0.07360  0.36590  1.0000 0.1197451196
H   H63       1.0  0.81400  0.01900  0.26430  1.0000 0.1114551418
H   H64       1.0  0.06240  0.95010  0.12420  1.0000 0.1197451196
H   H65       1.0  0.89760  0.90470  0.10360  1.0000 0.1290844438
H   H66       1.0  0.76690  0.88690  0.21930  1.0000 0.1197451196
H   H67       1.0  0.83160  0.82300  0.31940  1.0000 0.1290844438
H   H68       1.0  0.32210  0.83290  0.31100  1.0000 0.1290844438
H   H69       1.0  0.25760  0.89140  0.20970  1.0000 0.1290844438
H   H70       1.0  0.56430  0.70830  0.24580  1.0000 0.1606139813
H   H71       1.0  0.38100  0.71280  0.20120  1.0000 0.1606139813
H   H72       1.0  0.52840  0.75720  0.18210  1.0000 0.1673944046
H   H73       1.0  0.53470  0.49710  0.14280  1.0000 0.1290844438
H   H74       1.0  0.72830  0.51300  0.16790  1.0000 0.1290844438
H   H75       1.0  0.62760  0.54900  0.10210  1.0000 0.1358812352
H   H76       1.0  0.58450  0.61270  0.28120  1.0000 0.1290844438
H   H77       1.0  0.68650  0.54460  0.27100  1.0000 0.1290844438
H   H78       1.0  0.48790  0.54270  0.25670  1.0000 0.1197451196
H   H79       1.0  0.35880  0.17010  0.52910  1.0000 0.3723133926
H   H80       1.0  0.29660  0.22620  0.48660  1.0000 0.3723133926
H   H81       1.0  0.77880  0.49860  0.46320  1.0000 0.1290844438
H   H82       1.0  0.36070  0.60320  0.37480  1.0000 0.1197451196
H   H83       1.0  0.34430  0.39340  0.39760  1.0000 0.1197451196
H   H84       1.0  0.09890  0.59820  0.37720  1.0000 0.1197451196
H   H85       1.0  0.93470  0.55630  0.34540  1.0000 0.1197451196
H   H86       1.0  0.92180  0.68070  0.28860  1.0000 0.1197451196
H   H87       1.0  0.91820  0.73460  0.18600  1.0000 0.1197451196
H   H88       1.0  0.18810  0.57360  0.13410  1.0000 0.1197451196
H   H89       1.0  0.18600  0.51900  0.23570  1.0000 0.1114551418
H   H90       1.0  0.93760  0.45010  0.37580  1.0000 0.1197451196
H   H91       1.0  0.10240  0.40470  0.39640  1.0000 0.1290844438
H   H92       1.0  0.23310  0.38690  0.28070  1.0000 0.1197451196
H   H93       1.0  0.16840  0.32300  0.18060  1.0000 0.1290844438
H   H94       1.0  0.67790  0.33290  0.18900  1.0000 0.1290844438
H   H95       1.0  0.74240  0.39140  0.29030  1.0000 0.1290844438
H   H96       1.0  0.43570  0.20830  0.25420  1.0000 0.1606139813
H   H97       1.0  0.61900  0.21280  0.29880  1.0000 0.1606139813
H   H98       1.0  0.47160  0.25720  0.31790  1.0000 0.1673944046
H   H99       1.0  0.46530  0.99710  0.35720  1.0000 0.1290844438
H   H100      1.0  0.27170  0.01300  0.33210  1.0000 0.1290844438
H   H101      1.0  0.37240  0.04900  0.39790  1.0000 0.1358812352
H   H102      1.0  0.41550  0.11270  0.21880  1.0000 0.1290844438
H   H103      1.0  0.31350  0.04460  0.22900  1.0000 0.1290844438
H   H104      1.0  0.51210  0.04270  0.24330  1.0000 0.1197451196
C   C1        1.0  0.66310  0.13320  0.95510  1.0000 0.5907561828
C   C2        1.0  0.68000  0.87040  0.92950  1.0000 0.5588529755
C   C3        1.0  0.66480  0.00180  0.94210  1.0000 -0.1394823442
C   C4        1.0  0.58640  0.94050  0.92100  1.0000 -0.0101053535
C   C5        1.0  0.41250  0.93910  0.89070  1.0000 -0.216687354
C   C6        1.0  0.31750  0.00170  0.88440  1.0000 0.1865622898
C   C7        1.0  0.40360  0.06430  0.90390  1.0000 -0.2136599447
C   C8        1.0  0.57770  0.06520  0.93280  1.0000 -0.0232834583
C   C9        1.0  0.05220  0.93610  0.84280  1.0000 -0.1610969759
C   C10       1.0  0.05740  0.90470  0.77350  1.0000 0.1114551418
C   C11       1.0  0.97610  0.84080  0.75760  1.0000 -0.1610969759
C   C12       1.0  0.97430  0.80810  0.69590  1.0000 -0.0934218343
C   C13       1.0  0.05620  0.83900  0.64900  1.0000 -0.0458797484
C   C14       1.0  0.13470  0.90450  0.66520  1.0000 -0.100491648
C   C15       1.0  0.13450  0.93730  0.72630  1.0000 -0.1610969759
C   C16       1.0  0.07400  0.80210  0.58580  1.0000 0.5774996926
C   C17       1.0  0.04100  0.06400  0.86200  1.0000 -0.172965097
C   C18       1.0  0.99450  0.10430  0.79650  1.0000 0.1197451196
C   C19       1.0  0.12090  0.12470  0.76260  1.0000 -0.1610969759
C   C20       1.0  0.08250  0.16230  0.70190  1.0000 -0.100491648
C   C21       1.0  0.91350  0.17750  0.67420  1.0000 -0.0379897186
C   C22       1.0  0.79070  0.15680  0.70770  1.0000 -0.100491648
C   C23       1.0  0.82880  0.12120  0.76840  1.0000 -0.1549606274
C   C24       1.0  0.87140  0.21740  0.60810  1.0000 0.5971028854
C   C25       1.0  0.45900  0.34790  0.84290  1.0000 0.513973539
C   C26       1.0  0.50040  0.28670  0.79940  1.0000 -0.5799368869
C   C27       1.0  0.37860  0.46740  0.85360  1.0000 -0.3145009528
C   C28       1.0  0.41470  0.42890  0.74570  1.0000 -0.3333018447
C   C29       1.0  0.33690  0.63320  0.54490  1.0000 0.5907561828
C   C30       1.0  0.32000  0.37040  0.57050  1.0000 0.5588529755
C   C31       1.0  0.33520  0.50180  0.55790  1.0000 -0.1394823442
C   C32       1.0  0.41360  0.44050  0.57900  1.0000 -0.0101053535
C   C33       1.0  0.58750  0.43910  0.60930  1.0000 -0.216687354
C   C34       1.0  0.68250  0.50170  0.61560  1.0000 0.1865622898
C   C35       1.0  0.59640  0.56430  0.59610  1.0000 -0.2136599447
C   C36       1.0  0.42230  0.56520  0.56720  1.0000 -0.0232834583
C   C37       1.0  0.94780  0.43610  0.65720  1.0000 -0.1610969759
C   C38       1.0  0.94260  0.40470  0.72650  1.0000 0.1114551418
C   C39       1.0  0.02390  0.34080  0.74240  1.0000 -0.1610969759
C   C40       1.0  0.02570  0.30810  0.80410  1.0000 -0.0934218343
C   C41       1.0  0.94380  0.33900  0.85100  1.0000 -0.0458797484
C   C42       1.0  0.86530  0.40450  0.83480  1.0000 -0.100491648
C   C43       1.0  0.86550  0.43730  0.77370  1.0000 -0.1610969759
C   C44       1.0  0.92600  0.30210  0.91420  1.0000 0.5774996926
C   C45       1.0  0.95900  0.56400  0.63800  1.0000 -0.172965097
C   C46       1.0  0.00550  0.60430  0.70350  1.0000 0.1197451196
C   C47       1.0  0.87910  0.62470  0.73740  1.0000 -0.1610969759
C   C48       1.0  0.91750  0.66230  0.79810  1.0000 -0.100491648
C   C49       1.0  0.08650  0.67750  0.82580  1.0000 -0.0379897186
C   C50       1.0  0.20930  0.65680  0.79230  1.0000 -0.100491648
C   C51       1.0  0.17120  0.62120  0.73160  1.0000 -0.1549606274
C   C52       1.0  0.12860  0.71740  0.89190  1.0000 0.5971028854
C   C53       1.0  0.54100  0.84790  0.65710  1.0000 0.513973539
C   C54       1.0  0.49960  0.78670  0.70060  1.0000 -0.5799368869
C   C55       1.0  0.62140  0.96740  0.64640  1.0000 -0.3145009528
C   C56       1.0  0.58530  0.92890  0.75430  1.0000 -0.3333018447
C   C57       1.0  0.33690  0.86680  0.04490  1.0000 0.5907561828
C   C58       1.0  0.32000  0.12960  0.07050  1.0000 0.5588529755
C   C59       1.0  0.33520  0.99820  0.05790  1.0000 -0.1394823442
C   C60       1.0  0.41360  0.05950  0.07900  1.0000 -0.0101053535
C   C61       1.0  0.58750  0.06090  0.10930  1.0000 -0.216687354
C   C62       1.0  0.68250  0.99830  0.11560  1.0000 0.1865622898
C   C63       1.0  0.59640  0.93570  0.09610  1.0000 -0.2136599447
C   C64       1.0  0.42230  0.93480  0.06720  1.0000 -0.0232834583
C   C65       1.0  0.94780  0.06390  0.15720  1.0000 -0.1610969759
C   C66       1.0  0.94260  0.09530  0.22650  1.0000 0.1114551418
C   C67       1.0  0.02390  0.15920  0.24240  1.0000 -0.1610969759
C   C68       1.0  0.02570  0.19190  0.30410  1.0000 -0.0934218343
C   C69       1.0  0.94380  0.16100  0.35100  1.0000 -0.0458797484
C   C70       1.0  0.86530  0.09550  0.33480  1.0000 -0.100491648
C   C71       1.0  0.86550  0.06270  0.27370  1.0000 -0.1610969759
C   C72       1.0  0.92600  0.19790  0.41420  1.0000 0.5774996926
C   C73       1.0  0.95900  0.93600  0.13800  1.0000 -0.172965097
C   C74       1.0  0.00550  0.89570  0.20350  1.0000 0.1197451196
C   C75       1.0  0.87910  0.87530  0.23740  1.0000 -0.1610969759
C   C76       1.0  0.91750  0.83770  0.29810  1.0000 -0.100491648
C   C77       1.0  0.08650  0.82250  0.32580  1.0000 -0.0379897186
C   C78       1.0  0.20930  0.84320  0.29230  1.0000 -0.100491648
C   C79       1.0  0.17120  0.87880  0.23160  1.0000 -0.1549606274
C   C80       1.0  0.12860  0.78260  0.39190  1.0000 0.5971028854
C   C81       1.0  0.54100  0.65210  0.15710  1.0000 0.513973539
C   C82       1.0  0.49960  0.71330  0.20060  1.0000 -0.5799368869
C   C83       1.0  0.62140  0.53260  0.14640  1.0000 -0.3145009528
C   C84       1.0  0.58530  0.57110  0.25430  1.0000 -0.3333018447
C   C85       1.0  0.66310  0.36680  0.45510  1.0000 0.5907561828
C   C86       1.0  0.68000  0.62960  0.42950  1.0000 0.5588529755
C   C87       1.0  0.66480  0.49820  0.44210  1.0000 -0.1394823442
C   C88       1.0  0.58640  0.55950  0.42100  1.0000 -0.0101053535
C   C89       1.0  0.41250  0.56090  0.39070  1.0000 -0.216687354
C   C90       1.0  0.31750  0.49830  0.38440  1.0000 0.1865622898
C   C91       1.0  0.40360  0.43570  0.40390  1.0000 -0.2136599447
C   C92       1.0  0.57770  0.43480  0.43280  1.0000 -0.0232834583
C   C93       1.0  0.05220  0.56390  0.34280  1.0000 -0.1610969759
C   C94       1.0  0.05740  0.59530  0.27350  1.0000 0.1114551418
C   C95       1.0  0.97610  0.65920  0.25760  1.0000 -0.1610969759
C   C96       1.0  0.97430  0.69190  0.19590  1.0000 -0.0934218343
C   C97       1.0  0.05620  0.66100  0.14900  1.0000 -0.0458797484
C   C98       1.0  0.13470  0.59550  0.16520  1.0000 -0.100491648
C   C99       1.0  0.13450  0.56270  0.22630  1.0000 -0.1610969759
C   C100      1.0  0.07400  0.69790  0.08580  1.0000 0.5774996926
C   C101      1.0  0.04100  0.43600  0.36200  1.0000 -0.172965097
C   C102      1.0  0.99450  0.39570  0.29650  1.0000 0.1197451196
C   C103      1.0  0.12090  0.37530  0.26260  1.0000 -0.1610969759
C   C104      1.0  0.08250  0.33770  0.20190  1.0000 -0.100491648
C   C105      1.0  0.91350  0.32250  0.17420  1.0000 -0.0379897186
C   C106      1.0  0.79070  0.34320  0.20770  1.0000 -0.100491648
C   C107      1.0  0.82880  0.37880  0.26840  1.0000 -0.1549606274
C   C108      1.0  0.87140  0.28260  0.10810  1.0000 0.5971028854
C   C109      1.0  0.45900  0.15210  0.34290  1.0000 0.513973539
C   C110      1.0  0.50040  0.21330  0.29940  1.0000 -0.5799368869
C   C111      1.0  0.37860  0.03260  0.35360  1.0000 -0.3145009528
C   C112      1.0  0.41470  0.07110  0.24570  1.0000 -0.3333018447
N   N1        1.0  0.14360  0.00190  0.85840  1.0000 -0.0829801212
N   N2        1.0  0.42010  0.40920  0.81410  1.0000 -0.0232834583
N   N3        1.0  0.85640  0.50190  0.64160  1.0000 -0.0829801212
N   N4        1.0  0.57990  0.90920  0.68590  1.0000 -0.0232834583
N   N5        1.0  0.85640  0.99810  0.14160  1.0000 -0.0829801212
N   N6        1.0  0.57990  0.59080  0.18590  1.0000 -0.0232834583
N   N7        1.0  0.14360  0.49810  0.35840  1.0000 -0.0829801212
N   N8        1.0  0.42010  0.09080  0.31410  1.0000 -0.0232834583
O   O1        1.0  0.81720  0.13020  0.98350  1.0000 -0.5610207568
O   O2        1.0  0.37940  0.28790  0.01730  1.0000 -0.6407282303
O   O3        1.0  0.57450  0.18800  0.94700  1.0000 -0.5739210497
O   O4        1.0  0.82240  0.87310  0.96970  1.0000 -0.5799368869
O   O5        1.0  0.61720  0.81840  0.89770  1.0000 -0.5085718284
O   O6        1.0  0.96670  0.75250  0.56580  1.0000 -0.5739210497
O   O7        1.0  0.18620  0.82000  0.55600  1.0000 -0.5799368869
O   O8        1.0  0.99120  0.24850  0.58980  1.0000 -0.549784566
O   O9        1.0  0.72410  0.21390  0.57560  1.0000 -0.5395993243
O   O10       1.0  0.45290  0.33700  0.90070  1.0000 -0.5085718284
O   O11       1.0  0.18280  0.63020  0.51650  1.0000 -0.5610207568
O   O12       1.0  0.62060  0.78790  0.48270  1.0000 -0.6407282303
O   O13       1.0  0.42550  0.68800  0.55300  1.0000 -0.5739210497
O   O14       1.0  0.17760  0.37310  0.53030  1.0000 -0.5799368869
O   O15       1.0  0.38280  0.31840  0.60230  1.0000 -0.5085718284
O   O16       1.0  0.03330  0.25250  0.93420  1.0000 -0.5739210497
O   O17       1.0  0.81380  0.32000  0.94400  1.0000 -0.5799368869
O   O18       1.0  0.00880  0.74850  0.91020  1.0000 -0.549784566
O   O19       1.0  0.27590  0.71390  0.92440  1.0000 -0.5395993243
O   O20       1.0  0.54710  0.83700  0.59930  1.0000 -0.5085718284
O   O21       1.0  0.18280  0.86980  0.01650  1.0000 -0.5610207568
O   O22       1.0  0.62060  0.71210  0.98270  1.0000 -0.6407282303
O   O23       1.0  0.42550  0.81200  0.05300  1.0000 -0.5739210497
O   O24       1.0  0.17760  0.12690  0.03030  1.0000 -0.5799368869
O   O25       1.0  0.38280  0.18160  0.10230  1.0000 -0.5085718284
O   O26       1.0  0.03330  0.24750  0.43420  1.0000 -0.5739210497
O   O27       1.0  0.81380  0.18000  0.44400  1.0000 -0.5799368869
O   O28       1.0  0.00880  0.75150  0.41020  1.0000 -0.549784566
O   O29       1.0  0.27590  0.78610  0.42440  1.0000 -0.5395993243
O   O30       1.0  0.54710  0.66300  0.09930  1.0000 -0.5085718284
O   O31       1.0  0.81720  0.36980  0.48350  1.0000 -0.5610207568
O   O32       1.0  0.37940  0.21210  0.51730  1.0000 -0.6407282303
O   O33       1.0  0.57450  0.31200  0.44700  1.0000 -0.5739210497
O   O34       1.0  0.82240  0.62690  0.46970  1.0000 -0.5799368869
O   O35       1.0  0.61720  0.68160  0.39770  1.0000 -0.5085718284
O   O36       1.0  0.96670  0.74750  0.06580  1.0000 -0.5739210497
O   O37       1.0  0.18620  0.68000  0.05600  1.0000 -0.5799368869
O   O38       1.0  0.99120  0.25150  0.08980  1.0000 -0.549784566
O   O39       1.0  0.72410  0.28610  0.07560  1.0000 -0.5395993243
O   O40       1.0  0.45290  0.16300  0.40070  1.0000 -0.5085718284
