# DDEC6 charges by PACMAN v1.1 (https://github.com/mtap-research/PACMAN-charge/)
data_2011[In][nan]3[FSR]1
_chemical_formula_sum              "In8 H64 C112 O48"
_cell_length_a       25.3175
_cell_length_b       25.1822
_cell_length_c       13.9668
_cell_angle_alpha    74.4784
_cell_angle_beta     73.4116
_cell_angle_gamma    32.11

_symmetry_space_group_name_H-M    "P 1"
_symmetry_Int_Tables_number       1

loop_
  _symmetry_equiv_pos_as_xyz
  'x, y, z'

loop_
  _atom_site_type_symbol
  _atom_site_label
  _atom_site_symmetry_multiplicity
  _atom_site_fract_x
  _atom_site_fract_y
  _atom_site_fract_z
  _atom_site_occupancy
  _atom_site_charge
In  In1       1.0  0.62500  0.12500  0.12500  1.0000 1.5173829578
In  In2       1.0  0.12500  0.62500  0.12500  1.0000 1.5173829578
In  In3       1.0  0.12500  0.12500  0.62500  1.0000 1.5173829578
In  In4       1.0  0.12500  0.12500  0.12500  1.0000 1.5173829578
In  In5       1.0  0.88881  0.88881  0.11119  1.0000 1.5173829578
In  In6       1.0  0.11119  0.11119  0.88881  1.0000 1.5173829578
In  In7       1.0  0.36119  0.36119  0.13881  1.0000 1.5173829578
In  In8       1.0  0.13881  0.13881  0.36119  1.0000 1.5173829578
H   H1        1.0  0.34230  0.81830  0.62490  1.0000 0.1394281488
H   H2        1.0  0.81830  0.34230  0.21450  1.0000 0.1394281488
H   H3        1.0  0.62490  0.21450  0.34230  1.0000 0.1394281488
H   H4        1.0  0.21450  0.62490  0.81830  1.0000 0.1394281488
H   H5        1.0  0.90770  0.43170  0.62510  1.0000 0.1394281488
H   H6        1.0  0.43170  0.90770  0.03550  1.0000 0.1394281488
H   H7        1.0  0.62510  0.03550  0.90770  1.0000 0.1394281488
H   H8        1.0  0.03550  0.62510  0.43170  1.0000 0.1394281488
H   H9        1.0  0.29580  0.80540  0.92300  1.0000 0.13298937
H   H10       1.0  0.80540  0.29580  0.97580  1.0000 0.13298937
H   H11       1.0  0.92300  0.97580  0.29580  1.0000 0.13298937
H   H12       1.0  0.97580  0.92300  0.80540  1.0000 0.13298937
H   H13       1.0  0.95420  0.44460  0.32700  1.0000 0.13298937
H   H14       1.0  0.44460  0.95420  0.27420  1.0000 0.13298937
H   H15       1.0  0.32700  0.27420  0.95420  1.0000 0.13298937
H   H16       1.0  0.27420  0.32700  0.44460  1.0000 0.13298937
H   H17       1.0  0.37210  0.59030  0.83090  1.0000 0.1394281488
H   H18       1.0  0.59030  0.37210  0.20670  1.0000 0.1394281488
H   H19       1.0  0.83090  0.20670  0.37210  1.0000 0.1394281488
H   H20       1.0  0.20670  0.83090  0.59030  1.0000 0.1394281488
H   H21       1.0  0.87790  0.65970  0.41910  1.0000 0.1394281488
H   H22       1.0  0.65970  0.87790  0.04330  1.0000 0.1394281488
H   H23       1.0  0.41910  0.04330  0.87790  1.0000 0.1394281488
H   H24       1.0  0.04330  0.41910  0.65970  1.0000 0.1394281488
H   H25       1.0  0.37170  0.49970  0.92050  1.0000 0.1394281488
H   H26       1.0  0.49970  0.37170  0.20810  1.0000 0.1394281488
H   H27       1.0  0.92050  0.20810  0.37170  1.0000 0.1394281488
H   H28       1.0  0.20810  0.92050  0.49970  1.0000 0.1394281488
H   H29       1.0  0.87830  0.75030  0.32950  1.0000 0.1394281488
H   H30       1.0  0.75030  0.87830  0.04190  1.0000 0.1394281488
H   H31       1.0  0.32950  0.04190  0.87830  1.0000 0.1394281488
H   H32       1.0  0.04190  0.32950  0.75030  1.0000 0.1394281488
H   H33       1.0  0.66720  0.26280  0.93040  1.0000 0.1394281488
H   H34       1.0  0.26280  0.66720  0.13960  1.0000 0.1394281488
H   H35       1.0  0.93040  0.13960  0.66720  1.0000 0.1394281488
H   H36       1.0  0.13960  0.93040  0.26280  1.0000 0.1394281488
H   H37       1.0  0.58280  0.98720  0.31960  1.0000 0.1394281488
H   H38       1.0  0.98720  0.58280  0.11040  1.0000 0.1394281488
H   H39       1.0  0.31960  0.11040  0.58280  1.0000 0.1394281488
H   H40       1.0  0.11040  0.31960  0.98720  1.0000 0.1394281488
H   H41       1.0  0.45690  0.65270  0.62430  1.0000 0.1482549233
H   H42       1.0  0.65270  0.45690  0.26610  1.0000 0.1482549233
H   H43       1.0  0.62430  0.26610  0.45690  1.0000 0.1482549233
H   H44       1.0  0.26610  0.62430  0.65270  1.0000 0.1482549233
H   H45       1.0  0.79310  0.59730  0.62570  1.0000 0.1482549233
H   H46       1.0  0.59730  0.79310  0.98390  1.0000 0.1482549233
H   H47       1.0  0.62570  0.98390  0.79310  1.0000 0.1482549233
H   H48       1.0  0.98390  0.62570  0.59730  1.0000 0.1482549233
H   H49       1.0  0.66760  0.35200  0.83680  1.0000 0.1482549233
H   H50       1.0  0.35200  0.66760  0.14360  1.0000 0.1482549233
H   H51       1.0  0.83680  0.14360  0.66760  1.0000 0.1482549233
H   H52       1.0  0.14360  0.83680  0.35200  1.0000 0.1482549233
H   H53       1.0  0.58240  0.89800  0.41320  1.0000 0.1482549233
H   H54       1.0  0.89800  0.58240  0.10640  1.0000 0.1482549233
H   H55       1.0  0.41320  0.10640  0.58240  1.0000 0.1482549233
H   H56       1.0  0.10640  0.41320  0.89800  1.0000 0.1482549233
H   H57       1.0  0.41610  0.63650  0.91910  1.0000 0.13298937
H   H58       1.0  0.63650  0.41610  0.02830  1.0000 0.13298937
H   H59       1.0  0.91910  0.02830  0.41610  1.0000 0.13298937
H   H60       1.0  0.02830  0.91910  0.63650  1.0000 0.13298937
H   H61       1.0  0.83390  0.61350  0.33090  1.0000 0.13298937
H   H62       1.0  0.61350  0.83390  0.22170  1.0000 0.13298937
H   H63       1.0  0.33090  0.22170  0.83390  1.0000 0.13298937
H   H64       1.0  0.22170  0.33090  0.61350  1.0000 0.13298937
C   C1        1.0  0.23112  0.93772  0.77328  1.0000 0.5980369977
C   C2        1.0  0.93772  0.23112  0.05788  1.0000 0.5980369977
C   C3        1.0  0.77328  0.05788  0.23112  1.0000 0.5980369977
C   C4        1.0  0.05788  0.77328  0.93772  1.0000 0.5980369977
C   C5        1.0  0.01888  0.31228  0.47672  1.0000 0.5980369977
C   C6        1.0  0.31228  0.01888  0.19212  1.0000 0.5980369977
C   C7        1.0  0.47672  0.19212  0.01888  1.0000 0.5980369977
C   C8        1.0  0.19212  0.47672  0.31228  1.0000 0.5980369977
C   C9        1.0  0.35528  0.78308  0.68492  1.0000 -0.0600526616
C   C10       1.0  0.78308  0.35528  0.17672  1.0000 -0.0600526616
C   C11       1.0  0.68492  0.17672  0.35528  1.0000 -0.0600526616
C   C12       1.0  0.17672  0.68492  0.78308  1.0000 -0.0600526616
C   C13       1.0  0.89472  0.46692  0.56508  1.0000 -0.0600526616
C   C14       1.0  0.46692  0.89472  0.07328  1.0000 -0.0600526616
C   C15       1.0  0.56508  0.07328  0.89472  1.0000 -0.0600526616
C   C16       1.0  0.07328  0.56508  0.46692  1.0000 -0.0600526616
C   C17       1.0  0.32815  0.77515  0.86225  1.0000 -0.0600526616
C   C18       1.0  0.77515  0.32815  0.03445  1.0000 -0.0600526616
C   C19       1.0  0.86225  0.03445  0.32815  1.0000 -0.0600526616
C   C20       1.0  0.03445  0.86225  0.77515  1.0000 -0.0600526616
C   C21       1.0  0.92185  0.47485  0.38775  1.0000 -0.0600526616
C   C22       1.0  0.47485  0.92185  0.21555  1.0000 -0.0600526616
C   C23       1.0  0.38775  0.21555  0.92185  1.0000 -0.0600526616
C   C24       1.0  0.21555  0.38775  0.47485  1.0000 -0.0600526616
C   C25       1.0  0.51966  0.37166  0.93814  1.0000 -0.037623809
C   C26       1.0  0.37166  0.51966  0.17054  1.0000 -0.037623809
C   C27       1.0  0.93814  0.17054  0.51966  1.0000 -0.037623809
C   C28       1.0  0.17054  0.93814  0.37166  1.0000 -0.037623809
C   C29       1.0  0.73034  0.87834  0.31186  1.0000 -0.037623809
C   C30       1.0  0.87834  0.73034  0.07946  1.0000 -0.037623809
C   C31       1.0  0.31186  0.07946  0.73034  1.0000 -0.037623809
C   C32       1.0  0.07946  0.31186  0.87834  1.0000 -0.037623809
C   C33       1.0  0.51947  0.48047  0.82773  1.0000 0.2496050808
C   C34       1.0  0.48047  0.51947  0.17233  1.0000 0.2496050808
C   C35       1.0  0.82773  0.17233  0.51947  1.0000 0.2496050808
C   C36       1.0  0.17233  0.82773  0.48047  1.0000 0.2496050808
C   C37       1.0  0.73053  0.76953  0.42227  1.0000 0.2496050808
C   C38       1.0  0.76953  0.73053  0.07767  1.0000 0.2496050808
C   C39       1.0  0.42227  0.07767  0.73053  1.0000 0.2496050808
C   C40       1.0  0.07767  0.42227  0.76953  1.0000 0.2496050808
C   C41       1.0  0.43126  0.52426  0.85154  1.0000 -0.1938717753
C   C42       1.0  0.52426  0.43126  0.19294  1.0000 -0.1938717753
C   C43       1.0  0.85154  0.19294  0.43126  1.0000 -0.1938717753
C   C44       1.0  0.19294  0.85154  0.52426  1.0000 -0.1938717753
C   C45       1.0  0.81874  0.72574  0.39846  1.0000 -0.1938717753
C   C46       1.0  0.72574  0.81874  0.05706  1.0000 -0.1938717753
C   C47       1.0  0.39846  0.05706  0.81874  1.0000 -0.1938717753
C   C48       1.0  0.05706  0.39846  0.72574  1.0000 -0.1938717753
C   C49       1.0  0.30510  0.83010  0.77350  1.0000 -0.037623809
C   C50       1.0  0.83010  0.30510  0.09130  1.0000 -0.037623809
C   C51       1.0  0.77350  0.09130  0.30510  1.0000 -0.037623809
C   C52       1.0  0.09130  0.77350  0.83010  1.0000 -0.037623809
C   C53       1.0  0.94490  0.41990  0.47650  1.0000 -0.037623809
C   C54       1.0  0.41990  0.94490  0.15870  1.0000 -0.037623809
C   C55       1.0  0.47650  0.15870  0.94490  1.0000 -0.037623809
C   C56       1.0  0.15870  0.47650  0.41990  1.0000 -0.037623809
C   C57       1.0  0.43090  0.47050  0.90550  1.0000 -0.0600526616
C   C58       1.0  0.47050  0.43090  0.19310  1.0000 -0.0600526616
C   C59       1.0  0.90550  0.19310  0.43090  1.0000 -0.0600526616
C   C60       1.0  0.19310  0.90550  0.47050  1.0000 -0.0600526616
C   C61       1.0  0.81910  0.77950  0.34450  1.0000 -0.0600526616
C   C62       1.0  0.77950  0.81910  0.05690  1.0000 -0.0600526616
C   C63       1.0  0.34450  0.05690  0.81910  1.0000 -0.0600526616
C   C64       1.0  0.05690  0.34450  0.77950  1.0000 -0.0600526616
C   C65       1.0  0.51871  0.31471  0.99929  1.0000 0.5810987509
C   C66       1.0  0.31471  0.51871  0.16729  1.0000 0.5810987509
C   C67       1.0  0.99929  0.16729  0.51871  1.0000 0.5810987509
C   C68       1.0  0.16729  0.99929  0.31471  1.0000 0.5810987509
C   C69       1.0  0.73129  0.93529  0.25071  1.0000 0.5810987509
C   C70       1.0  0.93529  0.73129  0.08271  1.0000 0.5810987509
C   C71       1.0  0.25071  0.08271  0.73129  1.0000 0.5810987509
C   C72       1.0  0.08271  0.25071  0.93529  1.0000 0.5810987509
C   C73       1.0  0.60748  0.32908  0.91052  1.0000 -0.0708001519
C   C74       1.0  0.32908  0.60748  0.15292  1.0000 -0.0708001519
C   C75       1.0  0.91052  0.15292  0.60748  1.0000 -0.0708001519
C   C76       1.0  0.15292  0.91052  0.32908  1.0000 -0.0708001519
C   C77       1.0  0.64252  0.92092  0.33948  1.0000 -0.0708001519
C   C78       1.0  0.92092  0.64252  0.09708  1.0000 -0.0708001519
C   C79       1.0  0.33948  0.09708  0.64252  1.0000 -0.0708001519
C   C80       1.0  0.09708  0.33948  0.92092  1.0000 -0.0708001519
C   C81       1.0  0.42492  0.68352  0.68468  1.0000 -0.1938717753
C   C82       1.0  0.68352  0.42492  0.20688  1.0000 -0.1938717753
C   C83       1.0  0.68468  0.20688  0.42492  1.0000 -0.1938717753
C   C84       1.0  0.20688  0.68468  0.68352  1.0000 -0.1938717753
C   C85       1.0  0.82508  0.56648  0.56532  1.0000 -0.1938717753
C   C86       1.0  0.56648  0.82508  0.04312  1.0000 -0.1938717753
C   C87       1.0  0.56532  0.04312  0.82508  1.0000 -0.1938717753
C   C88       1.0  0.04312  0.56532  0.56648  1.0000 -0.1938717753
C   C89       1.0  0.60798  0.38198  0.85562  1.0000 -0.1957341425
C   C90       1.0  0.38198  0.60798  0.15442  1.0000 -0.1938717753
C   C91       1.0  0.85562  0.15442  0.60798  1.0000 -0.1938717753
C   C92       1.0  0.15442  0.85562  0.38198  1.0000 -0.1957341425
C   C93       1.0  0.64202  0.86802  0.39438  1.0000 -0.1938717753
C   C94       1.0  0.86802  0.64202  0.09558  1.0000 -0.1957341425
C   C95       1.0  0.39438  0.09558  0.64202  1.0000 -0.1938717753
C   C96       1.0  0.09558  0.39438  0.86802  1.0000 -0.1957341425
C   C97       1.0  0.44668  0.63108  0.77052  1.0000 0.2436742045
C   C98       1.0  0.63108  0.44668  0.15172  1.0000 0.2436742045
C   C99       1.0  0.77052  0.15172  0.44668  1.0000 0.2436742045
C   C100      1.0  0.15172  0.77052  0.63108  1.0000 0.2436742045
C   C101      1.0  0.80332  0.61892  0.47948  1.0000 0.2436742045
C   C102      1.0  0.61892  0.80332  0.09828  1.0000 0.2436742045
C   C103      1.0  0.47948  0.09828  0.80332  1.0000 0.2436742045
C   C104      1.0  0.09828  0.47948  0.61892  1.0000 0.2436742045
C   C105      1.0  0.40010  0.67410  0.85990  1.0000 -0.2154179283
C   C106      1.0  0.67410  0.40010  0.06590  1.0000 -0.2107861517
C   C107      1.0  0.85990  0.06590  0.40010  1.0000 -0.2107861517
C   C108      1.0  0.06590  0.85990  0.67410  1.0000 -0.2107861517
C   C109      1.0  0.84990  0.57590  0.39010  1.0000 -0.2107861517
C   C110      1.0  0.57590  0.84990  0.18410  1.0000 -0.2107861517
C   C111      1.0  0.39010  0.18410  0.84990  1.0000 -0.2107861517
C   C112      1.0  0.18410  0.39010  0.57590  1.0000 -0.2107861517
O   O1        1.0  0.76206  0.01444  0.03636  1.0000 -0.8994872339
O   O2        1.0  0.01444  0.76206  0.18714  1.0000 -0.8994872339
O   O3        1.0  0.03636  0.18714  0.76206  1.0000 -0.8879521557
O   O4        1.0  0.18714  0.03636  0.01444  1.0000 -0.8994872339
O   O5        1.0  0.48794  0.23556  0.21364  1.0000 -0.8879521557
O   O6        1.0  0.23556  0.48794  0.06286  1.0000 -0.8879521557
O   O7        1.0  0.21364  0.06286  0.48794  1.0000 -0.8994872339
O   O8        1.0  0.06286  0.21364  0.23556  1.0000 -0.8879521557
O   O9        1.0  0.59749  0.23057  0.03875  1.0000 -0.5159862407
O   O10       1.0  0.23057  0.59749  0.13319  1.0000 -0.5159862407
O   O11       1.0  0.03875  0.13319  0.59749  1.0000 -0.5159862407
O   O12       1.0  0.13319  0.03875  0.23057  1.0000 -0.5159862407
O   O13       1.0  0.65251  0.01943  0.21125  1.0000 -0.5159862407
O   O14       1.0  0.01943  0.65251  0.11681  1.0000 -0.5159862407
O   O15       1.0  0.21125  0.11681  0.65251  1.0000 -0.5159862407
O   O16       1.0  0.11681  0.21125  0.01943  1.0000 -0.5159862407
O   O17       1.0  0.44063  0.35197  0.00983  1.0000 -0.5298851796
O   O18       1.0  0.35197  0.44063  0.19757  1.0000 -0.5298851796
O   O19       1.0  0.00983  0.19757  0.44063  1.0000 -0.5298851796
O   O20       1.0  0.19757  0.00983  0.35197  1.0000 -0.5298851796
O   O21       1.0  0.80937  0.89803  0.24017  1.0000 -0.5298851796
O   O22       1.0  0.89803  0.80937  0.05243  1.0000 -0.5298851796
O   O23       1.0  0.24017  0.05243  0.80937  1.0000 -0.5298851796
O   O24       1.0  0.05243  0.24017  0.89803  1.0000 -0.5298851796
O   O25       1.0  0.18385  0.97819  0.85631  1.0000 -0.5096193396
O   O26       1.0  0.97819  0.18385  0.98165  1.0000 -0.5096193396
O   O27       1.0  0.85631  0.98165  0.18385  1.0000 -0.5096193396
O   O28       1.0  0.98165  0.85631  0.97819  1.0000 -0.5096193396
O   O29       1.0  0.06615  0.27181  0.39369  1.0000 -0.5096193396
O   O30       1.0  0.27181  0.06615  0.26835  1.0000 -0.5096193396
O   O31       1.0  0.39369  0.26835  0.06615  1.0000 -0.5096193396
O   O32       1.0  0.26835  0.39369  0.27181  1.0000 -0.5096193396
O   O33       1.0  0.22416  0.97708  0.69072  1.0000 -0.5298851796
O   O34       1.0  0.97708  0.22416  0.10804  1.0000 -0.5298851796
O   O35       1.0  0.69072  0.10804  0.22416  1.0000 -0.5298851796
O   O36       1.0  0.10804  0.69072  0.97708  1.0000 -0.5298851796
O   O37       1.0  0.02584  0.27292  0.55928  1.0000 -0.5298851796
O   O38       1.0  0.27292  0.02584  0.14196  1.0000 -0.5298851796
O   O39       1.0  0.55928  0.14196  0.02584  1.0000 -0.5298851796
O   O40       1.0  0.14196  0.55928  0.27292  1.0000 -0.5298851796
O   O41       1.0  0.52489  0.52949  0.76731  1.0000 -0.2107861517
O   O42       1.0  0.52949  0.52489  0.17831  1.0000 -0.2107861517
O   O43       1.0  0.76731  0.17831  0.52489  1.0000 -0.2107861517
O   O44       1.0  0.17831  0.76731  0.52949  1.0000 -0.2107861517
O   O45       1.0  0.72511  0.72051  0.48269  1.0000 -0.2107861517
O   O46       1.0  0.72051  0.72511  0.07169  1.0000 -0.2107861517
O   O47       1.0  0.48269  0.07169  0.72511  1.0000 -0.2107861517
O   O48       1.0  0.07169  0.48269  0.72051  1.0000 -0.2107861517
