# DDEC6 charges by PACMAN v1.1 (https://github.com/mtap-research/PACMAN-charge/)
data_2011[Co][dia]3[FSR]4
_chemical_formula_sum              "Co2 H56 C92 S8 N20 O16"
_cell_length_a       19.474
_cell_length_b       18.328
_cell_length_c       14.5371
_cell_angle_alpha    71.6217
_cell_angle_beta     63.2721
_cell_angle_gamma    45.1061

_symmetry_space_group_name_H-M    "P 1"
_symmetry_Int_Tables_number       1

loop_
  _symmetry_equiv_pos_as_xyz
  'x, y, z'

loop_
  _atom_site_type_symbol
  _atom_site_label
  _atom_site_symmetry_multiplicity
  _atom_site_fract_x
  _atom_site_fract_y
  _atom_site_fract_z
  _atom_site_occupancy
  _atom_site_charge
Co  Co1       1.0  0.50000  0.50000  0.50000  1.0000 0.6363614291
Co  Co2       1.0  0.75000  0.75000  0.75000  1.0000 0.6363614291
H   H1        1.0  0.69440  0.14500  0.66640  1.0000 0.1409812267
H   H2        1.0  0.14500  0.69440  0.49420  1.0000 0.1409812267
H   H3        1.0  0.49420  0.66640  0.14500  1.0000 0.1409812267
H   H4        1.0  0.66640  0.49420  0.69440  1.0000 0.1409812267
H   H5        1.0  0.55560  0.10500  0.58360  1.0000 0.1409812267
H   H6        1.0  0.10500  0.55560  0.75580  1.0000 0.1409812267
H   H7        1.0  0.75580  0.58360  0.10500  1.0000 0.1409812267
H   H8        1.0  0.58360  0.75580  0.55560  1.0000 0.1409812267
H   H9        1.0  0.67160  0.27260  0.55200  1.0000 0.1029001414
H   H10       1.0  0.27260  0.67160  0.50380  1.0000 0.1029001414
H   H11       1.0  0.50380  0.55200  0.27260  1.0000 0.1029001414
H   H12       1.0  0.55200  0.50380  0.67160  1.0000 0.1029001414
H   H13       1.0  0.57840  0.97740  0.69800  1.0000 0.1029001414
H   H14       1.0  0.97740  0.57840  0.74620  1.0000 0.1029001414
H   H15       1.0  0.74620  0.69800  0.97740  1.0000 0.1029001414
H   H16       1.0  0.69800  0.74620  0.57840  1.0000 0.1029001414
H   H17       1.0  0.61250  0.07850  0.80090  1.0000 0.1090050969
H   H18       1.0  0.07850  0.61250  0.50810  1.0000 0.1090050969
H   H19       1.0  0.50810  0.80090  0.07850  1.0000 0.1090050969
H   H20       1.0  0.80090  0.50810  0.61250  1.0000 0.1090050969
H   H21       1.0  0.63750  0.17150  0.44910  1.0000 0.1090050969
H   H22       1.0  0.17150  0.63750  0.74190  1.0000 0.1090050969
H   H23       1.0  0.74190  0.44910  0.17150  1.0000 0.1090050969
H   H24       1.0  0.44910  0.74190  0.63750  1.0000 0.1090050969
H   H25       1.0  0.49370  0.15770  0.86070  1.0000 0.1090050969
H   H26       1.0  0.15770  0.49370  0.48790  1.0000 0.1090050969
H   H27       1.0  0.48790  0.86070  0.15770  1.0000 0.1090050969
H   H28       1.0  0.86070  0.48790  0.49370  1.0000 0.1090050969
H   H29       1.0  0.75630  0.09230  0.38930  1.0000 0.1090050969
H   H30       1.0  0.09230  0.75630  0.76210  1.0000 0.1090050969
H   H31       1.0  0.76210  0.38930  0.09230  1.0000 0.1090050969
H   H32       1.0  0.38930  0.76210  0.75630  1.0000 0.1090050969
H   H33       1.0  0.37760  0.46220  0.69940  1.0000 0.1029001414
H   H34       1.0  0.46220  0.37760  0.46080  1.0000 0.1029001414
H   H35       1.0  0.46080  0.69940  0.46220  1.0000 0.1029001414
H   H36       1.0  0.69940  0.46080  0.37760  1.0000 0.1029001414
H   H37       1.0  0.87240  0.78780  0.55060  1.0000 0.1029001414
H   H38       1.0  0.78780  0.87240  0.78920  1.0000 0.1029001414
H   H39       1.0  0.78920  0.55060  0.78780  1.0000 0.1029001414
H   H40       1.0  0.55060  0.78920  0.87240  1.0000 0.1029001414
H   H41       1.0  0.39280  0.33960  0.81760  1.0000 0.1495582885
H   H42       1.0  0.33960  0.39280  0.45000  1.0000 0.1495582885
H   H43       1.0  0.45000  0.81760  0.33960  1.0000 0.1495582885
H   H44       1.0  0.81760  0.45000  0.39280  1.0000 0.1495582885
H   H45       1.0  0.85720  0.91040  0.43240  1.0000 0.1495582885
H   H46       1.0  0.91040  0.85720  0.80000  1.0000 0.1495582885
H   H47       1.0  0.80000  0.43240  0.91040  1.0000 0.1495582885
H   H48       1.0  0.43240  0.80000  0.85720  1.0000 0.1495582885
H   H49       1.0  0.44630  0.25530  0.21110  1.0000 0.1409812267
H   H50       1.0  0.25530  0.44630  0.08730  1.0000 0.1409812267
H   H51       1.0  0.08730  0.21110  0.25530  1.0000 0.1409812267
H   H52       1.0  0.21110  0.08730  0.44630  1.0000 0.1409812267
H   H53       1.0  0.80370  0.99470  0.03890  1.0000 0.1409812267
H   H54       1.0  0.99470  0.80370  0.16270  1.0000 0.1409812267
H   H55       1.0  0.16270  0.03890  0.99470  1.0000 0.1409812267
H   H56       1.0  0.03890  0.16270  0.80370  1.0000 0.1409812267
C   C1        1.0  0.62861  0.20945  0.67475  1.0000 -0.1950822235
C   C2        1.0  0.20945  0.62861  0.48719  1.0000 -0.1950822235
C   C3        1.0  0.48719  0.67475  0.20945  1.0000 -0.1950822235
C   C4        1.0  0.67475  0.48719  0.62861  1.0000 -0.1950822235
C   C5        1.0  0.62139  0.04055  0.57525  1.0000 -0.1950822235
C   C6        1.0  0.04055  0.62139  0.76281  1.0000 -0.1950822235
C   C7        1.0  0.76281  0.57525  0.04055  1.0000 -0.1950822235
C   C8        1.0  0.57525  0.76281  0.62139  1.0000 -0.1950822235
C   C9        1.0  0.61449  0.28651  0.60629  1.0000 0.071889944
C   C10       1.0  0.28651  0.61449  0.49271  1.0000 0.071889944
C   C11       1.0  0.49271  0.60629  0.28651  1.0000 0.071889944
C   C12       1.0  0.60629  0.49271  0.61449  1.0000 0.071889944
C   C13       1.0  0.63551  0.96349  0.64371  1.0000 0.071889944
C   C14       1.0  0.96349  0.63551  0.75729  1.0000 0.071889944
C   C15       1.0  0.75729  0.64371  0.96349  1.0000 0.071889944
C   C16       1.0  0.64371  0.75729  0.63551  1.0000 0.071889944
C   C17       1.0  0.55577  0.17085  0.07795  1.0000 -0.0683047114
C   C18       1.0  0.17085  0.55577  0.19543  1.0000 -0.0683047114
C   C19       1.0  0.19543  0.07795  0.17085  1.0000 -0.0683047114
C   C20       1.0  0.07795  0.19543  0.55577  1.0000 -0.0683047114
C   C21       1.0  0.69423  0.07915  0.17205  1.0000 -0.0683047114
C   C22       1.0  0.07915  0.69423  0.05457  1.0000 -0.0683047114
C   C23       1.0  0.05457  0.17205  0.07915  1.0000 -0.0683047114
C   C24       1.0  0.17205  0.05457  0.69423  1.0000 -0.0683047114
C   C25       1.0  0.54579  0.22681  0.75599  1.0000 0.1409812267
C   C26       1.0  0.22681  0.54579  0.47141  1.0000 0.1409812267
C   C27       1.0  0.47141  0.75599  0.22681  1.0000 0.1409812267
C   C28       1.0  0.75599  0.47141  0.54579  1.0000 0.1409812267
C   C29       1.0  0.70421  0.02319  0.49401  1.0000 0.1409812267
C   C30       1.0  0.02319  0.70421  0.77859  1.0000 0.1409812267
C   C31       1.0  0.77859  0.49401  0.02319  1.0000 0.1409812267
C   C32       1.0  0.49401  0.77859  0.70421  1.0000 0.1409812267
C   C33       1.0  0.50048  0.20428  0.00892  1.0000 0.4230343714
C   C34       1.0  0.20428  0.50048  0.28632  1.0000 0.4230343714
C   C35       1.0  0.28632  0.00892  0.20428  1.0000 0.4230343714
C   C36       1.0  0.00892  0.28632  0.50048  1.0000 0.4230343714
C   C37       1.0  0.74952  0.04572  0.24108  1.0000 0.4230343714
C   C38       1.0  0.04572  0.74952  0.96368  1.0000 0.4230343714
C   C39       1.0  0.96368  0.24108  0.04572  1.0000 0.4230343714
C   C40       1.0  0.24108  0.96368  0.74952  1.0000 0.4230343714
C   C41       1.0  0.55656  0.14556  0.83424  1.0000 -0.1517176278
C   C42       1.0  0.14556  0.55656  0.46364  1.0000 -0.1517176278
C   C43       1.0  0.46364  0.83424  0.14556  1.0000 -0.1517176278
C   C44       1.0  0.83424  0.46364  0.55656  1.0000 -0.1517176278
C   C45       1.0  0.69344  0.10444  0.41576  1.0000 -0.1517176278
C   C46       1.0  0.10444  0.69344  0.78636  1.0000 -0.1517176278
C   C47       1.0  0.78636  0.41576  0.10444  1.0000 -0.1517176278
C   C48       1.0  0.41576  0.78636  0.69344  1.0000 -0.1517176278
C   C49       1.0  0.66072  0.09414  0.02866  1.0000 -0.0614648368
C   C50       1.0  0.09414  0.66072  0.21648  1.0000 -0.0614648368
C   C51       1.0  0.21648  0.02866  0.09414  1.0000 -0.0614648368
C   C52       1.0  0.02866  0.21648  0.66072  1.0000 -0.0614648368
C   C53       1.0  0.58928  0.15586  0.22134  1.0000 -0.0614648368
C   C54       1.0  0.15586  0.58928  0.03352  1.0000 -0.0614648368
C   C55       1.0  0.03352  0.22134  0.15586  1.0000 -0.0614648368
C   C56       1.0  0.22134  0.03352  0.58928  1.0000 -0.0614648368
C   C57       1.0  0.44270  0.39736  0.69244  1.0000 0.0928903609
C   C58       1.0  0.39736  0.44270  0.46750  1.0000 0.0928903609
C   C59       1.0  0.46750  0.69244  0.39736  1.0000 0.0928903609
C   C60       1.0  0.69244  0.46750  0.44270  1.0000 0.0928903609
C   C61       1.0  0.80730  0.85264  0.55756  1.0000 0.0928903609
C   C62       1.0  0.85264  0.80730  0.78250  1.0000 0.0928903609
C   C63       1.0  0.78250  0.55756  0.85264  1.0000 0.0928903609
C   C64       1.0  0.55756  0.78250  0.80730  1.0000 0.0928903609
C   C65       1.0  0.45115  0.32375  0.76385  1.0000 -0.178090176
C   C66       1.0  0.32375  0.45115  0.46125  1.0000 -0.178090176
C   C67       1.0  0.46125  0.76385  0.32375  1.0000 -0.178090176
C   C68       1.0  0.76385  0.46125  0.45115  1.0000 -0.178090176
C   C69       1.0  0.79885  0.92625  0.48615  1.0000 -0.178090176
C   C70       1.0  0.92625  0.79885  0.78875  1.0000 -0.178090176
C   C71       1.0  0.78875  0.48615  0.92625  1.0000 -0.178090176
C   C72       1.0  0.48615  0.78875  0.79885  1.0000 -0.178090176
C   C73       1.0  0.51644  0.20420  0.17720  1.0000 -0.0614648368
C   C74       1.0  0.20420  0.51644  0.10216  1.0000 -0.0614648368
C   C75       1.0  0.10216  0.17720  0.20420  1.0000 -0.0614648368
C   C76       1.0  0.17720  0.10216  0.51644  1.0000 -0.0614648368
C   C77       1.0  0.73356  0.04580  0.07280  1.0000 -0.0614648368
C   C78       1.0  0.04580  0.73356  0.14784  1.0000 -0.0614648368
C   C79       1.0  0.14784  0.07280  0.04580  1.0000 -0.0614648368
C   C80       1.0  0.07280  0.14784  0.73356  1.0000 -0.0614648368
C   C81       1.0  0.67386  0.07902  0.92578  1.0000 0.4297901779
C   C82       1.0  0.07902  0.67386  0.32134  1.0000 0.4297901779
C   C83       1.0  0.32134  0.92578  0.07902  1.0000 0.4297901779
C   C84       1.0  0.92578  0.32134  0.67386  1.0000 0.4297901779
C   C85       1.0  0.57614  0.17098  0.32422  1.0000 0.4297901779
C   C86       1.0  0.17098  0.57614  0.92866  1.0000 0.4297901779
C   C87       1.0  0.92866  0.32422  0.17098  1.0000 0.4297901779
C   C88       1.0  0.32422  0.92866  0.57614  1.0000 0.4297901779
C   C89       1.0  0.67440  0.32560  0.32560  1.0000 0.1201515585
C   C90       1.0  0.32560  0.67440  0.67440  1.0000 0.1201515585
C   C91       1.0  0.57560  0.92440  0.92440  1.0000 0.1201515585
C   C92       1.0  0.92440  0.57560  0.57560  1.0000 0.1201515585
S   S1        1.0  0.72216  0.26172  0.22164  1.0000 -0.0614648368
S   S2        1.0  0.26172  0.72216  0.79448  1.0000 -0.0614648368
S   S3        1.0  0.79448  0.22164  0.26172  1.0000 -0.0614648368
S   S4        1.0  0.22164  0.79448  0.72216  1.0000 -0.0614648368
S   S5        1.0  0.52784  0.98828  0.02836  1.0000 -0.0614648368
S   S6        1.0  0.98828  0.52784  0.45552  1.0000 -0.0614648368
S   S7        1.0  0.45552  0.02836  0.98828  1.0000 -0.0614648368
S   S8        1.0  0.02836  0.45552  0.52784  1.0000 -0.0614648368
N   N1        1.0  0.52188  0.38118  0.61424  1.0000 -0.2248970777
N   N2        1.0  0.38118  0.52188  0.48270  1.0000 -0.2248970777
N   N3        1.0  0.48270  0.61424  0.38118  1.0000 -0.2248970777
N   N4        1.0  0.61424  0.48270  0.52188  1.0000 -0.2248970777
N   N5        1.0  0.72812  0.86882  0.63576  1.0000 -0.2248970777
N   N6        1.0  0.86882  0.72812  0.76730  1.0000 -0.2248970777
N   N7        1.0  0.76730  0.63576  0.86882  1.0000 -0.2248970777
N   N8        1.0  0.63576  0.76730  0.72812  1.0000 -0.2248970777
N   N9        1.0  0.57688  0.14494  0.91986  1.0000 -0.1934964951
N   N10       1.0  0.14494  0.57688  0.35832  1.0000 -0.1934964951
N   N11       1.0  0.35832  0.91986  0.14494  1.0000 -0.1934964951
N   N12       1.0  0.91986  0.35832  0.57688  1.0000 -0.1934964951
N   N13       1.0  0.67312  0.10506  0.33014  1.0000 -0.1950822235
N   N14       1.0  0.10506  0.67312  0.89168  1.0000 -0.1934964951
N   N15       1.0  0.89168  0.33014  0.10506  1.0000 -0.1934964951
N   N16       1.0  0.33014  0.89168  0.67312  1.0000 -0.1934964951
N   N17       1.0  0.61370  0.38630  0.38630  1.0000 -0.3711521686
N   N18       1.0  0.38630  0.61370  0.61370  1.0000 -0.3711521686
N   N19       1.0  0.63630  0.86370  0.86370  1.0000 -0.3711521686
N   N20       1.0  0.86370  0.63630  0.63630  1.0000 -0.3711521686
O   O1        1.0  0.40971  0.26879  0.02211  1.0000 -0.4039798216
O   O2        1.0  0.26879  0.40971  0.29939  1.0000 -0.4039798216
O   O3        1.0  0.29939  0.02211  0.26879  1.0000 -0.4039798216
O   O4        1.0  0.02211  0.29939  0.40971  1.0000 -0.4039798216
O   O5        1.0  0.84029  0.98121  0.22789  1.0000 -0.4039798216
O   O6        1.0  0.98121  0.84029  0.95061  1.0000 -0.4039798216
O   O7        1.0  0.95061  0.22789  0.98121  1.0000 -0.4039798216
O   O8        1.0  0.22789  0.95061  0.84029  1.0000 -0.4039798216
O   O9        1.0  0.75333  0.02175  0.85701  1.0000 -0.4473464921
O   O10       1.0  0.02175  0.75333  0.36791  1.0000 -0.4473464921
O   O11       1.0  0.36791  0.85701  0.02175  1.0000 -0.4473464921
O   O12       1.0  0.85701  0.36791  0.75333  1.0000 -0.4473464921
O   O13       1.0  0.49667  0.22825  0.39299  1.0000 -0.4473464921
O   O14       1.0  0.22825  0.49667  0.88209  1.0000 -0.4473464921
O   O15       1.0  0.88209  0.39299  0.22825  1.0000 -0.4473464921
O   O16       1.0  0.39299  0.88209  0.49667  1.0000 -0.4473464921
