# DDEC6 charges by PACMAN v1.1 (https://github.com/mtap-research/PACMAN-charge/)
data_2011[Zn][nan]3[FSR]4
_chemical_formula_sum              "Zn4 H32 C40 N6 O16"
_cell_length_a       13.8224
_cell_length_b       13.8224
_cell_length_c       14.376
_cell_angle_alpha    61.9182
_cell_angle_beta     118.082
_cell_angle_gamma    100.29

_symmetry_space_group_name_H-M    "P 1"
_symmetry_Int_Tables_number       1

loop_
  _symmetry_equiv_pos_as_xyz
  'x, y, z'

loop_
  _atom_site_type_symbol
  _atom_site_label
  _atom_site_symmetry_multiplicity
  _atom_site_fract_x
  _atom_site_fract_y
  _atom_site_fract_z
  _atom_site_occupancy
  _atom_site_charge
Zn  Zn1       1.0  0.89561  0.89561  0.50000  1.0000 0.7228955671
Zn  Zn2       1.0  0.10439  0.10439  0.50000  1.0000 0.7228955671
Zn  Zn3       1.0  0.01934  0.98066  0.91503  1.0000 0.8637594326
Zn  Zn4       1.0  0.98066  0.01934  0.08497  1.0000 0.8637594326
H   H1        1.0  0.74250  0.07410  0.45900  1.0000 0.340498653
H   H2        1.0  0.07410  0.74250  0.54100  1.0000 0.340498653
H   H3        1.0  0.25750  0.92590  0.54100  1.0000 0.340498653
H   H4        1.0  0.92590  0.25750  0.45900  1.0000 0.340498653
H   H5        1.0  0.37770  0.93070  0.11530  1.0000 0.1293377417
H   H6        1.0  0.93070  0.37770  0.88470  1.0000 0.1293377417
H   H7        1.0  0.62230  0.06930  0.88470  1.0000 0.1293377417
H   H8        1.0  0.06930  0.62230  0.11530  1.0000 0.1293377417
H   H9        1.0  0.56390  0.92590  0.22850  1.0000 0.1200354143
H   H10       1.0  0.92590  0.56390  0.77150  1.0000 0.1200354143
H   H11       1.0  0.43610  0.07410  0.77150  1.0000 0.1200354143
H   H12       1.0  0.07410  0.43610  0.22850  1.0000 0.1200354143
H   H13       1.0  0.51100  0.04160  0.40370  1.0000 0.1010264891
H   H14       1.0  0.04160  0.51100  0.59630  1.0000 0.1010264891
H   H15       1.0  0.48900  0.95840  0.59630  1.0000 0.1010264891
H   H16       1.0  0.95840  0.48900  0.40370  1.0000 0.1010264891
H   H17       1.0  0.32590  0.04050  0.29780  1.0000 0.1200354143
H   H18       1.0  0.04050  0.32590  0.70220  1.0000 0.1200354143
H   H19       1.0  0.67410  0.95950  0.70220  1.0000 0.1200354143
H   H20       1.0  0.95950  0.67410  0.29780  1.0000 0.1200354143
H   H21       1.0  0.85080  0.81560  0.30640  1.0000 0.1293377417
H   H22       1.0  0.81560  0.85080  0.69360  1.0000 0.1293377417
H   H23       1.0  0.14920  0.18440  0.69360  1.0000 0.1293377417
H   H24       1.0  0.18440  0.14920  0.30640  1.0000 0.1293377417
H   H25       1.0  0.82920  0.88840  0.17500  1.0000 0.150551994
H   H26       1.0  0.88840  0.82920  0.82500  1.0000 0.150551994
H   H27       1.0  0.17080  0.11160  0.82500  1.0000 0.150551994
H   H28       1.0  0.11160  0.17080  0.17500  1.0000 0.150551994
H   H29       1.0  0.76220  0.91360  0.22450  1.0000 0.1416924342
H   H30       1.0  0.91360  0.76220  0.77550  1.0000 0.1416924342
H   H31       1.0  0.23780  0.08640  0.77550  1.0000 0.1416924342
H   H32       1.0  0.08640  0.23780  0.22450  1.0000 0.1416924342
C   C1        1.0  0.20910  0.99250  0.11750  1.0000 0.5714379891
C   C2        1.0  0.99250  0.20910  0.88250  1.0000 0.5714379891
C   C3        1.0  0.79090  0.00750  0.88250  1.0000 0.5714379891
C   C4        1.0  0.00750  0.79090  0.11750  1.0000 0.5714379891
C   C5        1.0  0.33180  0.98560  0.19330  1.0000 -0.0123849984
C   C6        1.0  0.98560  0.33180  0.80670  1.0000 -0.0123849984
C   C7        1.0  0.66820  0.01440  0.80670  1.0000 -0.0123849984
C   C8        1.0  0.01440  0.66820  0.19330  1.0000 -0.0123849984
C   C9        1.0  0.40350  0.95150  0.17550  1.0000 -0.1109076974
C   C10       1.0  0.95150  0.40350  0.82450  1.0000 -0.1109076974
C   C11       1.0  0.59650  0.04850  0.82450  1.0000 -0.1109076974
C   C12       1.0  0.04850  0.59650  0.17550  1.0000 -0.1109076974
C   C13       1.0  0.51600  0.94640  0.24560  1.0000 -0.1109076974
C   C14       1.0  0.94640  0.51600  0.75440  1.0000 -0.1109076974
C   C15       1.0  0.48400  0.05360  0.75440  1.0000 -0.1109076974
C   C16       1.0  0.05360  0.48400  0.24560  1.0000 -0.1109076974
C   C17       1.0  0.55700  0.97020  0.33620  1.0000 -0.0387569189
C   C18       1.0  0.97020  0.55700  0.66380  1.0000 -0.0387569189
C   C19       1.0  0.44300  0.02980  0.66380  1.0000 -0.0387569189
C   C20       1.0  0.02980  0.44300  0.33620  1.0000 -0.0387569189
C   C21       1.0  0.48410  0.01390  0.34890  1.0000 -0.1510805071
C   C22       1.0  0.01390  0.48410  0.65110  1.0000 -0.1510805071
C   C23       1.0  0.51590  0.98610  0.65110  1.0000 -0.1510805071
C   C24       1.0  0.98610  0.51590  0.34890  1.0000 -0.1510805071
C   C25       1.0  0.37360  0.01700  0.28270  1.0000 -0.1208758645
C   C26       1.0  0.01700  0.37360  0.71730  1.0000 -0.1208758645
C   C27       1.0  0.62640  0.98300  0.71730  1.0000 -0.1208758645
C   C28       1.0  0.98300  0.62640  0.28270  1.0000 -0.1208758645
C   C29       1.0  0.67830  0.96150  0.41490  1.0000 0.520883952
C   C30       1.0  0.96150  0.67830  0.58510  1.0000 0.520883952
C   C31       1.0  0.32170  0.03850  0.58510  1.0000 0.520883952
C   C32       1.0  0.03850  0.32170  0.41490  1.0000 0.520883952
C   C33       1.0  0.91730  0.96310  0.27900  1.0000 0.3676091476
C   C34       1.0  0.96310  0.91730  0.72100  1.0000 0.3676091476
C   C35       1.0  0.08270  0.03690  0.72100  1.0000 0.3676091476
C   C36       1.0  0.03690  0.08270  0.27900  1.0000 0.3676091476
C   C37       1.0  0.83240  0.88860  0.24310  1.0000 -0.5454195992
C   C38       1.0  0.88860  0.83240  0.75690  1.0000 -0.5454195992
C   C39       1.0  0.16760  0.11140  0.75690  1.0000 -0.5388169901
C   C40       1.0  0.11140  0.16760  0.24310  1.0000 -0.5454195992
N   N1        1.0  0.97220  0.02780  0.21770  1.0000 -0.4107842848
N   N2        1.0  0.02780  0.97220  0.78230  1.0000 -0.4107842848
N   N3        1.0  0.94900  0.97500  0.37590  1.0000 -0.3175624267
N   N4        1.0  0.97500  0.94900  0.62410  1.0000 -0.3175624267
N   N5        1.0  0.05100  0.02500  0.62410  1.0000 -0.3175624267
N   N6        1.0  0.02500  0.05100  0.37590  1.0000 -0.3175624267
O   O1        1.0  0.17750  0.97790  0.02820  1.0000 -0.5388169901
O   O2        1.0  0.97790  0.17750  0.97180  1.0000 -0.5388169901
O   O3        1.0  0.82250  0.02210  0.97180  1.0000 -0.5388169901
O   O4        1.0  0.02210  0.82250  0.02820  1.0000 -0.5388169901
O   O5        1.0  0.14770  0.01210  0.14910  1.0000 -0.5564675138
O   O6        1.0  0.01210  0.14770  0.85090  1.0000 -0.5564675138
O   O7        1.0  0.85230  0.98790  0.85090  1.0000 -0.5564675138
O   O8        1.0  0.98790  0.85230  0.14910  1.0000 -0.5564675138
O   O9        1.0  0.73670  0.91730  0.40760  1.0000 -0.4002595873
O   O10       1.0  0.91730  0.73670  0.59240  1.0000 -0.4002595873
O   O11       1.0  0.26330  0.08270  0.59240  1.0000 -0.4002595873
O   O12       1.0  0.08270  0.26330  0.40760  1.0000 -0.4002595873
O   O13       1.0  0.71430  0.01090  0.47680  1.0000 -0.3743205027
O   O14       1.0  0.01090  0.71430  0.52320  1.0000 -0.3800174054
O   O15       1.0  0.28570  0.98910  0.52320  1.0000 -0.3800174054
O   O16       1.0  0.98910  0.28570  0.47680  1.0000 -0.3800174054
