# DDEC6 charges by PACMAN v1.1 (https://github.com/mtap-research/PACMAN-charge/)
data_2011[Cu][pts]3[FSR]2
_chemical_formula_sum              "Cu2 P4 H20 C16 O12"
_cell_length_a       10.0665
_cell_length_b       10.0665
_cell_length_c       9.8589
_cell_angle_alpha    89.1715
_cell_angle_beta     90.8285
_cell_angle_gamma    139.165

_symmetry_space_group_name_H-M    "P 1"
_symmetry_Int_Tables_number       1

loop_
  _symmetry_equiv_pos_as_xyz
  'x, y, z'

loop_
  _atom_site_type_symbol
  _atom_site_label
  _atom_site_symmetry_multiplicity
  _atom_site_fract_x
  _atom_site_fract_y
  _atom_site_fract_z
  _atom_site_occupancy
  _atom_site_charge
Cu  Cu1       1.0  0.93622  0.93622  0.25000  1.0000 1.1189349978
Cu  Cu2       1.0  0.06378  0.06378  0.75000  1.0000 1.1189349978
P   P1        1.0  0.87808  0.08692  0.99309  1.0000 1.2115942328
P   P2        1.0  0.08692  0.87808  0.50691  1.0000 1.2115942328
P   P3        1.0  0.12192  0.91308  0.00691  1.0000 1.2115942328
P   P4        1.0  0.91308  0.12192  0.49309  1.0000 1.2115942328
H   H1        1.0  0.60700  0.00000  0.79330  1.0000 0.1207341081
H   H2        1.0  0.00000  0.60700  0.70670  1.0000 0.1207341081
H   H3        1.0  0.39300  0.00000  0.20670  1.0000 0.1207341081
H   H4        1.0  0.00000  0.39300  0.29330  1.0000 0.1207341081
H   H5        1.0  0.66530  0.06030  0.19790  1.0000 0.1207341081
H   H6        1.0  0.06030  0.66530  0.30210  1.0000 0.1207341081
H   H7        1.0  0.33470  0.93970  0.80210  1.0000 0.1207341081
H   H8        1.0  0.93970  0.33470  0.69790  1.0000 0.1207341081
H   H9        1.0  0.09230  0.49630  0.96920  1.0000 0.1010890468
H   H10       1.0  0.49630  0.09230  0.53080  1.0000 0.1010890468
H   H11       1.0  0.90770  0.50370  0.03080  1.0000 0.1010890468
H   H12       1.0  0.50370  0.90770  0.46920  1.0000 0.1010890468
H   H13       1.0  0.29200  0.59100  0.03540  1.0000 0.1287286221
H   H14       1.0  0.59100  0.29200  0.46460  1.0000 0.1287286221
H   H15       1.0  0.70800  0.40900  0.96460  1.0000 0.1287286221
H   H16       1.0  0.40900  0.70800  0.53540  1.0000 0.1287286221
H   H17       1.0  0.20780  0.46640  0.90090  1.0000 0.1287286221
H   H18       1.0  0.46640  0.20780  0.59910  1.0000 0.1287286221
H   H19       1.0  0.79220  0.53360  0.09910  1.0000 0.1287286221
H   H20       1.0  0.53360  0.79220  0.40090  1.0000 0.1287286221
C   C1        1.0  0.66340  0.03720  0.99480  1.0000 -0.1714005158
C   C2        1.0  0.03720  0.66340  0.50520  1.0000 -0.1714005158
C   C3        1.0  0.33660  0.96280  0.00520  1.0000 -0.1714005158
C   C4        1.0  0.96280  0.33660  0.49480  1.0000 -0.1714005158
C   C5        1.0  0.56420  0.00020  0.87620  1.0000 -0.0912645818
C   C6        1.0  0.00020  0.56420  0.62380  1.0000 -0.0912645818
C   C7        1.0  0.43580  0.99980  0.12380  1.0000 -0.0912645818
C   C8        1.0  0.99980  0.43580  0.37620  1.0000 -0.0912645818
C   C9        1.0  0.59890  0.03630  0.11840  1.0000 -0.0980863632
C   C10       1.0  0.03630  0.59890  0.38160  1.0000 -0.0980863632
C   C11       1.0  0.40110  0.96370  0.88160  1.0000 -0.0980863632
C   C12       1.0  0.96370  0.40110  0.61840  1.0000 -0.0980863632
C   C13       1.0  0.17120  0.47720  0.98580  1.0000 -0.1714005158
C   C14       1.0  0.47720  0.17120  0.51420  1.0000 -0.1714005158
C   C15       1.0  0.82880  0.52280  0.01420  1.0000 -0.1714005158
C   C16       1.0  0.52280  0.82880  0.48580  1.0000 -0.1714005158
O   O1        1.0  0.83270  0.93790  0.08550  1.0000 -0.746500066
O   O2        1.0  0.93790  0.83270  0.41450  1.0000 -0.746500066
O   O3        1.0  0.16730  0.06210  0.91450  1.0000 -0.746500066
O   O4        1.0  0.06210  0.16730  0.58550  1.0000 -0.746500066
O   O5        1.0  0.05840  0.30200  0.06030  1.0000 -0.331535569
O   O6        1.0  0.30200  0.05840  0.43970  1.0000 -0.331535569
O   O7        1.0  0.94160  0.69800  0.93970  1.0000 -0.331535569
O   O8        1.0  0.69800  0.94160  0.56030  1.0000 -0.331535569
O   O9        1.0  0.92130  0.09230  0.84700  1.0000 -0.7608886273
O   O10       1.0  0.09230  0.92130  0.65300  1.0000 -0.7608886273
O   O11       1.0  0.07870  0.90770  0.15300  1.0000 -0.7608886273
O   O12       1.0  0.90770  0.07870  0.34700  1.0000 -0.7608886273
