# DDEC6 charges by PACMAN v1.1 (https://github.com/mtap-research/PACMAN-charge/)
data_2011[Co][mok]3[FSR]1
_chemical_formula_sum              "Co4 H80 C120 N16 O24"
_cell_length_a       15.1056
_cell_length_b       15.1056
_cell_length_c       16.1364
_cell_angle_alpha    85.6484
_cell_angle_beta     94.3516
_cell_angle_gamma    94.3728

_symmetry_space_group_name_H-M    "P 1"
_symmetry_Int_Tables_number       1

loop_
  _symmetry_equiv_pos_as_xyz
  'x, y, z'

loop_
  _atom_site_type_symbol
  _atom_site_label
  _atom_site_symmetry_multiplicity
  _atom_site_fract_x
  _atom_site_fract_y
  _atom_site_fract_z
  _atom_site_occupancy
  _atom_site_charge
Co  Co1       1.0  0.77234  0.19880  0.24527  1.0000 0.7488638611
Co  Co2       1.0  0.19880  0.77234  0.25473  1.0000 0.7488638611
Co  Co3       1.0  0.22766  0.80120  0.75473  1.0000 0.7488638611
Co  Co4       1.0  0.80120  0.22766  0.74527  1.0000 0.7488638611
H   H1        1.0  0.07550  0.47310  0.42450  1.0000 0.277939275
H   H2        1.0  0.47310  0.07550  0.07550  1.0000 0.277939275
H   H3        1.0  0.92450  0.52690  0.57550  1.0000 0.277939275
H   H4        1.0  0.52690  0.92450  0.92450  1.0000 0.277939275
H   H5        1.0  0.41780  0.38540  0.59540  1.0000 0.277939275
H   H6        1.0  0.38540  0.41780  0.90460  1.0000 0.277939275
H   H7        1.0  0.58220  0.61460  0.40460  1.0000 0.277939275
H   H8        1.0  0.61460  0.58220  0.09540  1.0000 0.277939275
H   H9        1.0  0.92870  0.10730  0.88220  1.0000 0.1292355055
H   H10       1.0  0.10730  0.92870  0.61780  1.0000 0.1292355055
H   H11       1.0  0.07130  0.89270  0.11780  1.0000 0.1292355055
H   H12       1.0  0.89270  0.07130  0.38220  1.0000 0.1292355055
H   H13       1.0  0.85620  0.16540  0.98280  1.0000 0.119243744
H   H14       1.0  0.16540  0.85620  0.51720  1.0000 0.119243744
H   H15       1.0  0.14380  0.83460  0.01720  1.0000 0.119243744
H   H16       1.0  0.83460  0.14380  0.48280  1.0000 0.119243744
H   H17       1.0  0.96130  0.99450  0.15860  1.0000 0.1292355055
H   H18       1.0  0.99450  0.96130  0.34140  1.0000 0.1292355055
H   H19       1.0  0.03870  0.00550  0.84140  1.0000 0.1292355055
H   H20       1.0  0.00550  0.03870  0.65860  1.0000 0.1292355055
H   H21       1.0  0.40050  0.95710  0.36670  1.0000 0.119243744
H   H22       1.0  0.95710  0.40050  0.13330  1.0000 0.119243744
H   H23       1.0  0.59950  0.04290  0.63330  1.0000 0.119243744
H   H24       1.0  0.04290  0.59950  0.86670  1.0000 0.119243744
H   H25       1.0  0.50450  0.03030  0.28760  1.0000 0.119243744
H   H26       1.0  0.03030  0.50450  0.21240  1.0000 0.119243744
H   H27       1.0  0.49550  0.96970  0.71240  1.0000 0.119243744
H   H28       1.0  0.96970  0.49550  0.78760  1.0000 0.119243744
H   H29       1.0  0.65160  0.09780  0.49270  1.0000 0.1292355055
H   H30       1.0  0.09780  0.65160  0.00730  1.0000 0.1292355055
H   H31       1.0  0.34840  0.90220  0.50730  1.0000 0.1292355055
H   H32       1.0  0.90220  0.34840  0.99270  1.0000 0.1292355055
H   H33       1.0  0.33120  0.41540  0.49490  1.0000 0.119243744
H   H34       1.0  0.41540  0.33120  0.00510  1.0000 0.119243744
H   H35       1.0  0.66880  0.58460  0.50510  1.0000 0.119243744
H   H36       1.0  0.58460  0.66880  0.99490  1.0000 0.119243744
H   H37       1.0  0.37760  0.65820  0.57320  1.0000 0.119243744
H   H38       1.0  0.65820  0.37760  0.92680  1.0000 0.119243744
H   H39       1.0  0.62240  0.34180  0.42680  1.0000 0.119243744
H   H40       1.0  0.34180  0.62240  0.07320  1.0000 0.119243744
H   H41       1.0  0.25040  0.70200  0.49330  1.0000 0.1292355055
H   H42       1.0  0.70200  0.25040  0.00670  1.0000 0.1292355055
H   H43       1.0  0.74960  0.29800  0.50670  1.0000 0.1292355055
H   H44       1.0  0.29800  0.74960  0.99330  1.0000 0.1292355055
H   H45       1.0  0.15870  0.59770  0.42450  1.0000 0.119243744
H   H46       1.0  0.59770  0.15870  0.07550  1.0000 0.119243744
H   H47       1.0  0.84130  0.40230  0.57550  1.0000 0.119243744
H   H48       1.0  0.40230  0.84130  0.92450  1.0000 0.119243744
H   H49       1.0  0.98100  0.21520  0.24460  1.0000 0.1100488548
H   H50       1.0  0.21520  0.98100  0.25540  1.0000 0.1100488548
H   H51       1.0  0.01900  0.78480  0.75540  1.0000 0.1100488548
H   H52       1.0  0.78480  0.01900  0.74460  1.0000 0.1100488548
H   H53       1.0  0.09880  0.30140  0.29860  1.0000 0.1559668662
H   H54       1.0  0.30140  0.09880  0.20140  1.0000 0.1559668662
H   H55       1.0  0.90120  0.69860  0.70140  1.0000 0.1559668662
H   H56       1.0  0.69860  0.90120  0.79860  1.0000 0.1559668662
H   H57       1.0  0.93050  0.41650  0.42400  1.0000 0.1292355055
H   H58       1.0  0.41650  0.93050  0.07600  1.0000 0.1292355055
H   H59       1.0  0.06950  0.58350  0.57600  1.0000 0.1292355055
H   H60       1.0  0.58350  0.06950  0.92400  1.0000 0.1292355055
H   H61       1.0  0.81850  0.33030  0.36570  1.0000 0.1009617915
H   H62       1.0  0.33030  0.81850  0.13430  1.0000 0.1009617915
H   H63       1.0  0.18150  0.66970  0.63430  1.0000 0.1009617915
H   H64       1.0  0.66970  0.18150  0.86570  1.0000 0.1009617915
H   H65       1.0  0.62310  0.19610  0.66090  1.0000 0.1009617915
H   H66       1.0  0.19610  0.62310  0.83910  1.0000 0.1009617915
H   H67       1.0  0.37690  0.80390  0.33910  1.0000 0.1009617915
H   H68       1.0  0.80390  0.37690  0.16090  1.0000 0.1009617915
H   H69       1.0  0.49890  0.26190  0.60950  1.0000 0.1448521317
H   H70       1.0  0.26190  0.49890  0.89050  1.0000 0.1448521317
H   H71       1.0  0.50110  0.73810  0.39050  1.0000 0.1448521317
H   H72       1.0  0.73810  0.50110  0.10950  1.0000 0.1448521317
H   H73       1.0  0.60030  0.48510  0.70450  1.0000 0.15496327
H   H74       1.0  0.48510  0.60030  0.79550  1.0000 0.15496327
H   H75       1.0  0.39970  0.51490  0.29550  1.0000 0.15496327
H   H76       1.0  0.51490  0.39970  0.20450  1.0000 0.1559668662
H   H77       1.0  0.72270  0.41130  0.75500  1.0000 0.1100488548
H   H78       1.0  0.41130  0.72270  0.74500  1.0000 0.1100488548
H   H79       1.0  0.27730  0.58870  0.24500  1.0000 0.1100488548
H   H80       1.0  0.58870  0.27730  0.25500  1.0000 0.1100488548
C   C1        1.0  0.85330  0.12170  0.14620  1.0000 0.5264459552
C   C2        1.0  0.12170  0.85330  0.35380  1.0000 0.5264459552
C   C3        1.0  0.14670  0.87830  0.85380  1.0000 0.5264459552
C   C4        1.0  0.87830  0.14670  0.64620  1.0000 0.5264459552
C   C5        1.0  0.93680  0.08540  0.93750  1.0000 -0.1422123312
C   C6        1.0  0.08540  0.93680  0.56250  1.0000 -0.1422123312
C   C7        1.0  0.06320  0.91460  0.06250  1.0000 -0.1422123312
C   C8        1.0  0.91460  0.06320  0.43750  1.0000 -0.1422123312
C   C9        1.0  0.89290  0.11910  0.99710  1.0000 -0.1024796989
C   C10       1.0  0.11910  0.89290  0.50290  1.0000 -0.1024796989
C   C11       1.0  0.10710  0.88090  0.00290  1.0000 -0.1024796989
C   C12       1.0  0.88090  0.10710  0.49710  1.0000 -0.1024796989
C   C13       1.0  0.90280  0.08360  0.08130  1.0000 -0.0198999802
C   C14       1.0  0.08360  0.90280  0.41870  1.0000 -0.0198999802
C   C15       1.0  0.09720  0.91640  0.91870  1.0000 -0.0198999802
C   C16       1.0  0.91640  0.09720  0.58130  1.0000 -0.0198999802
C   C17       1.0  0.95610  0.01750  0.10350  1.0000 -0.1498358944
C   C18       1.0  0.01750  0.95610  0.39650  1.0000 -0.1498358944
C   C19       1.0  0.04390  0.98250  0.89650  1.0000 -0.1498358944
C   C20       1.0  0.98250  0.04390  0.60350  1.0000 -0.1498358944
C   C21       1.0  0.00630  0.98170  0.04070  1.0000 0.0738164772
C   C22       1.0  0.98170  0.00630  0.45930  1.0000 0.0738164772
C   C23       1.0  0.99370  0.01830  0.95930  1.0000 0.0738164772
C   C24       1.0  0.01830  0.99370  0.54070  1.0000 0.0738164772
C   C25       1.0  0.65690  0.11930  0.33060  1.0000 0.5264459552
C   C26       1.0  0.11930  0.65690  0.16940  1.0000 0.5264459552
C   C27       1.0  0.34310  0.88070  0.66940  1.0000 0.5264459552
C   C28       1.0  0.88070  0.34310  0.83060  1.0000 0.5264459552
C   C29       1.0  0.45130  0.98430  0.39280  1.0000 -0.1601651198
C   C30       1.0  0.98430  0.45130  0.10720  1.0000 -0.1601651198
C   C31       1.0  0.54870  0.01570  0.60720  1.0000 -0.1601651198
C   C32       1.0  0.01570  0.54870  0.89280  1.0000 -0.1601651198
C   C33       1.0  0.51290  0.02830  0.34540  1.0000 -0.1078779883
C   C34       1.0  0.02830  0.51290  0.15460  1.0000 -0.1078779883
C   C35       1.0  0.48710  0.97170  0.65460  1.0000 -0.1078779883
C   C36       1.0  0.97170  0.48710  0.84540  1.0000 -0.1078779883
C   C37       1.0  0.58940  0.07100  0.38370  1.0000 -0.0086374154
C   C38       1.0  0.07100  0.58940  0.11630  1.0000 -0.0086374154
C   C39       1.0  0.41060  0.92900  0.61630  1.0000 -0.0086374154
C   C40       1.0  0.92900  0.41060  0.88370  1.0000 -0.0086374154
C   C41       1.0  0.60120  0.06840  0.46780  1.0000 -0.1498358944
C   C42       1.0  0.06840  0.60120  0.03220  1.0000 -0.1498358944
C   C43       1.0  0.39880  0.93160  0.53220  1.0000 -0.1498358944
C   C44       1.0  0.93160  0.39880  0.96780  1.0000 -0.1498358944
C   C45       1.0  0.53790  0.02170  0.51860  1.0000 0.0738164772
C   C46       1.0  0.02170  0.53790  0.98140  1.0000 0.0738164772
C   C47       1.0  0.46210  0.97830  0.48140  1.0000 0.0738164772
C   C48       1.0  0.97830  0.46210  0.01860  1.0000 0.0738164772
C   C49       1.0  0.18360  0.42740  0.40340  1.0000 0.4673618378
C   C50       1.0  0.42740  0.18360  0.09660  1.0000 0.4673618378
C   C51       1.0  0.81640  0.57260  0.59660  1.0000 0.4673618378
C   C52       1.0  0.57260  0.81640  0.90340  1.0000 0.4673618378
C   C53       1.0  0.44910  0.50870  0.59330  1.0000 0.4468820991
C   C54       1.0  0.50870  0.44910  0.90670  1.0000 0.4468820991
C   C55       1.0  0.55090  0.49130  0.40670  1.0000 0.4468820991
C   C56       1.0  0.49130  0.55090  0.09330  1.0000 0.4468820991
C   C57       1.0  0.23590  0.49810  0.45210  1.0000 -0.0254807032
C   C58       1.0  0.49810  0.23590  0.04790  1.0000 -0.0198999802
C   C59       1.0  0.76410  0.50190  0.54790  1.0000 -0.0254807032
C   C60       1.0  0.50190  0.76410  0.95210  1.0000 -0.0254807032
C   C61       1.0  0.31390  0.47290  0.49710  1.0000 -0.1498358944
C   C62       1.0  0.47290  0.31390  0.00290  1.0000 -0.1498358944
C   C63       1.0  0.68610  0.52710  0.50290  1.0000 -0.1498358944
C   C64       1.0  0.52710  0.68610  0.99710  1.0000 -0.1498358944
C   C65       1.0  0.36490  0.53130  0.54380  1.0000 -0.0254807032
C   C66       1.0  0.53130  0.36490  0.95620  1.0000 -0.0254807032
C   C67       1.0  0.63510  0.46870  0.45620  1.0000 -0.0254807032
C   C68       1.0  0.46870  0.63510  0.04380  1.0000 -0.0254807032
C   C69       1.0  0.34220  0.61720  0.54280  1.0000 -0.1024796989
C   C70       1.0  0.61720  0.34220  0.95720  1.0000 -0.1024796989
C   C71       1.0  0.65780  0.38280  0.45720  1.0000 -0.1024796989
C   C72       1.0  0.38280  0.65780  0.04280  1.0000 -0.1024796989
C   C73       1.0  0.26520  0.64320  0.49560  1.0000 -0.0838615521
C   C74       1.0  0.64320  0.26520  0.00440  1.0000 -0.0838615521
C   C75       1.0  0.73480  0.35680  0.50440  1.0000 -0.0838615521
C   C76       1.0  0.35680  0.73480  0.99560  1.0000 -0.0838615521
C   C77       1.0  0.21150  0.58150  0.45280  1.0000 -0.1193602363
C   C78       1.0  0.58150  0.21150  0.04720  1.0000 -0.1193602363
C   C79       1.0  0.78850  0.41850  0.54720  1.0000 -0.1193602363
C   C80       1.0  0.41850  0.78850  0.95280  1.0000 -0.1193602363
C   C81       1.0  0.97010  0.25810  0.28020  1.0000 0.0933064074
C   C82       1.0  0.25810  0.97010  0.21980  1.0000 0.0933064074
C   C83       1.0  0.02990  0.74190  0.71980  1.0000 0.0933064074
C   C84       1.0  0.74190  0.02990  0.78020  1.0000 0.0933064074
C   C85       1.0  0.04160  0.30940  0.31290  1.0000 -0.2307716458
C   C86       1.0  0.30940  0.04160  0.18710  1.0000 -0.2307716458
C   C87       1.0  0.95840  0.69060  0.68710  1.0000 -0.2307716458
C   C88       1.0  0.69060  0.95840  0.81290  1.0000 -0.2307716458
C   C89       1.0  0.02810  0.37230  0.36660  1.0000 0.2556903066
C   C90       1.0  0.37230  0.02810  0.13340  1.0000 0.2556903066
C   C91       1.0  0.97190  0.62770  0.63340  1.0000 0.2556903066
C   C92       1.0  0.62770  0.97190  0.86660  1.0000 0.2556903066
C   C93       1.0  0.94300  0.37680  0.38580  1.0000 -0.2497335596
C   C94       1.0  0.37680  0.94300  0.11420  1.0000 -0.2497335596
C   C95       1.0  0.05700  0.62320  0.61420  1.0000 -0.2497335596
C   C96       1.0  0.62320  0.05700  0.88580  1.0000 -0.2497335596
C   C97       1.0  0.87600  0.32480  0.35070  1.0000 0.0738164772
C   C98       1.0  0.32480  0.87600  0.14930  1.0000 0.0738164772
C   C99       1.0  0.12400  0.67520  0.64930  1.0000 0.0738164772
C   C100      1.0  0.67520  0.12400  0.85070  1.0000 0.0738164772
C   C101      1.0  0.61900  0.25560  0.67000  1.0000 0.0806762429
C   C102      1.0  0.25560  0.61900  0.83000  1.0000 0.0806762429
C   C103      1.0  0.38100  0.74440  0.33000  1.0000 0.0806762429
C   C104      1.0  0.74440  0.38100  0.17000  1.0000 0.0806762429
C   C105      1.0  0.54450  0.29490  0.63780  1.0000 -0.2497335596
C   C106      1.0  0.29490  0.54450  0.86220  1.0000 -0.2497335596
C   C107      1.0  0.45550  0.70510  0.36220  1.0000 -0.2497335596
C   C108      1.0  0.70510  0.45550  0.13780  1.0000 -0.2497335596
C   C109      1.0  0.53740  0.38340  0.64760  1.0000 0.2453710438
C   C110      1.0  0.38340  0.53740  0.85240  1.0000 0.2453710438
C   C111      1.0  0.46260  0.61660  0.35240  1.0000 0.2453710438
C   C112      1.0  0.61660  0.46260  0.14760  1.0000 0.2453710438
C   C113      1.0  0.60380  0.42600  0.69370  1.0000 -0.2106145396
C   C114      1.0  0.42600  0.60380  0.80630  1.0000 -0.2106145396
C   C115      1.0  0.39620  0.57400  0.30630  1.0000 -0.2106145396
C   C116      1.0  0.57400  0.39620  0.19370  1.0000 -0.2106145396
C   C117      1.0  0.67720  0.38060  0.72460  1.0000 0.1009617915
C   C118      1.0  0.38060  0.67720  0.77540  1.0000 0.1009617915
C   C119      1.0  0.32280  0.61940  0.27540  1.0000 0.1009617915
C   C120      1.0  0.61940  0.32280  0.22460  1.0000 0.1009617915
N   N1        1.0  0.88750  0.26610  0.29610  1.0000 -0.2497335596
N   N2        1.0  0.26610  0.88750  0.20390  1.0000 -0.2497335596
N   N3        1.0  0.11250  0.73390  0.70390  1.0000 -0.2497335596
N   N4        1.0  0.73390  0.11250  0.79610  1.0000 -0.2497335596
N   N5        1.0  0.09420  0.42960  0.40100  1.0000 -0.3609473182
N   N6        1.0  0.42960  0.09420  0.09900  1.0000 -0.3609473182
N   N7        1.0  0.90580  0.57040  0.59900  1.0000 -0.3609473182
N   N8        1.0  0.57040  0.90580  0.90100  1.0000 -0.3609473182
N   N9        1.0  0.68600  0.29640  0.71330  1.0000 -0.25742653
N   N10       1.0  0.29640  0.68600  0.78670  1.0000 -0.25742653
N   N11       1.0  0.31400  0.70360  0.28670  1.0000 -0.25742653
N   N12       1.0  0.70360  0.31400  0.21330  1.0000 -0.25742653
N   N13       1.0  0.46190  0.42190  0.60990  1.0000 -0.3492613433
N   N14       1.0  0.42190  0.46190  0.89010  1.0000 -0.3492613433
N   N15       1.0  0.53810  0.57810  0.39010  1.0000 -0.3492613433
N   N16       1.0  0.57810  0.53810  0.10990  1.0000 -0.3492613433
O   O1        1.0  0.84930  0.08650  0.21800  1.0000 -0.5192017852
O   O2        1.0  0.08650  0.84930  0.28200  1.0000 -0.5192017852
O   O3        1.0  0.15070  0.91350  0.78200  1.0000 -0.5192017852
O   O4        1.0  0.91350  0.15070  0.71800  1.0000 -0.5192017852
O   O5        1.0  0.81640  0.19340  0.12620  1.0000 -0.5444390474
O   O6        1.0  0.19340  0.81640  0.37380  1.0000 -0.5444390474
O   O7        1.0  0.18360  0.80660  0.87380  1.0000 -0.5444390474
O   O8        1.0  0.80660  0.18360  0.62620  1.0000 -0.5444390474
O   O9        1.0  0.65050  0.11330  0.25260  1.0000 -0.5286274849
O   O10       1.0  0.11330  0.65050  0.24740  1.0000 -0.5286274849
O   O11       1.0  0.34950  0.88670  0.74740  1.0000 -0.5286274849
O   O12       1.0  0.88670  0.34950  0.75260  1.0000 -0.5286274849
O   O13       1.0  0.71920  0.16700  0.36230  1.0000 -0.5192017852
O   O14       1.0  0.16700  0.71920  0.13770  1.0000 -0.5192017852
O   O15       1.0  0.28080  0.83300  0.63770  1.0000 -0.5192017852
O   O16       1.0  0.83300  0.28080  0.86230  1.0000 -0.5192017852
O   O17       1.0  0.22080  0.37240  0.36740  1.0000 -0.4491186215
O   O18       1.0  0.37240  0.22080  0.13260  1.0000 -0.4491186215
O   O19       1.0  0.77920  0.62760  0.63260  1.0000 -0.4491186215
O   O20       1.0  0.62760  0.77920  0.86740  1.0000 -0.4491186215
O   O21       1.0  0.50370  0.56670  0.61740  1.0000 -0.4441692232
O   O22       1.0  0.56670  0.50370  0.88260  1.0000 -0.4441692232
O   O23       1.0  0.49630  0.43330  0.38260  1.0000 -0.4441692232
O   O24       1.0  0.43330  0.49630  0.11740  1.0000 -0.4441692232
