# DDEC6 charges by PACMAN v1.1 (https://github.com/mtap-research/PACMAN-charge/)
data_2011[Co][rtl]3[FSR]3
_chemical_formula_sum              "Co4 H20 C36 O28"
_cell_length_a       11.279
_cell_length_b       10.679
_cell_length_c       18.2548
_cell_angle_alpha    90
_cell_angle_beta     122.694
_cell_angle_gamma    90

_symmetry_space_group_name_H-M    "P 1"
_symmetry_Int_Tables_number       1

loop_
  _symmetry_equiv_pos_as_xyz
  'x, y, z'

loop_
  _atom_site_type_symbol
  _atom_site_label
  _atom_site_symmetry_multiplicity
  _atom_site_fract_x
  _atom_site_fract_y
  _atom_site_fract_z
  _atom_site_occupancy
  _atom_site_charge
Co  Co1       1.0  0.83783  0.54034  0.98883  1.0000 1.1055766439
Co  Co2       1.0  0.16217  0.04034  0.51117  1.0000 1.103689839
Co  Co3       1.0  0.16217  0.45966  0.01117  1.0000 1.103689839
Co  Co4       1.0  0.83783  0.95966  0.48883  1.0000 1.103689839
H   H1        1.0  0.93500  0.66400  0.90000  1.0000 0.3876176125
H   H2        1.0  0.06500  0.16400  0.60000  1.0000 0.3876176125
H   H3        1.0  0.06500  0.33600  0.10000  1.0000 0.3876176125
H   H4        1.0  0.93500  0.83600  0.40000  1.0000 0.3876176125
H   H5        1.0  0.83000  0.72100  0.90800  1.0000 0.3779077998
H   H6        1.0  0.17000  0.22100  0.59200  1.0000 0.3779077998
H   H7        1.0  0.17000  0.27900  0.09200  1.0000 0.3779077998
H   H8        1.0  0.83000  0.77900  0.40800  1.0000 0.3779077998
H   H9        1.0  0.95790  0.26170  0.77130  1.0000 0.1364533935
H   H10       1.0  0.04210  0.76170  0.72870  1.0000 0.1364533935
H   H11       1.0  0.04210  0.73830  0.22870  1.0000 0.1364533935
H   H12       1.0  0.95790  0.23830  0.27130  1.0000 0.1364533935
H   H13       1.0  0.59000  0.12000  0.57990  1.0000 0.1364533935
H   H14       1.0  0.41000  0.62000  0.92010  1.0000 0.1364533935
H   H15       1.0  0.41000  0.88000  0.42010  1.0000 0.1364533935
H   H16       1.0  0.59000  0.38000  0.07990  1.0000 0.1364533935
H   H17       1.0  0.60780  0.31460  0.77360  1.0000 0.1364533935
H   H18       1.0  0.39220  0.81460  0.72640  1.0000 0.1364533935
H   H19       1.0  0.39220  0.68540  0.22640  1.0000 0.1364533935
H   H20       1.0  0.60780  0.18540  0.27360  1.0000 0.1364533935
C   C1        1.0  0.79670  0.29980  0.78590  1.0000 -0.0145725415
C   C2        1.0  0.20330  0.79980  0.71410  1.0000 -0.0145725415
C   C3        1.0  0.20330  0.70020  0.21410  1.0000 -0.0145725415
C   C4        1.0  0.79670  0.20020  0.28590  1.0000 -0.0145725415
C   C5        1.0  0.86160  0.25040  0.74580  1.0000 -0.0867246415
C   C6        1.0  0.13840  0.75040  0.75420  1.0000 -0.0867246415
C   C7        1.0  0.13840  0.74960  0.25420  1.0000 -0.0867246415
C   C8        1.0  0.86160  0.24960  0.24580  1.0000 -0.0867246415
C   C9        1.0  0.78480  0.18440  0.66820  1.0000 -0.0214965889
C   C10       1.0  0.21520  0.68440  0.83180  1.0000 -0.0214965889
C   C11       1.0  0.21520  0.81560  0.33180  1.0000 -0.0214965889
C   C12       1.0  0.78480  0.31560  0.16820  1.0000 -0.0214965889
C   C13       1.0  0.64100  0.16670  0.63080  1.0000 -0.0811553763
C   C14       1.0  0.35900  0.66667  0.86920  1.0000 -0.0811553763
C   C15       1.0  0.35900  0.83330  0.36920  1.0000 -0.0811553763
C   C16       1.0  0.64100  0.33333  0.13080  1.0000 -0.0811553763
C   C17       1.0  0.57190  0.21770  0.66840  1.0000 -0.0214965889
C   C18       1.0  0.42810  0.71770  0.83160  1.0000 -0.0214965889
C   C19       1.0  0.42810  0.78230  0.33160  1.0000 -0.0214965889
C   C20       1.0  0.57190  0.28230  0.16840  1.0000 -0.0214965889
C   C21       1.0  0.65170  0.28240  0.74680  1.0000 -0.0867246415
C   C22       1.0  0.34830  0.78240  0.75320  1.0000 -0.0867246415
C   C23       1.0  0.34830  0.71760  0.25320  1.0000 -0.0867246415
C   C24       1.0  0.65170  0.21760  0.24680  1.0000 -0.0867246415
C   C25       1.0  0.87980  0.37150  0.87010  1.0000 0.6131293571
C   C26       1.0  0.12020  0.87150  0.62990  1.0000 0.6131293571
C   C27       1.0  0.12020  0.62850  0.12990  1.0000 0.6131293571
C   C28       1.0  0.87980  0.12850  0.37010  1.0000 0.6131293571
C   C29       1.0  0.85850  0.13480  0.62560  1.0000 0.5770291185
C   C30       1.0  0.14150  0.63480  0.87440  1.0000 0.5770291185
C   C31       1.0  0.14150  0.86520  0.37440  1.0000 0.5770291185
C   C32       1.0  0.85850  0.36520  0.12560  1.0000 0.5770291185
C   C33       1.0  0.41440  0.20480  0.62640  1.0000 0.570864076
C   C34       1.0  0.58560  0.70480  0.87360  1.0000 0.570864076
C   C35       1.0  0.58560  0.79520  0.37360  1.0000 0.570864076
C   C36       1.0  0.41440  0.29520  0.12640  1.0000 0.570864076
O   O1        1.0  0.81445  0.41260  0.90335  1.0000 -0.5552652085
O   O2        1.0  0.18555  0.91260  0.59665  1.0000 -0.5552652085
O   O3        1.0  0.18555  0.58740  0.09665  1.0000 -0.5552652085
O   O4        1.0  0.81445  0.08740  0.40335  1.0000 -0.5552652085
O   O5        1.0  0.00862  0.38740  0.89882  1.0000 -0.5247191195
O   O6        1.0  0.99138  0.88740  0.60118  1.0000 -0.5263398194
O   O7        1.0  0.99138  0.61260  0.10118  1.0000 -0.5247191195
O   O8        1.0  0.00862  0.11260  0.39882  1.0000 -0.5247191195
O   O9        1.0  0.78040  0.07870  0.55290  1.0000 -0.5011890286
O   O10       1.0  0.21960  0.57870  0.94710  1.0000 -0.5011890286
O   O11       1.0  0.21960  0.92130  0.44710  1.0000 -0.5011890286
O   O12       1.0  0.78040  0.42130  0.05290  1.0000 -0.5011890286
O   O13       1.0  0.98810  0.15050  0.66360  1.0000 -0.4697713757
O   O14       1.0  0.01190  0.65050  0.83640  1.0000 -0.4697713757
O   O15       1.0  0.01190  0.84950  0.33640  1.0000 -0.4697713757
O   O16       1.0  0.98810  0.34950  0.16360  1.0000 -0.4697713757
O   O17       1.0  0.35509  0.11890  0.56869  1.0000 -0.5247191195
O   O18       1.0  0.64491  0.61890  0.93131  1.0000 -0.5263398194
O   O19       1.0  0.64491  0.88110  0.43131  1.0000 -0.5247191195
O   O20       1.0  0.35509  0.38110  0.06869  1.0000 -0.5247191195
O   O21       1.0  0.35530  0.27900  0.64910  1.0000 -0.4539383257
O   O22       1.0  0.64470  0.77900  0.85090  1.0000 -0.4539383257
O   O23       1.0  0.64470  0.72100  0.35090  1.0000 -0.4539383257
O   O24       1.0  0.35530  0.22100  0.14910  1.0000 -0.4539383257
O   O25       1.0  0.89950  0.67890  0.93160  1.0000 -0.6974867785
O   O26       1.0  0.10050  0.17890  0.56840  1.0000 -0.6974867785
O   O27       1.0  0.10050  0.32110  0.06840  1.0000 -0.6974867785
O   O28       1.0  0.89950  0.82110  0.43160  1.0000 -0.6974867785
