# DDEC6 charges by PACMAN v1.1 (https://github.com/mtap-research/PACMAN-charge/)
data_2011[UCe][nan]3[FSR]1
_chemical_formula_sum              "Ce4 U8 C48 O80"
_cell_length_a       11.6182
_cell_length_b       13.1134
_cell_length_c       15.5887
_cell_angle_alpha    90
_cell_angle_beta     90
_cell_angle_gamma    90

_symmetry_space_group_name_H-M    "P 1"
_symmetry_Int_Tables_number       1

loop_
  _symmetry_equiv_pos_as_xyz
  'x, y, z'

loop_
  _atom_site_type_symbol
  _atom_site_label
  _atom_site_symmetry_multiplicity
  _atom_site_fract_x
  _atom_site_fract_y
  _atom_site_fract_z
  _atom_site_occupancy
  _atom_site_charge
Ce  Ce1       1.0  0.25000  0.93879  0.28635  1.0000 2.0691015172
Ce  Ce2       1.0  0.75000  0.43879  0.21365  1.0000 2.0632418242
Ce  Ce3       1.0  0.75000  0.06121  0.71365  1.0000 2.0632418242
Ce  Ce4       1.0  0.25000  0.56121  0.78635  1.0000 2.0632418242
U   U1        1.0  0.25000  0.65705  0.24700  1.0000 2.506406908
U   U2        1.0  0.75000  0.15705  0.25300  1.0000 2.506406908
U   U3        1.0  0.75000  0.34295  0.75300  1.0000 2.506406908
U   U4        1.0  0.25000  0.84295  0.74700  1.0000 2.506406908
U   U5        1.0  0.00000  0.00000  0.00000  1.0000 2.3833726692
U   U6        1.0  0.00000  0.50000  0.50000  1.0000 2.3833726692
U   U7        1.0  0.50000  0.00000  0.00000  1.0000 2.3833726692
U   U8        1.0  0.50000  0.50000  0.50000  1.0000 2.3833726692
C   C1        1.0  0.12980  0.28110  0.23140  1.0000 -0.0158065938
C   C2        1.0  0.87020  0.78110  0.26860  1.0000 -0.0158065938
C   C3        1.0  0.62980  0.71890  0.76860  1.0000 -0.0158065938
C   C4        1.0  0.37020  0.21890  0.73140  1.0000 -0.0158065938
C   C5        1.0  0.87020  0.71890  0.76860  1.0000 -0.0158065938
C   C6        1.0  0.12980  0.21890  0.73140  1.0000 -0.0158065938
C   C7        1.0  0.37020  0.28110  0.23140  1.0000 -0.0158065938
C   C8        1.0  0.62980  0.78110  0.26860  1.0000 -0.0158065938
C   C9        1.0  0.99920  0.28050  0.23390  1.0000 0.6699881005
C   C10       1.0  0.00080  0.78050  0.26610  1.0000 0.6699881005
C   C11       1.0  0.49920  0.71950  0.76610  1.0000 0.6699881005
C   C12       1.0  0.50080  0.21950  0.73390  1.0000 0.6699881005
C   C13       1.0  0.00080  0.71950  0.76610  1.0000 0.6699881005
C   C14       1.0  0.99920  0.21950  0.73390  1.0000 0.6699881005
C   C15       1.0  0.50080  0.28050  0.23390  1.0000 0.6699881005
C   C16       1.0  0.49920  0.78050  0.26610  1.0000 0.6699881005
C   C17       1.0  0.18980  0.20290  0.19080  1.0000 -0.0467077266
C   C18       1.0  0.81020  0.70290  0.30920  1.0000 -0.0467077266
C   C19       1.0  0.68980  0.79710  0.80920  1.0000 -0.0467077266
C   C20       1.0  0.31020  0.29710  0.69080  1.0000 -0.0467077266
C   C21       1.0  0.81020  0.79710  0.80920  1.0000 -0.0467077266
C   C22       1.0  0.18980  0.29710  0.69080  1.0000 -0.0467077266
C   C23       1.0  0.31020  0.20290  0.19080  1.0000 -0.0467077266
C   C24       1.0  0.68980  0.70290  0.30920  1.0000 -0.0467077266
C   C25       1.0  0.12660  0.11880  0.14500  1.0000 0.6347903061
C   C26       1.0  0.87340  0.61880  0.35500  1.0000 0.6355537223
C   C27       1.0  0.62660  0.88120  0.85500  1.0000 0.6347903061
C   C28       1.0  0.37340  0.38120  0.64500  1.0000 0.6347903061
C   C29       1.0  0.87340  0.88120  0.85500  1.0000 0.6355537223
C   C30       1.0  0.12660  0.38120  0.64500  1.0000 0.6347903061
C   C31       1.0  0.37340  0.11880  0.14500  1.0000 0.6355537223
C   C32       1.0  0.62660  0.61880  0.35500  1.0000 0.6355537223
C   C33       1.0  0.12590  0.43370  0.32720  1.0000 0.6629748541
C   C34       1.0  0.87410  0.93370  0.17280  1.0000 0.6629748541
C   C35       1.0  0.62590  0.56630  0.67280  1.0000 0.6629748541
C   C36       1.0  0.37410  0.06630  0.82720  1.0000 0.6629748541
C   C37       1.0  0.87410  0.56630  0.67280  1.0000 0.6629748541
C   C38       1.0  0.12590  0.06630  0.82720  1.0000 0.6629748541
C   C39       1.0  0.37410  0.43370  0.32720  1.0000 0.6629748541
C   C40       1.0  0.62590  0.93370  0.17280  1.0000 0.6629748541
C   C41       1.0  0.19020  0.35960  0.27230  1.0000 -0.0442326767
C   C42       1.0  0.80980  0.85960  0.22770  1.0000 -0.0442326767
C   C43       1.0  0.69020  0.64040  0.72770  1.0000 -0.0467077266
C   C44       1.0  0.30980  0.14040  0.77230  1.0000 -0.0467077266
C   C45       1.0  0.80980  0.64040  0.72770  1.0000 -0.0467077266
C   C46       1.0  0.19020  0.14040  0.77230  1.0000 -0.0467077266
C   C47       1.0  0.30980  0.35960  0.27230  1.0000 -0.0442326767
C   C48       1.0  0.69020  0.85960  0.22770  1.0000 -0.0442326767
O   O1        1.0  0.07470  0.14260  0.07680  1.0000 -0.5407897336
O   O2        1.0  0.92530  0.64260  0.42320  1.0000 -0.5407897336
O   O3        1.0  0.57470  0.85740  0.92320  1.0000 -0.5407897336
O   O4        1.0  0.42530  0.35740  0.57680  1.0000 -0.5407897336
O   O5        1.0  0.92530  0.85740  0.92320  1.0000 -0.5407897336
O   O6        1.0  0.07470  0.35740  0.57680  1.0000 -0.5407897336
O   O7        1.0  0.42530  0.14260  0.07680  1.0000 -0.5407897336
O   O8        1.0  0.57470  0.64260  0.42320  1.0000 -0.5407897336
O   O9        1.0  0.12920  0.03030  0.17380  1.0000 -0.5407897336
O   O10       1.0  0.87080  0.53030  0.32620  1.0000 -0.5407897336
O   O11       1.0  0.62920  0.96970  0.82620  1.0000 -0.5407897336
O   O12       1.0  0.37080  0.46970  0.67380  1.0000 -0.5407897336
O   O13       1.0  0.87080  0.96970  0.82620  1.0000 -0.5407897336
O   O14       1.0  0.12920  0.46970  0.67380  1.0000 -0.5407897336
O   O15       1.0  0.37080  0.03030  0.17380  1.0000 -0.5407897336
O   O16       1.0  0.62920  0.53030  0.32620  1.0000 -0.5407897336
O   O17       1.0  0.12960  0.93120  0.00350  1.0000 -0.5526441884
O   O18       1.0  0.87040  0.43120  0.49650  1.0000 -0.555620308
O   O19       1.0  0.62960  0.06880  0.99650  1.0000 -0.5526441884
O   O20       1.0  0.37040  0.56880  0.50350  1.0000 -0.555620308
O   O21       1.0  0.87040  0.06880  0.99650  1.0000 -0.5526441884
O   O22       1.0  0.12960  0.56880  0.50350  1.0000 -0.555620308
O   O23       1.0  0.37040  0.93120  0.00350  1.0000 -0.5526441884
O   O24       1.0  0.62960  0.43120  0.49650  1.0000 -0.555620308
O   O25       1.0  0.06890  0.39520  0.38770  1.0000 -0.5407897336
O   O26       1.0  0.93110  0.89520  0.11230  1.0000 -0.5407897336
O   O27       1.0  0.56890  0.60480  0.61230  1.0000 -0.5407897336
O   O28       1.0  0.43110  0.10480  0.88770  1.0000 -0.5407897336
O   O29       1.0  0.93110  0.60480  0.61230  1.0000 -0.5407897336
O   O30       1.0  0.06890  0.10480  0.88770  1.0000 -0.5407897336
O   O31       1.0  0.43110  0.39520  0.38770  1.0000 -0.5407897336
O   O32       1.0  0.56890  0.89520  0.11230  1.0000 -0.5407897336
O   O33       1.0  0.25000  0.73360  0.34110  1.0000 -0.6913737607
O   O34       1.0  0.75000  0.23360  0.15890  1.0000 -0.6913737607
O   O35       1.0  0.75000  0.26640  0.65890  1.0000 -0.6913737607
O   O36       1.0  0.25000  0.76640  0.84110  1.0000 -0.6913737607
O   O37       1.0  0.25000  0.80770  0.17790  1.0000 -0.9769414616
O   O38       1.0  0.75000  0.30770  0.32210  1.0000 -0.966020341
O   O39       1.0  0.75000  0.19230  0.82210  1.0000 -0.9612639797
O   O40       1.0  0.25000  0.69230  0.67790  1.0000 -0.9612639797
O   O41       1.0  0.13190  0.52760  0.31450  1.0000 -0.5816866708
O   O42       1.0  0.86810  0.02760  0.18550  1.0000 -0.5816866708
O   O43       1.0  0.63190  0.47240  0.68550  1.0000 -0.5816866708
O   O44       1.0  0.36810  0.97240  0.81450  1.0000 -0.5816866708
O   O45       1.0  0.86810  0.47240  0.68550  1.0000 -0.5816866708
O   O46       1.0  0.13190  0.97240  0.81450  1.0000 -0.5816866708
O   O47       1.0  0.36810  0.52760  0.31450  1.0000 -0.5816866708
O   O48       1.0  0.63190  0.02760  0.18550  1.0000 -0.5816866708
O   O49       1.0  0.11410  0.06890  0.35430  1.0000 -0.2505524309
O   O50       1.0  0.88590  0.56890  0.14570  1.0000 -0.2505524309
O   O51       1.0  0.61410  0.93110  0.64570  1.0000 -0.2505524309
O   O52       1.0  0.38590  0.43110  0.85430  1.0000 -0.2553827119
O   O53       1.0  0.88590  0.93110  0.64570  1.0000 -0.2505524309
O   O54       1.0  0.11410  0.43110  0.85430  1.0000 -0.2553827119
O   O55       1.0  0.38590  0.06890  0.35430  1.0000 -0.2505524309
O   O56       1.0  0.61410  0.56890  0.14570  1.0000 -0.2505524309
O   O57       1.0  0.25000  0.91760  0.44540  1.0000 -0.3678240729
O   O58       1.0  0.75000  0.41760  0.05460  1.0000 -0.3678240729
O   O59       1.0  0.75000  0.08240  0.55460  1.0000 -0.3678240729
O   O60       1.0  0.25000  0.58240  0.94540  1.0000 -0.3637800765
O   O61       1.0  0.95300  0.19930  0.26140  1.0000 -0.5225842473
O   O62       1.0  0.04700  0.69930  0.23860  1.0000 -0.5225842473
O   O63       1.0  0.45300  0.80070  0.73860  1.0000 -0.5225842473
O   O64       1.0  0.54700  0.30070  0.76140  1.0000 -0.5225842473
O   O65       1.0  0.04700  0.80070  0.73860  1.0000 -0.5225842473
O   O66       1.0  0.95300  0.30070  0.76140  1.0000 -0.5225842473
O   O67       1.0  0.54700  0.19930  0.26140  1.0000 -0.5225842473
O   O68       1.0  0.45300  0.69930  0.23860  1.0000 -0.5225842473
O   O69       1.0  0.94860  0.35900  0.20900  1.0000 -0.5283877355
O   O70       1.0  0.05140  0.85900  0.29100  1.0000 -0.5283877355
O   O71       1.0  0.44860  0.64100  0.79100  1.0000 -0.5283877355
O   O72       1.0  0.55140  0.14100  0.70900  1.0000 -0.5283877355
O   O73       1.0  0.05140  0.64100  0.79100  1.0000 -0.5283877355
O   O74       1.0  0.94860  0.14100  0.70900  1.0000 -0.5283877355
O   O75       1.0  0.55140  0.35900  0.20900  1.0000 -0.5283877355
O   O76       1.0  0.44860  0.85900  0.29100  1.0000 -0.5283877355
O   O77       1.0  0.25000  0.58590  0.15110  1.0000 -0.5283877355
O   O78       1.0  0.75000  0.08590  0.34890  1.0000 -0.5283877355
O   O79       1.0  0.75000  0.41410  0.84890  1.0000 -0.5283877355
O   O80       1.0  0.25000  0.91410  0.65110  1.0000 -0.5283877355
