# DDEC6 charges by PACMAN v1.1 (https://github.com/mtap-research/PACMAN-charge/)
data_2011[ZnSi][pcu]3[FSR]1
_chemical_formula_sum              "Zn4 Si4 H128 C176 N16 F24"
_cell_length_a       19.9188
_cell_length_b       19.9188
_cell_length_c       15.2892
_cell_angle_alpha    90
_cell_angle_beta     90
_cell_angle_gamma    90

_symmetry_space_group_name_H-M    "P 1"
_symmetry_Int_Tables_number       1

loop_
  _symmetry_equiv_pos_as_xyz
  'x, y, z'

loop_
  _atom_site_type_symbol
  _atom_site_label
  _atom_site_symmetry_multiplicity
  _atom_site_fract_x
  _atom_site_fract_y
  _atom_site_fract_z
  _atom_site_occupancy
  _atom_site_charge
Zn  Zn1       1.0  0.50000  0.00000  0.89942  1.0000 0.7427165416
Zn  Zn2       1.0  0.50000  0.00000  0.39942  1.0000 0.7427165416
Zn  Zn3       1.0  0.00000  0.50000  0.60058  1.0000 0.7427165416
Zn  Zn4       1.0  0.00000  0.50000  0.10058  1.0000 0.7427165416
Si  Si1       1.0  0.50000  0.00000  0.14857  1.0000 1.727326801
Si  Si2       1.0  0.50000  0.00000  0.64857  1.0000 1.727326801
Si  Si3       1.0  0.00000  0.50000  0.35143  1.0000 1.727326801
Si  Si4       1.0  0.00000  0.50000  0.85143  1.0000 1.7231894042
H   H1        1.0  0.44830  0.88460  0.78700  1.0000 0.1238616295
H   H2        1.0  0.55170  0.11540  0.78700  1.0000 0.1238616295
H   H3        1.0  0.61540  0.94830  0.78700  1.0000 0.1238616295
H   H4        1.0  0.38460  0.05170  0.78700  1.0000 0.1238616295
H   H5        1.0  0.55170  0.88460  0.28700  1.0000 0.1238616295
H   H6        1.0  0.44830  0.11540  0.28700  1.0000 0.1238616295
H   H7        1.0  0.38460  0.94830  0.28700  1.0000 0.1238616295
H   H8        1.0  0.61540  0.05170  0.28700  1.0000 0.1238616295
H   H9        1.0  0.44390  0.76850  0.78240  1.0000 0.1340682069
H   H10       1.0  0.55610  0.23150  0.78240  1.0000 0.1340682069
H   H11       1.0  0.73150  0.94390  0.78240  1.0000 0.1340682069
H   H12       1.0  0.26850  0.05610  0.78240  1.0000 0.1340682069
H   H13       1.0  0.55610  0.76850  0.28240  1.0000 0.1340682069
H   H14       1.0  0.44390  0.23150  0.28240  1.0000 0.1340682069
H   H15       1.0  0.26850  0.94390  0.28240  1.0000 0.1340682069
H   H16       1.0  0.73150  0.05610  0.28240  1.0000 0.1340682069
H   H17       1.0  0.54930  0.76440  0.00920  1.0000 0.1340682069
H   H18       1.0  0.45070  0.23560  0.00920  1.0000 0.1340682069
H   H19       1.0  0.73560  0.04930  0.00920  1.0000 0.1340682069
H   H20       1.0  0.26440  0.95070  0.00920  1.0000 0.1340682069
H   H21       1.0  0.45070  0.76440  0.50920  1.0000 0.1340682069
H   H22       1.0  0.54930  0.23560  0.50920  1.0000 0.1340682069
H   H23       1.0  0.26440  0.04930  0.50920  1.0000 0.1340682069
H   H24       1.0  0.73560  0.95070  0.50920  1.0000 0.1340682069
H   H25       1.0  0.54740  0.88070  0.01010  1.0000 0.1238616295
H   H26       1.0  0.45260  0.11930  0.01010  1.0000 0.1238616295
H   H27       1.0  0.61930  0.04740  0.01010  1.0000 0.1238616295
H   H28       1.0  0.38070  0.95260  0.01010  1.0000 0.1238616295
H   H29       1.0  0.45260  0.88070  0.51010  1.0000 0.1238616295
H   H30       1.0  0.54740  0.11930  0.51010  1.0000 0.1238616295
H   H31       1.0  0.38070  0.04740  0.51010  1.0000 0.1238616295
H   H32       1.0  0.61930  0.95260  0.51010  1.0000 0.1238616295
H   H33       1.0  0.40300  0.66630  0.84410  1.0000 0.1114459803
H   H34       1.0  0.59700  0.33370  0.84410  1.0000 0.1114459803
H   H35       1.0  0.83370  0.90300  0.84410  1.0000 0.1114459803
H   H36       1.0  0.16630  0.09700  0.84410  1.0000 0.1114459803
H   H37       1.0  0.59700  0.66630  0.34410  1.0000 0.1114459803
H   H38       1.0  0.40300  0.33370  0.34410  1.0000 0.1114459803
H   H39       1.0  0.16630  0.90300  0.34410  1.0000 0.1114459803
H   H40       1.0  0.83370  0.09700  0.34410  1.0000 0.1114459803
H   H41       1.0  0.40400  0.54940  0.84050  1.0000 0.1114459803
H   H42       1.0  0.59600  0.45060  0.84050  1.0000 0.1114459803
H   H43       1.0  0.95060  0.90400  0.84050  1.0000 0.1114459803
H   H44       1.0  0.04940  0.09600  0.84050  1.0000 0.1114459803
H   H45       1.0  0.59600  0.54940  0.34050  1.0000 0.1114459803
H   H46       1.0  0.40400  0.45060  0.34050  1.0000 0.1114459803
H   H47       1.0  0.04940  0.90400  0.34050  1.0000 0.1114459803
H   H48       1.0  0.95060  0.09600  0.34050  1.0000 0.1114459803
H   H49       1.0  0.59540  0.55010  0.92960  1.0000 0.1114459803
H   H50       1.0  0.40460  0.44990  0.92960  1.0000 0.1114459803
H   H51       1.0  0.94990  0.09540  0.92960  1.0000 0.1114459803
H   H52       1.0  0.05010  0.90460  0.92960  1.0000 0.1114459803
H   H53       1.0  0.40460  0.55010  0.42960  1.0000 0.1114459803
H   H54       1.0  0.59540  0.44990  0.42960  1.0000 0.1114459803
H   H55       1.0  0.05010  0.09540  0.42960  1.0000 0.1114459803
H   H56       1.0  0.94990  0.90460  0.42960  1.0000 0.1114459803
H   H57       1.0  0.59270  0.66620  0.93920  1.0000 0.1114459803
H   H58       1.0  0.40730  0.33380  0.93920  1.0000 0.1114459803
H   H59       1.0  0.83380  0.09270  0.93920  1.0000 0.1114459803
H   H60       1.0  0.16620  0.90730  0.93920  1.0000 0.1114459803
H   H61       1.0  0.40730  0.66620  0.43920  1.0000 0.1114459803
H   H62       1.0  0.59270  0.33380  0.43920  1.0000 0.1114459803
H   H63       1.0  0.16620  0.09270  0.43920  1.0000 0.1114459803
H   H64       1.0  0.83380  0.90730  0.43920  1.0000 0.1114459803
H   H65       1.0  0.94830  0.61540  0.71300  1.0000 0.1238616295
H   H66       1.0  0.05170  0.38460  0.71300  1.0000 0.1238616295
H   H67       1.0  0.11540  0.55170  0.71300  1.0000 0.1238616295
H   H68       1.0  0.88460  0.44830  0.71300  1.0000 0.1238616295
H   H69       1.0  0.05170  0.61540  0.21300  1.0000 0.1238616295
H   H70       1.0  0.94830  0.38460  0.21300  1.0000 0.1238616295
H   H71       1.0  0.88460  0.55170  0.21300  1.0000 0.1238616295
H   H72       1.0  0.11540  0.44830  0.21300  1.0000 0.1238616295
H   H73       1.0  0.94390  0.73150  0.71760  1.0000 0.1340682069
H   H74       1.0  0.05610  0.26850  0.71760  1.0000 0.1340682069
H   H75       1.0  0.23150  0.55610  0.71760  1.0000 0.1340682069
H   H76       1.0  0.76850  0.44390  0.71760  1.0000 0.1340682069
H   H77       1.0  0.05610  0.73150  0.21760  1.0000 0.1340682069
H   H78       1.0  0.94390  0.26850  0.21760  1.0000 0.1340682069
H   H79       1.0  0.76850  0.55610  0.21760  1.0000 0.1340682069
H   H80       1.0  0.23150  0.44390  0.21760  1.0000 0.1340682069
H   H81       1.0  0.04930  0.73560  0.49080  1.0000 0.1340682069
H   H82       1.0  0.95070  0.26440  0.49080  1.0000 0.1340682069
H   H83       1.0  0.23560  0.45070  0.49080  1.0000 0.1340682069
H   H84       1.0  0.76440  0.54930  0.49080  1.0000 0.1340682069
H   H85       1.0  0.95070  0.73560  0.99080  1.0000 0.1340682069
H   H86       1.0  0.04930  0.26440  0.99080  1.0000 0.1340682069
H   H87       1.0  0.76440  0.45070  0.99080  1.0000 0.1340682069
H   H88       1.0  0.23560  0.54930  0.99080  1.0000 0.1340682069
H   H89       1.0  0.04740  0.61930  0.48990  1.0000 0.1238616295
H   H90       1.0  0.95260  0.38070  0.48990  1.0000 0.1238616295
H   H91       1.0  0.11930  0.45260  0.48990  1.0000 0.1238616295
H   H92       1.0  0.88070  0.54740  0.48990  1.0000 0.1238616295
H   H93       1.0  0.95260  0.61930  0.98990  1.0000 0.1238616295
H   H94       1.0  0.04740  0.38070  0.98990  1.0000 0.1238616295
H   H95       1.0  0.88070  0.45260  0.98990  1.0000 0.1238616295
H   H96       1.0  0.11930  0.54740  0.98990  1.0000 0.1238616295
H   H97       1.0  0.90300  0.83370  0.65590  1.0000 0.1114459803
H   H98       1.0  0.09700  0.16630  0.65590  1.0000 0.1114459803
H   H99       1.0  0.33370  0.59700  0.65590  1.0000 0.1114459803
H   H100      1.0  0.66630  0.40300  0.65590  1.0000 0.1114459803
H   H101      1.0  0.09700  0.83370  0.15590  1.0000 0.1114459803
H   H102      1.0  0.90300  0.16630  0.15590  1.0000 0.1114459803
H   H103      1.0  0.66630  0.59700  0.15590  1.0000 0.1114459803
H   H104      1.0  0.33370  0.40300  0.15590  1.0000 0.1114459803
H   H105      1.0  0.90400  0.95060  0.65950  1.0000 0.1114459803
H   H106      1.0  0.09600  0.04940  0.65950  1.0000 0.1114459803
H   H107      1.0  0.45060  0.59600  0.65950  1.0000 0.1114459803
H   H108      1.0  0.54940  0.40400  0.65950  1.0000 0.1114459803
H   H109      1.0  0.09600  0.95060  0.15950  1.0000 0.1114459803
H   H110      1.0  0.90400  0.04940  0.15950  1.0000 0.1114459803
H   H111      1.0  0.54940  0.59600  0.15950  1.0000 0.1114459803
H   H112      1.0  0.45060  0.40400  0.15950  1.0000 0.1114459803
H   H113      1.0  0.09540  0.94990  0.57040  1.0000 0.1114459803
H   H114      1.0  0.90460  0.05010  0.57040  1.0000 0.1114459803
H   H115      1.0  0.44990  0.40460  0.57040  1.0000 0.1114459803
H   H116      1.0  0.55010  0.59540  0.57040  1.0000 0.1114459803
H   H117      1.0  0.90460  0.94990  0.07040  1.0000 0.1114459803
H   H118      1.0  0.09540  0.05010  0.07040  1.0000 0.1114459803
H   H119      1.0  0.55010  0.40460  0.07040  1.0000 0.1114459803
H   H120      1.0  0.44990  0.59540  0.07040  1.0000 0.1114459803
H   H121      1.0  0.09270  0.83380  0.56080  1.0000 0.1114459803
H   H122      1.0  0.90730  0.16620  0.56080  1.0000 0.1114459803
H   H123      1.0  0.33380  0.40730  0.56080  1.0000 0.1114459803
H   H124      1.0  0.66620  0.59270  0.56080  1.0000 0.1114459803
H   H125      1.0  0.90730  0.83380  0.06080  1.0000 0.1114459803
H   H126      1.0  0.09270  0.16620  0.06080  1.0000 0.1114459803
H   H127      1.0  0.66620  0.40730  0.06080  1.0000 0.1114459803
H   H128      1.0  0.33380  0.59270  0.06080  1.0000 0.1114459803
C   C1        1.0  0.46852  0.85964  0.83290  1.0000 0.1039367719
C   C2        1.0  0.53148  0.14036  0.83290  1.0000 0.1039367719
C   C3        1.0  0.64036  0.96852  0.83290  1.0000 0.1039367719
C   C4        1.0  0.35964  0.03148  0.83290  1.0000 0.1039367719
C   C5        1.0  0.53148  0.85964  0.33290  1.0000 0.1039367719
C   C6        1.0  0.46852  0.14036  0.33290  1.0000 0.1039367719
C   C7        1.0  0.35964  0.96852  0.33290  1.0000 0.1039367719
C   C8        1.0  0.64036  0.03148  0.33290  1.0000 0.1039367719
C   C9        1.0  0.46640  0.79034  0.82930  1.0000 -0.1921774549
C   C10       1.0  0.53360  0.20966  0.82930  1.0000 -0.1921774549
C   C11       1.0  0.70966  0.96640  0.82930  1.0000 -0.1921774549
C   C12       1.0  0.29034  0.03360  0.82930  1.0000 -0.1921774549
C   C13       1.0  0.53360  0.79034  0.32930  1.0000 -0.1921774549
C   C14       1.0  0.46640  0.20966  0.32930  1.0000 -0.1921774549
C   C15       1.0  0.29034  0.96640  0.32930  1.0000 -0.1921774549
C   C16       1.0  0.70966  0.03360  0.32930  1.0000 -0.1921774549
C   C17       1.0  0.49730  0.75260  0.89460  1.0000 0.1114459803
C   C18       1.0  0.50270  0.24740  0.89460  1.0000 0.1114459803
C   C19       1.0  0.74740  0.99730  0.89460  1.0000 0.1114459803
C   C20       1.0  0.25260  0.00270  0.89460  1.0000 0.1114459803
C   C21       1.0  0.50270  0.75260  0.39460  1.0000 0.1114459803
C   C22       1.0  0.49730  0.24740  0.39460  1.0000 0.1114459803
C   C23       1.0  0.25260  0.99730  0.39460  1.0000 0.1114459803
C   C24       1.0  0.74740  0.00270  0.39460  1.0000 0.1114459803
C   C25       1.0  0.52790  0.78798  0.96290  1.0000 -0.1921774549
C   C26       1.0  0.47210  0.21202  0.96290  1.0000 -0.1921774549
C   C27       1.0  0.71202  0.02790  0.96290  1.0000 -0.1921774549
C   C28       1.0  0.28798  0.97210  0.96290  1.0000 -0.1921774549
C   C29       1.0  0.47210  0.78798  0.46290  1.0000 -0.1921774549
C   C30       1.0  0.52790  0.21202  0.46290  1.0000 -0.1921774549
C   C31       1.0  0.28798  0.02790  0.46290  1.0000 -0.1921774549
C   C32       1.0  0.71202  0.97210  0.46290  1.0000 -0.1921774549
C   C33       1.0  0.52688  0.85741  0.96290  1.0000 0.1039367719
C   C34       1.0  0.47312  0.14259  0.96290  1.0000 0.1039367719
C   C35       1.0  0.64259  0.02688  0.96290  1.0000 0.1039367719
C   C36       1.0  0.35741  0.97312  0.96290  1.0000 0.1039367719
C   C37       1.0  0.47312  0.85741  0.46290  1.0000 0.1039367719
C   C38       1.0  0.52688  0.14259  0.46290  1.0000 0.1039367719
C   C39       1.0  0.35741  0.02688  0.46290  1.0000 0.1039367719
C   C40       1.0  0.64259  0.97312  0.46290  1.0000 0.1039367719
C   C41       1.0  0.49790  0.67882  0.89150  1.0000 0.0499119221
C   C42       1.0  0.50210  0.32118  0.89150  1.0000 0.0499119221
C   C43       1.0  0.82118  0.99790  0.89150  1.0000 0.0499119221
C   C44       1.0  0.17882  0.00210  0.89150  1.0000 0.0499119221
C   C45       1.0  0.50210  0.67882  0.39150  1.0000 0.0499119221
C   C46       1.0  0.49790  0.32118  0.39150  1.0000 0.0499119221
C   C47       1.0  0.17882  0.99790  0.39150  1.0000 0.0499119221
C   C48       1.0  0.82118  0.00210  0.39150  1.0000 0.0499119221
C   C49       1.0  0.44210  0.64281  0.86240  1.0000 -0.1477296573
C   C50       1.0  0.55790  0.35719  0.86240  1.0000 -0.1477296573
C   C51       1.0  0.85719  0.94210  0.86240  1.0000 -0.1477296573
C   C52       1.0  0.14281  0.05790  0.86240  1.0000 -0.1477296573
C   C53       1.0  0.55790  0.64281  0.36240  1.0000 -0.1477296573
C   C54       1.0  0.44210  0.35719  0.36240  1.0000 -0.1477296573
C   C55       1.0  0.14281  0.94210  0.36240  1.0000 -0.1477296573
C   C56       1.0  0.85719  0.05790  0.36240  1.0000 -0.1477296573
C   C57       1.0  0.44280  0.57300  0.85980  1.0000 -0.1477296573
C   C58       1.0  0.55720  0.42700  0.85980  1.0000 -0.1477296573
C   C59       1.0  0.92700  0.94280  0.85980  1.0000 -0.1477296573
C   C60       1.0  0.07300  0.05720  0.85980  1.0000 -0.1477296573
C   C61       1.0  0.55720  0.57300  0.35980  1.0000 -0.1477296573
C   C62       1.0  0.44280  0.42700  0.35980  1.0000 -0.1477296573
C   C63       1.0  0.07300  0.94280  0.35980  1.0000 -0.1477296573
C   C64       1.0  0.92700  0.05720  0.35980  1.0000 -0.1477296573
C   C65       1.0  0.49980  0.53729  0.88520  1.0000 0.0691306894
C   C66       1.0  0.50020  0.46271  0.88520  1.0000 0.0691306894
C   C67       1.0  0.96271  0.99980  0.88520  1.0000 0.0691306894
C   C68       1.0  0.03729  0.00020  0.88520  1.0000 0.0691306894
C   C69       1.0  0.50020  0.53729  0.38520  1.0000 0.0691306894
C   C70       1.0  0.49980  0.46271  0.38520  1.0000 0.0691306894
C   C71       1.0  0.03729  0.99980  0.38520  1.0000 0.0691306894
C   C72       1.0  0.96271  0.00020  0.38520  1.0000 0.0691306894
C   C73       1.0  0.55580  0.57349  0.91330  1.0000 -0.1407596423
C   C74       1.0  0.44420  0.42651  0.91330  1.0000 -0.1407596423
C   C75       1.0  0.92651  0.05580  0.91330  1.0000 -0.1407596423
C   C76       1.0  0.07349  0.94420  0.91330  1.0000 -0.1407596423
C   C77       1.0  0.44420  0.57349  0.41330  1.0000 -0.1407596423
C   C78       1.0  0.55580  0.42651  0.41330  1.0000 -0.1407596423
C   C79       1.0  0.07349  0.05580  0.41330  1.0000 -0.1407596423
C   C80       1.0  0.92651  0.94420  0.41330  1.0000 -0.1407596423
C   C81       1.0  0.55450  0.64281  0.91780  1.0000 -0.1477296573
C   C82       1.0  0.44550  0.35719  0.91780  1.0000 -0.1477296573
C   C83       1.0  0.85719  0.05450  0.91780  1.0000 -0.1477296573
C   C84       1.0  0.14281  0.94550  0.91780  1.0000 -0.1477296573
C   C85       1.0  0.44550  0.64281  0.41780  1.0000 -0.1477296573
C   C86       1.0  0.55450  0.35719  0.41780  1.0000 -0.1477296573
C   C87       1.0  0.14281  0.05450  0.41780  1.0000 -0.1477296573
C   C88       1.0  0.85719  0.94550  0.41780  1.0000 -0.1477296573
C   C89       1.0  0.96852  0.64036  0.66710  1.0000 0.1039367719
C   C90       1.0  0.03148  0.35964  0.66710  1.0000 0.1039367719
C   C91       1.0  0.14036  0.53148  0.66710  1.0000 0.1039367719
C   C92       1.0  0.85964  0.46852  0.66710  1.0000 0.1039367719
C   C93       1.0  0.03148  0.64036  0.16710  1.0000 0.1039367719
C   C94       1.0  0.96852  0.35964  0.16710  1.0000 0.1039367719
C   C95       1.0  0.85964  0.53148  0.16710  1.0000 0.1039367719
C   C96       1.0  0.14036  0.46852  0.16710  1.0000 0.1039367719
C   C97       1.0  0.96640  0.70966  0.67070  1.0000 -0.1921774549
C   C98       1.0  0.03360  0.29034  0.67070  1.0000 -0.1921774549
C   C99       1.0  0.20966  0.53360  0.67070  1.0000 -0.1921774549
C   C100      1.0  0.79034  0.46640  0.67070  1.0000 -0.1921774549
C   C101      1.0  0.03360  0.70966  0.17070  1.0000 -0.1921774549
C   C102      1.0  0.96640  0.29034  0.17070  1.0000 -0.1921774549
C   C103      1.0  0.79034  0.53360  0.17070  1.0000 -0.1921774549
C   C104      1.0  0.20966  0.46640  0.17070  1.0000 -0.1921774549
C   C105      1.0  0.99730  0.74740  0.60540  1.0000 0.1114459803
C   C106      1.0  0.00270  0.25260  0.60540  1.0000 0.1114459803
C   C107      1.0  0.24740  0.50270  0.60540  1.0000 0.1114459803
C   C108      1.0  0.75260  0.49730  0.60540  1.0000 0.1114459803
C   C109      1.0  0.00270  0.74740  0.10540  1.0000 0.1114459803
C   C110      1.0  0.99730  0.25260  0.10540  1.0000 0.1114459803
C   C111      1.0  0.75260  0.50270  0.10540  1.0000 0.1114459803
C   C112      1.0  0.24740  0.49730  0.10540  1.0000 0.1114459803
C   C113      1.0  0.02790  0.71202  0.53710  1.0000 -0.1921774549
C   C114      1.0  0.97210  0.28798  0.53710  1.0000 -0.1921774549
C   C115      1.0  0.21202  0.47210  0.53710  1.0000 -0.1921774549
C   C116      1.0  0.78798  0.52790  0.53710  1.0000 -0.1921774549
C   C117      1.0  0.97210  0.71202  0.03710  1.0000 -0.1921774549
C   C118      1.0  0.02790  0.28798  0.03710  1.0000 -0.1921774549
C   C119      1.0  0.78798  0.47210  0.03710  1.0000 -0.1921774549
C   C120      1.0  0.21202  0.52790  0.03710  1.0000 -0.1921774549
C   C121      1.0  0.02688  0.64259  0.53710  1.0000 0.1039367719
C   C122      1.0  0.97312  0.35741  0.53710  1.0000 0.1039367719
C   C123      1.0  0.14259  0.47312  0.53710  1.0000 0.1039367719
C   C124      1.0  0.85741  0.52688  0.53710  1.0000 0.1039367719
C   C125      1.0  0.97312  0.64259  0.03710  1.0000 0.1039367719
C   C126      1.0  0.02688  0.35741  0.03710  1.0000 0.1039367719
C   C127      1.0  0.85741  0.47312  0.03710  1.0000 0.1039367719
C   C128      1.0  0.14259  0.52688  0.03710  1.0000 0.1039367719
C   C129      1.0  0.99790  0.82118  0.60850  1.0000 0.0499119221
C   C130      1.0  0.00210  0.17882  0.60850  1.0000 0.0499119221
C   C131      1.0  0.32118  0.50210  0.60850  1.0000 0.0499119221
C   C132      1.0  0.67882  0.49790  0.60850  1.0000 0.0499119221
C   C133      1.0  0.00210  0.82118  0.10850  1.0000 0.0499119221
C   C134      1.0  0.99790  0.17882  0.10850  1.0000 0.0499119221
C   C135      1.0  0.67882  0.50210  0.10850  1.0000 0.0499119221
C   C136      1.0  0.32118  0.49790  0.10850  1.0000 0.0499119221
C   C137      1.0  0.94210  0.85719  0.63760  1.0000 -0.1477296573
C   C138      1.0  0.05790  0.14281  0.63760  1.0000 -0.1477296573
C   C139      1.0  0.35719  0.55790  0.63760  1.0000 -0.1477296573
C   C140      1.0  0.64281  0.44210  0.63760  1.0000 -0.1477296573
C   C141      1.0  0.05790  0.85719  0.13760  1.0000 -0.1477296573
C   C142      1.0  0.94210  0.14281  0.13760  1.0000 -0.1477296573
C   C143      1.0  0.64281  0.55790  0.13760  1.0000 -0.1477296573
C   C144      1.0  0.35719  0.44210  0.13760  1.0000 -0.1477296573
C   C145      1.0  0.94280  0.92700  0.64020  1.0000 -0.1477296573
C   C146      1.0  0.05720  0.07300  0.64020  1.0000 -0.1477296573
C   C147      1.0  0.42700  0.55720  0.64020  1.0000 -0.1477296573
C   C148      1.0  0.57300  0.44280  0.64020  1.0000 -0.1477296573
C   C149      1.0  0.05720  0.92700  0.14020  1.0000 -0.1477296573
C   C150      1.0  0.94280  0.07300  0.14020  1.0000 -0.1477296573
C   C151      1.0  0.57300  0.55720  0.14020  1.0000 -0.1477296573
C   C152      1.0  0.42700  0.44280  0.14020  1.0000 -0.1477296573
C   C153      1.0  0.99980  0.96271  0.61480  1.0000 0.0691306894
C   C154      1.0  0.00020  0.03729  0.61480  1.0000 0.0691306894
C   C155      1.0  0.46271  0.50020  0.61480  1.0000 0.0691306894
C   C156      1.0  0.53729  0.49980  0.61480  1.0000 0.0691306894
C   C157      1.0  0.00020  0.96271  0.11480  1.0000 0.0691306894
C   C158      1.0  0.99980  0.03729  0.11480  1.0000 0.0691306894
C   C159      1.0  0.53729  0.50020  0.11480  1.0000 0.0691306894
C   C160      1.0  0.46271  0.49980  0.11480  1.0000 0.0691306894
C   C161      1.0  0.05580  0.92651  0.58670  1.0000 -0.1407596423
C   C162      1.0  0.94420  0.07349  0.58670  1.0000 -0.1407596423
C   C163      1.0  0.42651  0.44420  0.58670  1.0000 -0.1407596423
C   C164      1.0  0.57349  0.55580  0.58670  1.0000 -0.1407596423
C   C165      1.0  0.94420  0.92651  0.08670  1.0000 -0.1407596423
C   C166      1.0  0.05580  0.07349  0.08670  1.0000 -0.1407596423
C   C167      1.0  0.57349  0.44420  0.08670  1.0000 -0.1407596423
C   C168      1.0  0.42651  0.55580  0.08670  1.0000 -0.1407596423
C   C169      1.0  0.05450  0.85719  0.58220  1.0000 -0.1477296573
C   C170      1.0  0.94550  0.14281  0.58220  1.0000 -0.1477296573
C   C171      1.0  0.35719  0.44550  0.58220  1.0000 -0.1477296573
C   C172      1.0  0.64281  0.55450  0.58220  1.0000 -0.1477296573
C   C173      1.0  0.94550  0.85719  0.08220  1.0000 -0.1477296573
C   C174      1.0  0.05450  0.14281  0.08220  1.0000 -0.1477296573
C   C175      1.0  0.64281  0.44550  0.08220  1.0000 -0.1477296573
C   C176      1.0  0.35719  0.55450  0.08220  1.0000 -0.1477296573
N   N1        1.0  0.49808  0.89313  0.89882  1.0000 -0.2333277967
N   N2        1.0  0.50192  0.10687  0.89882  1.0000 -0.2333277967
N   N3        1.0  0.60687  0.99808  0.89882  1.0000 -0.2333277967
N   N4        1.0  0.39313  0.00192  0.89882  1.0000 -0.2333277967
N   N5        1.0  0.50192  0.89313  0.39882  1.0000 -0.2333277967
N   N6        1.0  0.49808  0.10687  0.39882  1.0000 -0.2333277967
N   N7        1.0  0.39313  0.99808  0.39882  1.0000 -0.2333277967
N   N8        1.0  0.60687  0.00192  0.39882  1.0000 -0.2333277967
N   N9        1.0  0.99808  0.60687  0.60118  1.0000 -0.2333277967
N   N10       1.0  0.00192  0.39313  0.60118  1.0000 -0.2333277967
N   N11       1.0  0.10687  0.50192  0.60118  1.0000 -0.2333277967
N   N12       1.0  0.89313  0.49808  0.60118  1.0000 -0.2333277967
N   N13       1.0  0.00192  0.60687  0.10118  1.0000 -0.2333277967
N   N14       1.0  0.99808  0.39313  0.10118  1.0000 -0.2333277967
N   N15       1.0  0.89313  0.50192  0.10118  1.0000 -0.2333277967
N   N16       1.0  0.10687  0.49808  0.10118  1.0000 -0.2333277967
F   F1        1.0  0.50000  0.00000  0.03660  1.0000 -0.5135458716
F   F2        1.0  0.50000  0.00000  0.53660  1.0000 -0.5135458716
F   F3        1.0  0.44908  0.93306  0.14858  1.0000 -0.5585989076
F   F4        1.0  0.55092  0.06694  0.14858  1.0000 -0.5585989076
F   F5        1.0  0.56694  0.94908  0.14858  1.0000 -0.5585989076
F   F6        1.0  0.43306  0.05092  0.14858  1.0000 -0.5585989076
F   F7        1.0  0.55092  0.93306  0.64858  1.0000 -0.5585989076
F   F8        1.0  0.44908  0.06694  0.64858  1.0000 -0.5585989076
F   F9        1.0  0.43306  0.94908  0.64858  1.0000 -0.5585989076
F   F10       1.0  0.56694  0.05092  0.64858  1.0000 -0.5585989076
F   F11       1.0  0.50000  0.00000  0.26000  1.0000 -0.5135458716
F   F12       1.0  0.50000  0.00000  0.76000  1.0000 -0.5135458716
F   F13       1.0  0.00000  0.50000  0.46340  1.0000 -0.5135458716
F   F14       1.0  0.00000  0.50000  0.96340  1.0000 -0.5176228974
F   F15       1.0  0.94908  0.56694  0.35142  1.0000 -0.5585989076
F   F16       1.0  0.05092  0.43306  0.35142  1.0000 -0.5585989076
F   F17       1.0  0.06694  0.55092  0.35142  1.0000 -0.5585989076
F   F18       1.0  0.93306  0.44908  0.35142  1.0000 -0.5585989076
F   F19       1.0  0.05092  0.56694  0.85142  1.0000 -0.5585989076
F   F20       1.0  0.94908  0.43306  0.85142  1.0000 -0.5585989076
F   F21       1.0  0.93306  0.55092  0.85142  1.0000 -0.5585989076
F   F22       1.0  0.06694  0.44908  0.85142  1.0000 -0.5585989076
F   F23       1.0  0.00000  0.50000  0.24000  1.0000 -0.5135458716
F   F24       1.0  0.00000  0.50000  0.74000  1.0000 -0.5135458716
