# DDEC6 charges by PACMAN v1.1 (https://github.com/mtap-research/PACMAN-charge/)
data_2011[Fe][dia]3[FSR]1
_chemical_formula_sum              "Fe8 H144 C192 N32 O16"
_cell_length_a       19.481
_cell_length_b       19.481
_cell_length_c       19.481
_cell_angle_alpha    120.51
_cell_angle_beta     120.51
_cell_angle_gamma    89.1193

_symmetry_space_group_name_H-M    "P 1"
_symmetry_Int_Tables_number       1

loop_
  _symmetry_equiv_pos_as_xyz
  'x, y, z'

loop_
  _atom_site_type_symbol
  _atom_site_label
  _atom_site_symmetry_multiplicity
  _atom_site_fract_x
  _atom_site_fract_y
  _atom_site_fract_z
  _atom_site_occupancy
  _atom_site_charge
Fe  Fe1       1.0  0.27955  0.27955  0.00000  1.0000 0.6731447552
Fe  Fe2       1.0  0.72045  0.72045  0.00000  1.0000 0.6731447552
Fe  Fe3       1.0  0.47045  0.97045  0.50000  1.0000 0.6731447552
Fe  Fe4       1.0  0.02955  0.52955  0.50000  1.0000 0.6731447552
Fe  Fe5       1.0  0.07976  0.12500  0.45476  1.0000 0.6849201147
Fe  Fe6       1.0  0.87500  0.32976  0.95476  1.0000 0.6855836336
Fe  Fe7       1.0  0.67024  0.62500  0.54524  1.0000 0.6855836336
Fe  Fe8       1.0  0.37500  0.92024  0.04524  1.0000 0.6849201147
H   H1        1.0  0.16100  0.11730  0.27330  1.0000 0.1351058569
H   H2        1.0  0.88270  0.15600  0.04370  1.0000 0.1351058569
H   H3        1.0  0.84400  0.88770  0.72670  1.0000 0.1351058569
H   H4        1.0  0.11230  0.83900  0.95630  1.0000 0.1351058569
H   H5        1.0  0.58900  0.36230  0.45630  1.0000 0.1351058569
H   H6        1.0  0.63770  0.09400  0.22670  1.0000 0.1351058569
H   H7        1.0  0.90600  0.13270  0.54370  1.0000 0.1351058569
H   H8        1.0  0.86730  0.41100  0.77330  1.0000 0.1351058569
H   H9        1.0  0.27500  0.22340  0.34000  1.0000 0.1089573799
H   H10       1.0  0.77660  0.11660  0.05160  1.0000 0.1089573799
H   H11       1.0  0.88340  0.93500  0.66000  1.0000 0.1089573799
H   H12       1.0  0.06500  0.72500  0.94840  1.0000 0.1089573799
H   H13       1.0  0.47500  0.31500  0.44840  1.0000 0.1089573799
H   H14       1.0  0.68500  0.13340  0.16000  1.0000 0.1089573799
H   H15       1.0  0.86660  0.02660  0.55160  1.0000 0.1089573799
H   H16       1.0  0.97340  0.52500  0.84000  1.0000 0.1089573799
H   H17       1.0  0.37050  0.32040  0.50930  1.0000 0.1089573799
H   H18       1.0  0.67960  0.18890  0.05010  1.0000 0.1089573799
H   H19       1.0  0.81110  0.86120  0.49070  1.0000 0.1089573799
H   H20       1.0  0.13880  0.62950  0.94990  1.0000 0.1089573799
H   H21       1.0  0.37950  0.38880  0.44990  1.0000 0.1089573799
H   H22       1.0  0.61120  0.06110  0.99070  1.0000 0.1089573799
H   H23       1.0  0.93890  0.92960  0.55010  1.0000 0.1089573799
H   H24       1.0  0.07040  0.62050  0.00930  1.0000 0.1089573799
H   H25       1.0  0.34640  0.31360  0.61020  1.0000 0.1189475879
H   H26       1.0  0.68640  0.29660  0.03280  1.0000 0.1189475879
H   H27       1.0  0.70340  0.73620  0.38980  1.0000 0.1189475879
H   H28       1.0  0.26380  0.65360  0.96720  1.0000 0.1189475879
H   H29       1.0  0.40360  0.51380  0.46720  1.0000 0.1189475879
H   H30       1.0  0.48620  0.95340  0.88980  1.0000 0.1189475879
H   H31       1.0  0.04660  0.93640  0.53280  1.0000 0.1189475879
H   H32       1.0  0.06360  0.59640  0.11020  1.0000 0.1189475879
H   H33       1.0  0.34040  0.24060  0.66380  1.0000 0.0891566281
H   H34       1.0  0.75940  0.42320  0.09980  1.0000 0.0891566281
H   H35       1.0  0.57680  0.67660  0.33620  1.0000 0.0891566281
H   H36       1.0  0.32340  0.65960  0.90020  1.0000 0.0891566281
H   H37       1.0  0.40960  0.57340  0.40020  1.0000 0.0891566281
H   H38       1.0  0.42660  0.82680  0.83620  1.0000 0.0891566281
H   H39       1.0  0.17320  0.00940  0.59980  1.0000 0.0891566281
H   H40       1.0  0.99060  0.59040  0.16380  1.0000 0.0891566281
H   H41       1.0  0.40520  0.25990  0.81830  1.0000 0.1295472451
H   H42       1.0  0.74010  0.55840  0.14530  1.0000 0.1295472451
H   H43       1.0  0.44160  0.58690  0.18170  1.0000 0.1295472451
H   H44       1.0  0.41310  0.59480  0.85470  1.0000 0.1295472451
H   H45       1.0  0.34480  0.66310  0.35470  1.0000 0.1295472451
H   H46       1.0  0.33690  0.69160  0.68170  1.0000 0.1295472451
H   H47       1.0  0.30840  0.99010  0.64530  1.0000 0.1295472451
H   H48       1.0  0.00990  0.65520  0.31830  1.0000 0.1295472451
H   H49       1.0  0.39760  0.28200  0.94280  1.0000 0.1015943353
H   H50       1.0  0.71800  0.66080  0.11560  1.0000 0.1015943353
H   H51       1.0  0.33920  0.45480  0.05720  1.0000 0.1015943353
H   H52       1.0  0.54520  0.60240  0.88440  1.0000 0.1015943353
H   H53       1.0  0.35240  0.79520  0.38440  1.0000 0.1015943353
H   H54       1.0  0.20480  0.58920  0.55720  1.0000 0.1015943353
H   H55       1.0  0.41080  0.96800  0.61560  1.0000 0.1015943353
H   H56       1.0  0.03200  0.64760  0.44280  1.0000 0.1015943353
H   H57       1.0  0.15970  0.26360  0.80030  1.0000 0.1089573799
H   H58       1.0  0.73640  0.53670  0.89610  1.0000 0.1089573799
H   H59       1.0  0.46330  0.35940  0.19970  1.0000 0.1089573799
H   H60       1.0  0.64060  0.84030  0.10390  1.0000 0.1089573799
H   H61       1.0  0.59030  0.89060  0.60390  1.0000 0.1089573799
H   H62       1.0  0.10940  0.71330  0.69970  1.0000 0.1089573799
H   H63       1.0  0.28670  0.98640  0.39610  1.0000 0.1089573799
H   H64       1.0  0.01360  0.40970  0.30030  1.0000 0.1089573799
H   H65       1.0  0.15770  0.24150  0.67180  1.0000 0.1351058569
H   H66       1.0  0.75850  0.43030  0.91620  1.0000 0.1351058569
H   H67       1.0  0.56970  0.48590  0.32820  1.0000 0.1351058569
H   H68       1.0  0.51410  0.84230  0.08380  1.0000 0.1351058569
H   H69       1.0  0.59230  0.76410  0.58380  1.0000 0.1351058569
H   H70       1.0  0.23590  0.81970  0.82820  1.0000 0.1351058569
H   H71       1.0  0.18030  0.00850  0.41620  1.0000 0.1351058569
H   H72       1.0  0.99150  0.40770  0.17180  1.0000 0.1351058569
H   H73       1.0  0.16050  0.48500  0.07510  1.0000 0.1351058569
H   H74       1.0  0.51500  0.59010  0.67550  1.0000 0.1351058569
H   H75       1.0  0.40990  0.08540  0.92490  1.0000 0.1351058569
H   H76       1.0  0.91460  0.83950  0.32450  1.0000 0.1351058569
H   H77       1.0  0.58950  0.16460  0.82450  1.0000 0.1351058569
H   H78       1.0  0.83540  0.65990  0.42490  1.0000 0.1351058569
H   H79       1.0  0.34010  0.76500  0.17550  1.0000 0.1351058569
H   H80       1.0  0.23500  0.41050  0.57510  1.0000 0.1351058569
H   H81       1.0  0.16830  0.55440  0.21750  1.0000 0.1015943353
H   H82       1.0  0.44560  0.66310  0.61390  1.0000 0.1015943353
H   H83       1.0  0.33690  0.95080  0.78250  1.0000 0.1015943353
H   H84       1.0  0.04920  0.83170  0.38610  1.0000 0.1015943353
H   H85       1.0  0.58170  0.29920  0.88610  1.0000 0.1015943353
H   H86       1.0  0.70080  0.58690  0.28250  1.0000 0.1015943353
H   H87       1.0  0.41310  0.69560  0.11390  1.0000 0.1015943353
H   H88       1.0  0.30440  0.41830  0.71750  1.0000 0.1015943353
H   H89       1.0  0.21430  0.50140  0.31470  1.0000 0.1089573799
H   H90       1.0  0.49860  0.81330  0.71290  1.0000 0.1089573799
H   H91       1.0  0.18670  0.89960  0.68530  1.0000 0.1089573799
H   H92       1.0  0.10040  0.78570  0.28710  1.0000 0.1089573799
H   H93       1.0  0.53570  0.35040  0.78710  1.0000 0.1089573799
H   H94       1.0  0.64960  0.43670  0.18530  1.0000 0.1089573799
H   H95       1.0  0.56330  0.74860  0.21290  1.0000 0.1089573799
H   H96       1.0  0.25140  0.46430  0.81470  1.0000 0.1089573799
H   H97       1.0  0.26930  0.39250  0.27620  1.0000 0.1189475879
H   H98       1.0  0.60750  0.88370  0.87680  1.0000 0.1189475879
H   H99       1.0  0.11630  0.99310  0.72380  1.0000 0.1189475879
H   H100      1.0  0.00690  0.73070  0.12320  1.0000 0.1189475879
H   H101      1.0  0.48070  0.25690  0.62320  1.0000 0.1189475879
H   H102      1.0  0.74310  0.36630  0.22380  1.0000 0.1189475879
H   H103      1.0  0.63370  0.85750  0.37680  1.0000 0.1189475879
H   H104      1.0  0.14250  0.51930  0.77620  1.0000 0.1189475879
H   H105      1.0  0.34560  0.31910  0.24950  1.0000 0.0891566281
H   H106      1.0  0.68090  0.93040  0.02650  1.0000 0.0891566281
H   H107      1.0  0.06960  0.09610  0.75050  1.0000 0.0891566281
H   H108      1.0  0.90390  0.65440  0.97350  1.0000 0.0891566281
H   H109      1.0  0.40440  0.15390  0.47350  1.0000 0.0891566281
H   H110      1.0  0.84610  0.31960  0.25050  1.0000 0.0891566281
H   H111      1.0  0.68040  0.93090  0.52650  1.0000 0.0891566281
H   H112      1.0  0.06910  0.59560  0.74950  1.0000 0.0891566281
H   H113      1.0  0.45730  0.24100  0.26750  1.0000 0.1295472451
H   H114      1.0  0.75900  0.02650  0.21630  1.0000 0.1295472451
H   H115      1.0  0.97350  0.18980  0.73250  1.0000 0.1295472451
H   H116      1.0  0.81020  0.54270  0.78370  1.0000 0.1295472451
H   H117      1.0  0.29270  0.06020  0.28370  1.0000 0.1295472451
H   H118      1.0  0.93980  0.22350  0.23250  1.0000 0.1295472451
H   H119      1.0  0.77650  0.00900  0.71630  1.0000 0.1295472451
H   H120      1.0  0.99100  0.70730  0.76750  1.0000 0.1295472451
H   H121      1.0  0.47620  0.11080  0.20800  1.0000 0.1015943353
H   H122      1.0  0.88920  0.09720  0.36540  1.0000 0.1015943353
H   H123      1.0  0.90280  0.26820  0.79200  1.0000 0.1015943353
H   H124      1.0  0.73180  0.52380  0.63460  1.0000 0.1015943353
H   H125      1.0  0.27380  0.98180  0.13460  1.0000 0.1015943353
H   H126      1.0  0.01820  0.15280  0.29200  1.0000 0.1015943353
H   H127      1.0  0.84720  0.13920  0.86540  1.0000 0.1015943353
H   H128      1.0  0.86080  0.72620  0.70800  1.0000 0.1015943353
H   H129      1.0  0.25290  0.00530  0.96140  1.0000 0.1089573799
H   H130      1.0  0.99470  0.95610  0.24760  1.0000 0.1089573799
H   H131      1.0  0.04390  0.29150  0.03860  1.0000 0.1089573799
H   H132      1.0  0.70850  0.74710  0.75240  1.0000 0.1089573799
H   H133      1.0  0.49710  0.95850  0.25240  1.0000 0.1089573799
H   H134      1.0  0.04150  0.29390  0.53860  1.0000 0.1089573799
H   H135      1.0  0.70610  0.24470  0.74760  1.0000 0.1089573799
H   H136      1.0  0.75530  0.50290  0.46140  1.0000 0.1089573799
H   H137      1.0  0.22590  0.13120  0.01170  1.0000 0.1295472451
H   H138      1.0  0.86880  0.88050  0.09470  1.0000 0.1295472451
H   H139      1.0  0.11950  0.21420  0.98830  1.0000 0.1295472451
H   H140      1.0  0.78580  0.77410  0.90530  1.0000 0.1295472451
H   H141      1.0  0.52410  0.03580  0.40530  1.0000 0.1295472451
H   H142      1.0  0.96420  0.36950  0.48830  1.0000 0.1295472451
H   H143      1.0  0.63050  0.11880  0.59470  1.0000 0.1295472451
H   H144      1.0  0.88120  0.47590  0.51170  1.0000 0.1295472451
C   C1        1.0  0.18440  0.14990  0.40310  1.0000 0.252438755
C   C2        1.0  0.85010  0.25320  0.03450  1.0000 0.252438755
C   C3        1.0  0.74680  0.78130  0.59690  1.0000 0.252438755
C   C4        1.0  0.21870  0.81560  0.96550  1.0000 0.252438755
C   C5        1.0  0.56560  0.46870  0.46550  1.0000 0.252438755
C   C6        1.0  0.53130  0.99680  0.09690  1.0000 0.252438755
C   C7        1.0  0.00320  0.10010  0.53450  1.0000 0.252438755
C   C8        1.0  0.89990  0.43440  0.90310  1.0000 0.252438755
C   C9        1.0  0.19860  0.15660  0.34240  1.0000 -0.2352150257
C   C10       1.0  0.84340  0.18580  0.04200  1.0000 -0.2352150257
C   C11       1.0  0.81420  0.85620  0.65760  1.0000 -0.2352150257
C   C12       1.0  0.14380  0.80140  0.95800  1.0000 -0.2352150257
C   C13       1.0  0.55140  0.39380  0.45800  1.0000 -0.2352150257
C   C14       1.0  0.60620  0.06420  0.15760  1.0000 -0.2352150257
C   C15       1.0  0.93580  0.09340  0.54200  1.0000 -0.2352150257
C   C16       1.0  0.90660  0.44860  0.84240  1.0000 -0.2352150257
C   C17       1.0  0.26680  0.21990  0.38230  1.0000 -0.1015145949
C   C18       1.0  0.78010  0.16240  0.04690  1.0000 -0.1015145949
C   C19       1.0  0.83760  0.88450  0.61770  1.0000 -0.1015145949
C   C20       1.0  0.11550  0.73320  0.95310  1.0000 -0.1015145949
C   C21       1.0  0.48320  0.36550  0.45310  1.0000 -0.1015145949
C   C22       1.0  0.63450  0.08760  0.11770  1.0000 -0.1015145949
C   C23       1.0  0.91240  0.03010  0.54690  1.0000 -0.1015145949
C   C24       1.0  0.96990  0.51680  0.88230  1.0000 -0.1015145949
C   C25       1.0  0.32310  0.27800  0.48250  1.0000 -0.1483137894
C   C26       1.0  0.72200  0.20450  0.04510  1.0000 -0.1483137894
C   C27       1.0  0.79550  0.84060  0.51750  1.0000 -0.1483137894
C   C28       1.0  0.15940  0.67690  0.95490  1.0000 -0.1483137894
C   C29       1.0  0.42690  0.40940  0.45490  1.0000 -0.1483137894
C   C30       1.0  0.59060  0.04550  0.01750  1.0000 -0.1483137894
C   C31       1.0  0.95450  0.97200  0.54510  1.0000 -0.1483137894
C   C32       1.0  0.02800  0.57310  0.98250  1.0000 -0.1483137894
C   C33       1.0  0.30910  0.27280  0.54150  1.0000 -0.1823945929
C   C34       1.0  0.72720  0.26870  0.03630  1.0000 -0.1823945929
C   C35       1.0  0.73130  0.76760  0.45850  1.0000 -0.1823945929
C   C36       1.0  0.23240  0.69090  0.96370  1.0000 -0.1823945929
C   C37       1.0  0.44090  0.48240  0.46370  1.0000 -0.1823945929
C   C38       1.0  0.51760  0.98130  0.95850  1.0000 -0.1823945929
C   C39       1.0  0.01870  0.97720  0.53630  1.0000 -0.1823945929
C   C40       1.0  0.02280  0.55910  0.04150  1.0000 -0.1823945929
C   C41       1.0  0.24280  0.21070  0.50550  1.0000 0.0692369872
C   C42       1.0  0.78930  0.29480  0.03210  1.0000 0.0692369872
C   C43       1.0  0.70520  0.73730  0.49450  1.0000 0.0692369872
C   C44       1.0  0.26270  0.75720  0.96790  1.0000 0.0692369872
C   C45       1.0  0.50720  0.51270  0.46790  1.0000 0.0692369872
C   C46       1.0  0.48730  0.95520  0.99450  1.0000 0.0692369872
C   C47       1.0  0.04480  0.03930  0.53210  1.0000 0.0692369872
C   C48       1.0  0.96070  0.49280  0.00550  1.0000 0.0692369872
C   C49       1.0  0.28588  0.23088  0.65000  1.0000 0.0594251745
C   C50       1.0  0.76912  0.41912  0.05500  1.0000 0.0594251745
C   C51       1.0  0.58088  0.63588  0.35000  1.0000 0.0594251745
C   C52       1.0  0.36412  0.71412  0.94500  1.0000 0.0594251745
C   C53       1.0  0.46412  0.61412  0.44500  1.0000 0.0594251745
C   C54       1.0  0.38588  0.83088  0.85000  1.0000 0.0594251745
C   C55       1.0  0.16912  0.01912  0.55500  1.0000 0.0594251745
C   C56       1.0  0.98088  0.53588  0.15000  1.0000 0.0594251745
C   C57       1.0  0.28010  0.24480  0.72770  1.0000 0.1189475879
C   C58       1.0  0.75520  0.48290  0.03530  1.0000 0.1189475879
C   C59       1.0  0.51710  0.55240  0.27230  1.0000 0.1189475879
C   C60       1.0  0.44760  0.71990  0.96470  1.0000 0.1189475879
C   C61       1.0  0.46990  0.69760  0.46470  1.0000 0.1189475879
C   C62       1.0  0.30240  0.76710  0.77230  1.0000 0.1189475879
C   C63       1.0  0.23290  0.00520  0.53530  1.0000 0.1189475879
C   C64       1.0  0.99480  0.53010  0.22770  1.0000 0.1189475879
C   C65       1.0  0.35360  0.25980  0.81240  1.0000 -0.2069754626
C   C66       1.0  0.74020  0.55260  0.09380  1.0000 -0.2069754626
C   C67       1.0  0.44740  0.54120  0.18760  1.0000 -0.2069754626
C   C68       1.0  0.45880  0.64640  0.90620  1.0000 -0.2069754626
C   C69       1.0  0.39640  0.70880  0.40620  1.0000 -0.2069754626
C   C70       1.0  0.29120  0.69740  0.68760  1.0000 -0.2069754626
C   C71       1.0  0.30260  0.99020  0.59380  1.0000 -0.2069754626
C   C72       1.0  0.00980  0.60360  0.31240  1.0000 -0.2069754626
C   C73       1.0  0.34860  0.27430  0.88690  1.0000 0.0891566281
C   C74       1.0  0.72570  0.61260  0.07430  1.0000 0.0891566281
C   C75       1.0  0.38740  0.46170  0.11310  1.0000 0.0891566281
C   C76       1.0  0.53830  0.65140  0.92570  1.0000 0.0891566281
C   C77       1.0  0.40140  0.78830  0.42570  1.0000 0.0891566281
C   C78       1.0  0.21170  0.63740  0.61310  1.0000 0.0891566281
C   C79       1.0  0.36260  0.97570  0.57430  1.0000 0.0891566281
C   C80       1.0  0.02430  0.59860  0.38690  1.0000 0.0891566281
C   C81       1.0  0.21020  0.26360  0.80400  1.0000 0.0594251745
C   C82       1.0  0.73640  0.54040  0.94660  1.0000 0.0594251745
C   C83       1.0  0.45960  0.40620  0.19600  1.0000 0.0594251745
C   C84       1.0  0.59380  0.78980  0.05340  1.0000 0.0594251745
C   C85       1.0  0.53980  0.84380  0.55340  1.0000 0.0594251745
C   C86       1.0  0.15620  0.70960  0.69600  1.0000 0.0594251745
C   C87       1.0  0.29040  0.98640  0.44660  1.0000 0.0594251745
C   C88       1.0  0.01360  0.46020  0.30400  1.0000 0.0594251745
C   C89       1.0  0.20810  0.24890  0.72640  1.0000 -0.1696815033
C   C90       1.0  0.75110  0.47750  0.95920  1.0000 -0.1696815033
C   C91       1.0  0.52250  0.48170  0.27360  1.0000 -0.1696815033
C   C92       1.0  0.51830  0.79190  0.04080  1.0000 -0.1696815033
C   C93       1.0  0.54190  0.76830  0.54080  1.0000 -0.1696815033
C   C94       1.0  0.23170  0.77250  0.77360  1.0000 -0.1696815033
C   C95       1.0  0.22750  0.00110  0.45920  1.0000 -0.1696815033
C   C96       1.0  0.99890  0.45810  0.22640  1.0000 -0.1696815033
C   C97       1.0  0.21530  0.39870  0.09020  1.0000 0.2556661789
C   C98       1.0  0.60130  0.69150  0.81660  1.0000 0.2556661789
C   C99       1.0  0.30850  0.12510  0.90980  1.0000 0.2556661789
C   C100      1.0  0.87490  0.78470  0.18340  1.0000 0.2556661789
C   C101      1.0  0.53470  0.12490  0.68340  1.0000 0.2556661789
C   C102      1.0  0.87510  0.55850  0.40980  1.0000 0.2556661789
C   C103      1.0  0.44150  0.85130  0.31660  1.0000 0.2556661789
C   C104      1.0  0.14870  0.46530  0.59020  1.0000 0.2556661789
C   C105      1.0  0.18400  0.46640  0.11640  1.0000 -0.2275992826
C   C106      1.0  0.53360  0.65000  0.71760  1.0000 -0.2275992826
C   C107      1.0  0.35000  0.06760  0.88360  1.0000 -0.2275992826
C   C108      1.0  0.93240  0.81600  0.28240  1.0000 -0.2275992826
C   C109      1.0  0.56600  0.18240  0.78240  1.0000 -0.2275992826
C   C110      1.0  0.81760  0.60000  0.38360  1.0000 -0.2275992826
C   C111      1.0  0.40000  0.78360  0.21760  1.0000 -0.2275992826
C   C112      1.0  0.21640  0.43400  0.61640  1.0000 -0.2275992826
C   C113      1.0  0.18660  0.50650  0.19970  1.0000 -0.1015145949
C   C114      1.0  0.49350  0.69320  0.68010  1.0000 -0.1015145949
C   C115      1.0  0.30680  0.98690  0.80030  1.0000 -0.1015145949
C   C116      1.0  0.01310  0.81340  0.31990  1.0000 -0.1015145949
C   C117      1.0  0.56340  0.26310  0.81990  1.0000 -0.1015145949
C   C118      1.0  0.73690  0.55680  0.30030  1.0000 -0.1015145949
C   C119      1.0  0.44320  0.74350  0.18010  1.0000 -0.1015145949
C   C120      1.0  0.25650  0.43660  0.69970  1.0000 -0.1015145949
C   C121      1.0  0.21640  0.47680  0.25960  1.0000 -0.1483137894
C   C122      1.0  0.52320  0.78280  0.73960  1.0000 -0.1483137894
C   C123      1.0  0.21720  0.95680  0.74040  1.0000 -0.1483137894
C   C124      1.0  0.04320  0.78360  0.26040  1.0000 -0.1483137894
C   C125      1.0  0.53360  0.29320  0.76040  1.0000 -0.1483137894
C   C126      1.0  0.70680  0.46720  0.24040  1.0000 -0.1483137894
C   C127      1.0  0.53280  0.77320  0.23960  1.0000 -0.1483137894
C   C128      1.0  0.22680  0.46640  0.75960  1.0000 -0.1483137894
C   C129      1.0  0.24810  0.41200  0.23590  1.0000 -0.1823945929
C   C130      1.0  0.58800  0.82390  0.83610  1.0000 -0.1823945929
C   C131      1.0  0.17610  0.01220  0.76410  1.0000 -0.1823945929
C   C132      1.0  0.98780  0.75190  0.16390  1.0000 -0.1823945929
C   C133      1.0  0.50190  0.23780  0.66390  1.0000 -0.1823945929
C   C134      1.0  0.76220  0.42610  0.26410  1.0000 -0.1823945929
C   C135      1.0  0.57390  0.83800  0.33610  1.0000 -0.1823945929
C   C136      1.0  0.16200  0.49810  0.73590  1.0000 -0.1823945929
C   C137      1.0  0.25020  0.37340  0.15440  1.0000 0.0692369872
C   C138      1.0  0.62660  0.78100  0.87680  1.0000 0.0692369872
C   C139      1.0  0.21900  0.09580  0.84560  1.0000 0.0692369872
C   C140      1.0  0.90420  0.74980  0.12320  1.0000 0.0692369872
C   C141      1.0  0.49980  0.15420  0.62320  1.0000 0.0692369872
C   C142      1.0  0.84580  0.46900  0.34560  1.0000 0.0692369872
C   C143      1.0  0.53100  0.87660  0.37680  1.0000 0.0692369872
C   C144      1.0  0.12340  0.50020  0.65440  1.0000 0.0692369872
C   C145      1.0  0.32262  0.28142  0.18200  1.0000 0.0409264688
C   C146      1.0  0.71858  0.90058  0.04120  1.0000 0.0409264688
C   C147      1.0  0.09942  0.14062  0.81800  1.0000 0.0409264688
C   C148      1.0  0.85938  0.67738  0.95880  1.0000 0.0409264688
C   C149      1.0  0.42738  0.10938  0.45880  1.0000 0.0409264688
C   C150      1.0  0.89062  0.34942  0.31800  1.0000 0.0409264688
C   C151      1.0  0.65058  0.96858  0.54120  1.0000 0.0409264688
C   C152      1.0  0.03142  0.57262  0.68200  1.0000 0.0409264688
C   C153      1.0  0.33783  0.20093  0.14570  1.0000 0.1189475879
C   C154      1.0  0.79907  0.94477  0.13690  1.0000 0.1189475879
C   C155      1.0  0.05523  0.19213  0.85430  1.0000 0.1189475879
C   C156      1.0  0.80787  0.66217  0.86310  1.0000 0.1189475879
C   C157      1.0  0.41217  0.05787  0.36310  1.0000 0.1189475879
C   C158      1.0  0.94213  0.30523  0.35430  1.0000 0.1189475879
C   C159      1.0  0.69477  0.04907  0.63690  1.0000 0.1189475879
C   C160      1.0  0.95093  0.58783  0.64570  1.0000 0.1189475879
C   C161      1.0  0.41380  0.19330  0.20410  1.0000 -0.1990241881
C   C162      1.0  0.80670  0.01080  0.22050  1.0000 -0.1990241881
C   C163      1.0  0.98920  0.20970  0.79590  1.0000 -0.1990241881
C   C164      1.0  0.79030  0.58620  0.77950  1.0000 -0.1990241881
C   C165      1.0  0.33620  0.04030  0.27950  1.0000 -0.1990241881
C   C166      1.0  0.95970  0.23920  0.29590  1.0000 -0.1990241881
C   C167      1.0  0.76080  0.05670  0.72050  1.0000 -0.1990241881
C   C168      1.0  0.94330  0.66380  0.70410  1.0000 -0.1990241881
C   C169      1.0  0.42430  0.11500  0.16770  1.0000 0.0891566281
C   C170      1.0  0.88500  0.05270  0.30930  1.0000 0.0891566281
C   C171      1.0  0.94730  0.25660  0.83230  1.0000 0.0891566281
C   C172      1.0  0.74340  0.57570  0.69070  1.0000 0.0891566281
C   C173      1.0  0.32570  0.99340  0.19070  1.0000 0.0891566281
C   C174      1.0  0.00660  0.19730  0.33230  1.0000 0.0891566281
C   C175      1.0  0.80270  0.13500  0.80930  1.0000 0.0891566281
C   C176      1.0  0.86500  0.67430  0.66770  1.0000 0.0891566281
C   C177      1.0  0.29490  0.05410  0.02480  1.0000 0.0692369872
C   C178      1.0  0.94590  0.97070  0.24080  1.0000 0.0692369872
C   C179      1.0  0.02930  0.27010  0.97520  1.0000 0.0692369872
C   C180      1.0  0.72990  0.70510  0.75920  1.0000 0.0692369872
C   C181      1.0  0.45510  0.97990  0.25920  1.0000 0.0692369872
C   C182      1.0  0.02010  0.27930  0.47520  1.0000 0.0692369872
C   C183      1.0  0.72070  0.19590  0.74080  1.0000 0.0692369872
C   C184      1.0  0.80410  0.54490  0.52480  1.0000 0.0692369872
C   C185      1.0  0.27820  0.12900  0.05420  1.0000 -0.1604508187
C   C186      1.0  0.87100  0.92520  0.14920  1.0000 -0.1604508187
C   C187      1.0  0.07480  0.22400  0.94580  1.0000 -0.1604508187
C   C188      1.0  0.77600  0.72180  0.85080  1.0000 -0.1604508187
C   C189      1.0  0.47180  0.02600  0.35080  1.0000 -0.1604508187
C   C190      1.0  0.97400  0.32480  0.44580  1.0000 -0.1604508187
C   C191      1.0  0.67520  0.12100  0.64920  1.0000 -0.1604508187
C   C192      1.0  0.87900  0.52820  0.55420  1.0000 -0.1604508187
N   N1        1.0  0.22261  0.20641  0.56400  1.0000 -0.2541321691
N   N2        1.0  0.79359  0.35759  0.01620  1.0000 -0.2541321691
N   N3        1.0  0.64241  0.65861  0.43600  1.0000 -0.2541321691
N   N4        1.0  0.34139  0.77739  0.98380  1.0000 -0.2541321691
N   N5        1.0  0.52739  0.59139  0.48380  1.0000 -0.2541321691
N   N6        1.0  0.40861  0.89241  0.93600  1.0000 -0.2541321691
N   N7        1.0  0.10759  0.04359  0.51620  1.0000 -0.2541321691
N   N8        1.0  0.95641  0.47261  0.06400  1.0000 -0.2541321691
N   N9        1.0  0.27984  0.27814  0.88530  1.0000 -0.2275992826
N   N10       1.0  0.72186  0.60716  0.00170  1.0000 -0.2275992826
N   N11       1.0  0.39284  0.39454  0.11470  1.0000 -0.2275992826
N   N12       1.0  0.60546  0.72016  0.99830  1.0000 -0.2275992826
N   N13       1.0  0.47016  0.85546  0.49830  1.0000 -0.2275992826
N   N14       1.0  0.14454  0.64284  0.61470  1.0000 -0.2275992826
N   N15       1.0  0.35716  0.97186  0.50170  1.0000 -0.2275992826
N   N16       1.0  0.02814  0.52984  0.38530  1.0000 -0.2275992826
N   N17       1.0  0.27802  0.30252  0.12330  1.0000 -0.2611406918
N   N18       1.0  0.69748  0.82078  0.97550  1.0000 -0.2611406918
N   N19       1.0  0.17922  0.15472  0.87670  1.0000 -0.2611406918
N   N20       1.0  0.84528  0.72198  0.02450  1.0000 -0.2611406918
N   N21       1.0  0.47198  0.09528  0.52450  1.0000 -0.2611406918
N   N22       1.0  0.90472  0.42922  0.37670  1.0000 -0.2611406918
N   N23       1.0  0.57078  0.94748  0.47550  1.0000 -0.2611406918
N   N24       1.0  0.05252  0.52802  0.62330  1.0000 -0.2611406918
N   N25       1.0  0.36716  0.04586  0.08070  1.0000 -0.224386635
N   N26       1.0  0.95414  0.03484  0.32130  1.0000 -0.224386635
N   N27       1.0  0.96516  0.28646  0.91930  1.0000 -0.224386635
N   N28       1.0  0.71354  0.63284  0.67870  1.0000 -0.224386635
N   N29       1.0  0.38284  0.96354  0.17870  1.0000 -0.224386635
N   N30       1.0  0.03646  0.21516  0.41930  1.0000 -0.224386635
N   N31       1.0  0.78484  0.20414  0.82130  1.0000 -0.224386635
N   N32       1.0  0.79586  0.61716  0.58070  1.0000 -0.224386635
O   O1        1.0  0.12086  0.09016  0.36818  1.0000 -0.5136922177
O   O2        1.0  0.90984  0.27802  0.03070  1.0000 -0.5136922177
O   O3        1.0  0.72198  0.75268  0.63182  1.0000 -0.5136922177
O   O4        1.0  0.24732  0.87914  0.96930  1.0000 -0.5136922177
O   O5        1.0  0.62914  0.49732  0.46930  1.0000 -0.5136922177
O   O6        1.0  0.50268  0.97198  0.13182  1.0000 -0.5136922177
O   O7        1.0  0.02802  0.15984  0.53070  1.0000 -0.5136922177
O   O8        1.0  0.84016  0.37086  0.86818  1.0000 -0.5136922177
O   O9        1.0  0.21223  0.35938  0.01025  1.0000 -0.4863938715
O   O10       1.0  0.64062  0.65087  0.85285  1.0000 -0.4863938715
O   O11       1.0  0.34913  0.20198  0.98975  1.0000 -0.4863938715
O   O12       1.0  0.79802  0.78777  0.14715  1.0000 -0.4863938715
O   O13       1.0  0.53777  0.04802  0.64715  1.0000 -0.4863938715
O   O14       1.0  0.95198  0.59913  0.48975  1.0000 -0.4863938715
O   O15       1.0  0.40087  0.89062  0.35285  1.0000 -0.4863938715
O   O16       1.0  0.10938  0.46223  0.51025  1.0000 -0.4863938715
