# DDEC6 charges by PACMAN v1.1 (https://github.com/mtap-research/PACMAN-charge/)
data_2011[Nd][rob]3[FSR]2
_chemical_formula_sum              "Nd8 H120 C120 S12 N32 O64"
_cell_length_a       16.9836
_cell_length_b       12.1799
_cell_length_c       27.7375
_cell_angle_alpha    90
_cell_angle_beta     114.666
_cell_angle_gamma    90

_symmetry_space_group_name_H-M    "P 1"
_symmetry_Int_Tables_number       1

loop_
  _symmetry_equiv_pos_as_xyz
  'x, y, z'

loop_
  _atom_site_type_symbol
  _atom_site_label
  _atom_site_symmetry_multiplicity
  _atom_site_fract_x
  _atom_site_fract_y
  _atom_site_fract_z
  _atom_site_occupancy
  _atom_site_charge
Nd  Nd1       1.0  0.06718  0.47639  0.58152  1.0000 2.0995061751
Nd  Nd2       1.0  0.93282  0.47639  0.91848  1.0000 2.0995061751
Nd  Nd3       1.0  0.93282  0.52361  0.41848  1.0000 2.0995061751
Nd  Nd4       1.0  0.06718  0.52361  0.08152  1.0000 2.0995061751
Nd  Nd5       1.0  0.54308  0.99845  0.58251  1.0000 2.0900853033
Nd  Nd6       1.0  0.45692  0.99845  0.91749  1.0000 2.0900853033
Nd  Nd7       1.0  0.45692  0.00155  0.41749  1.0000 2.0900853033
Nd  Nd8       1.0  0.54308  0.00155  0.08251  1.0000 2.0900853033
H   H1        1.0  0.22930  0.15530  0.63480  1.0000 0.2638945933
H   H2        1.0  0.77070  0.15530  0.86520  1.0000 0.2638945933
H   H3        1.0  0.77070  0.84470  0.36520  1.0000 0.2638945933
H   H4        1.0  0.22930  0.84470  0.13480  1.0000 0.2638945933
H   H5        1.0  0.02100  0.17640  0.51150  1.0000 0.298130786
H   H6        1.0  0.97900  0.17640  0.98850  1.0000 0.298130786
H   H7        1.0  0.97900  0.82360  0.48850  1.0000 0.298130786
H   H8        1.0  0.02100  0.82360  0.01150  1.0000 0.298130786
H   H9        1.0  0.97350  0.60860  0.66300  1.0000 0.3213455806
H   H10       1.0  0.02650  0.60860  0.83700  1.0000 0.3213455806
H   H11       1.0  0.02650  0.39140  0.33700  1.0000 0.3213455806
H   H12       1.0  0.97350  0.39140  0.16300  1.0000 0.3213455806
H   H13       1.0  0.92700  0.32790  0.69260  1.0000 0.2703469599
H   H14       1.0  0.07300  0.32790  0.80740  1.0000 0.2703469599
H   H15       1.0  0.07300  0.67210  0.30740  1.0000 0.2703469599
H   H16       1.0  0.92700  0.67210  0.19260  1.0000 0.2703469599
H   H17       1.0  0.39200  0.04370  0.69500  1.0000 0.2703469599
H   H18       1.0  0.60800  0.04370  0.80500  1.0000 0.2703469599
H   H19       1.0  0.60800  0.95630  0.30500  1.0000 0.2703469599
H   H20       1.0  0.39200  0.95630  0.19500  1.0000 0.2703469599
H   H21       1.0  0.46670  0.78830  0.65360  1.0000 0.2865955289
H   H22       1.0  0.53330  0.78830  0.84640  1.0000 0.2865955289
H   H23       1.0  0.53330  0.21170  0.34640  1.0000 0.2865955289
H   H24       1.0  0.46670  0.21170  0.15360  1.0000 0.2865955289
H   H25       1.0  0.70700  0.31530  0.68730  1.0000 0.2798387016
H   H26       1.0  0.29300  0.31530  0.81270  1.0000 0.2798387016
H   H27       1.0  0.29300  0.68470  0.31270  1.0000 0.2798387016
H   H28       1.0  0.70700  0.68470  0.18730  1.0000 0.2798387016
H   H29       1.0  0.71380  0.02220  0.72020  1.0000 0.2798387016
H   H30       1.0  0.28620  0.02220  0.77980  1.0000 0.2798387016
H   H31       1.0  0.28620  0.97780  0.27980  1.0000 0.2798387016
H   H32       1.0  0.71380  0.97780  0.22020  1.0000 0.2798387016
H   H33       1.0  0.09080  0.71470  0.42080  1.0000 0.1293053582
H   H34       1.0  0.90920  0.71470  0.07920  1.0000 0.1293053582
H   H35       1.0  0.90920  0.28530  0.57920  1.0000 0.1293053582
H   H36       1.0  0.09080  0.28530  0.92080  1.0000 0.1293053582
H   H37       1.0  0.19940  0.82500  0.40540  1.0000 0.120603215
H   H38       1.0  0.80060  0.82500  0.09460  1.0000 0.120603215
H   H39       1.0  0.80060  0.17500  0.59460  1.0000 0.120603215
H   H40       1.0  0.19940  0.17500  0.90540  1.0000 0.120603215
H   H41       1.0  0.34180  0.48970  0.76100  1.0000 0.120603215
H   H42       1.0  0.65820  0.48970  0.73900  1.0000 0.120603215
H   H43       1.0  0.65820  0.51030  0.23900  1.0000 0.120603215
H   H44       1.0  0.34180  0.51030  0.26100  1.0000 0.120603215
H   H45       1.0  0.42710  0.60000  0.83850  1.0000 0.1293053582
H   H46       1.0  0.57290  0.60000  0.66150  1.0000 0.1293053582
H   H47       1.0  0.57290  0.40000  0.16150  1.0000 0.1293053582
H   H48       1.0  0.42710  0.40000  0.33850  1.0000 0.1293053582
H   H49       1.0  0.14180  0.26830  0.39760  1.0000 0.120603215
H   H50       1.0  0.85820  0.26830  0.10240  1.0000 0.120603215
H   H51       1.0  0.85820  0.73170  0.60240  1.0000 0.120603215
H   H52       1.0  0.14180  0.73170  0.89760  1.0000 0.120603215
H   H53       1.0  0.27540  0.17320  0.41070  1.0000 0.1293053582
H   H54       1.0  0.72460  0.17320  0.08930  1.0000 0.1293053582
H   H55       1.0  0.72460  0.82680  0.58930  1.0000 0.1293053582
H   H56       1.0  0.27540  0.82680  0.91070  1.0000 0.1293053582
H   H57       1.0  0.08560  0.00160  0.51190  1.0000 0.0994776179
H   H58       1.0  0.91440  0.00160  0.98810  1.0000 0.0994776179
H   H59       1.0  0.91440  0.99840  0.48810  1.0000 0.0994776179
H   H60       1.0  0.08560  0.99840  0.01190  1.0000 0.0994776179
H   H61       1.0  0.13310  0.08850  0.49110  1.0000 0.120603215
H   H62       1.0  0.86690  0.08850  0.00890  1.0000 0.120603215
H   H63       1.0  0.86690  0.91150  0.50890  1.0000 0.120603215
H   H64       1.0  0.13310  0.91150  0.99110  1.0000 0.120603215
H   H65       1.0  0.25170  0.06470  0.56400  1.0000 0.1084747056
H   H66       1.0  0.74830  0.06470  0.93600  1.0000 0.1084747056
H   H67       1.0  0.74830  0.93530  0.43600  1.0000 0.1084747056
H   H68       1.0  0.25170  0.93530  0.06400  1.0000 0.1084747056
H   H69       1.0  0.20220  0.98400  0.58660  1.0000 0.0994776179
H   H70       1.0  0.79780  0.98400  0.91340  1.0000 0.0994776179
H   H71       1.0  0.79780  0.01600  0.41340  1.0000 0.0994776179
H   H72       1.0  0.20220  0.01600  0.08660  1.0000 0.0994776179
H   H73       1.0  0.81290  0.58170  0.66260  1.0000 0.120603215
H   H74       1.0  0.18710  0.58170  0.83740  1.0000 0.120603215
H   H75       1.0  0.18710  0.41830  0.33740  1.0000 0.120603215
H   H76       1.0  0.81290  0.41830  0.16260  1.0000 0.120603215
H   H77       1.0  0.88310  0.61250  0.71940  1.0000 0.1084747056
H   H78       1.0  0.11690  0.61250  0.78060  1.0000 0.1084747056
H   H79       1.0  0.11690  0.38750  0.28060  1.0000 0.1084747056
H   H80       1.0  0.88310  0.38750  0.21940  1.0000 0.1084747056
H   H81       1.0  0.88330  0.45860  0.74620  1.0000 0.1084747056
H   H82       1.0  0.11670  0.45860  0.75380  1.0000 0.1084747056
H   H83       1.0  0.11670  0.54140  0.25380  1.0000 0.1084747056
H   H84       1.0  0.88330  0.54140  0.24620  1.0000 0.1084747056
H   H85       1.0  0.80140  0.43500  0.69240  1.0000 0.0994776179
H   H86       1.0  0.19860  0.43500  0.80760  1.0000 0.0994776179
H   H87       1.0  0.19860  0.56500  0.30760  1.0000 0.0994776179
H   H88       1.0  0.80140  0.56500  0.19240  1.0000 0.0994776179
H   H89       1.0  0.32970  0.75420  0.65880  1.0000 0.120603215
H   H90       1.0  0.67030  0.75420  0.84120  1.0000 0.120603215
H   H91       1.0  0.67030  0.24580  0.34120  1.0000 0.120603215
H   H92       1.0  0.32970  0.24580  0.15880  1.0000 0.120603215
H   H93       1.0  0.40780  0.73610  0.71470  1.0000 0.1084747056
H   H94       1.0  0.59220  0.73610  0.78530  1.0000 0.1084747056
H   H95       1.0  0.59220  0.26390  0.28530  1.0000 0.1084747056
H   H96       1.0  0.40780  0.26390  0.21470  1.0000 0.1084747056
H   H97       1.0  0.37460  0.89020  0.74560  1.0000 0.0940409656
H   H98       1.0  0.62540  0.89020  0.75440  1.0000 0.0940409656
H   H99       1.0  0.62540  0.10980  0.25440  1.0000 0.0940409656
H   H100      1.0  0.37460  0.10980  0.24560  1.0000 0.0940409656
H   H101      1.0  0.29150  0.90240  0.69130  1.0000 0.0994776179
H   H102      1.0  0.70850  0.90240  0.80870  1.0000 0.0994776179
H   H103      1.0  0.70850  0.09760  0.30870  1.0000 0.0994776179
H   H104      1.0  0.29150  0.09760  0.19130  1.0000 0.0994776179
H   H105      1.0  0.78220  0.27630  0.78200  1.0000 0.1293053582
H   H106      1.0  0.21780  0.27630  0.71800  1.0000 0.1293053582
H   H107      1.0  0.21780  0.72370  0.21800  1.0000 0.1293053582
H   H108      1.0  0.78220  0.72370  0.28200  1.0000 0.1293053582
H   H109      1.0  0.84750  0.27030  0.75510  1.0000 0.1084747056
H   H110      1.0  0.15250  0.27030  0.74490  1.0000 0.1084747056
H   H111      1.0  0.15250  0.72970  0.24490  1.0000 0.1084747056
H   H112      1.0  0.84750  0.72970  0.25510  1.0000 0.1084747056
H   H113      1.0  0.85910  0.10200  0.76530  1.0000 0.120603215
H   H114      1.0  0.14090  0.10200  0.73470  1.0000 0.120603215
H   H115      1.0  0.14090  0.89800  0.23470  1.0000 0.120603215
H   H116      1.0  0.85910  0.89800  0.26530  1.0000 0.120603215
H   H117      1.0  0.80450  0.11150  0.79960  1.0000 0.1084747056
H   H118      1.0  0.19550  0.11150  0.70040  1.0000 0.1084747056
H   H119      1.0  0.19550  0.88850  0.20040  1.0000 0.1084747056
H   H120      1.0  0.80450  0.88850  0.29960  1.0000 0.1084747056
C   C1        1.0  0.16470  0.72000  0.50040  1.0000 -0.1302147906
C   C2        1.0  0.83530  0.72000  0.99960  1.0000 -0.1302147906
C   C3        1.0  0.83530  0.28000  0.49960  1.0000 -0.1302147906
C   C4        1.0  0.16470  0.28000  0.00040  1.0000 -0.1302147906
C   C5        1.0  0.14170  0.74000  0.44780  1.0000 -0.1302147906
C   C6        1.0  0.85830  0.74000  0.05220  1.0000 -0.1302147906
C   C7        1.0  0.85830  0.26000  0.55220  1.0000 -0.1302147906
C   C8        1.0  0.14170  0.26000  0.94780  1.0000 -0.1302147906
C   C9        1.0  0.20430  0.80510  0.43890  1.0000 -0.1302147906
C   C10       1.0  0.79570  0.80510  0.06110  1.0000 -0.1302147906
C   C11       1.0  0.79570  0.19490  0.56110  1.0000 -0.1302147906
C   C12       1.0  0.20430  0.19490  0.93890  1.0000 -0.1302147906
C   C13       1.0  0.27070  0.83410  0.48410  1.0000 -0.1302147906
C   C14       1.0  0.72930  0.83410  0.01590  1.0000 -0.1302147906
C   C15       1.0  0.72930  0.16590  0.51590  1.0000 -0.1302147906
C   C16       1.0  0.27070  0.16590  0.98410  1.0000 -0.1302147906
C   C17       1.0  0.12030  0.65030  0.52460  1.0000 0.5981203969
C   C18       1.0  0.87970  0.65030  0.97540  1.0000 0.5981203969
C   C19       1.0  0.87970  0.34970  0.47540  1.0000 0.5981203969
C   C20       1.0  0.12030  0.34970  0.02460  1.0000 0.5981203969
C   C21       1.0  0.34730  0.89730  0.48880  1.0000 0.6300879176
C   C22       1.0  0.65270  0.89730  0.01120  1.0000 0.6300879176
C   C23       1.0  0.65270  0.10270  0.51120  1.0000 0.6300879176
C   C24       1.0  0.34730  0.10270  0.98880  1.0000 0.6300879176
C   C25       1.0  0.25080  0.60670  0.73470  1.0000 -0.1196829019
C   C26       1.0  0.74920  0.60670  0.76530  1.0000 -0.1196829019
C   C27       1.0  0.74920  0.39330  0.26530  1.0000 -0.1196829019
C   C28       1.0  0.25080  0.39330  0.23470  1.0000 -0.1196829019
C   C29       1.0  0.32470  0.55870  0.76740  1.0000 -0.140278997
C   C30       1.0  0.67530  0.55870  0.73260  1.0000 -0.140278997
C   C31       1.0  0.67530  0.44130  0.23260  1.0000 -0.140278997
C   C32       1.0  0.32470  0.44130  0.26740  1.0000 -0.140278997
C   C33       1.0  0.37420  0.62210  0.81220  1.0000 -0.1302147906
C   C34       1.0  0.62580  0.62210  0.68780  1.0000 -0.1302147906
C   C35       1.0  0.62580  0.37790  0.18780  1.0000 -0.1302147906
C   C36       1.0  0.37420  0.37790  0.31220  1.0000 -0.1302147906
C   C37       1.0  0.33530  0.72020  0.81240  1.0000 -0.140278997
C   C38       1.0  0.66470  0.72020  0.68760  1.0000 -0.140278997
C   C39       1.0  0.66470  0.27980  0.18760  1.0000 -0.140278997
C   C40       1.0  0.33530  0.27980  0.31240  1.0000 -0.140278997
C   C41       1.0  0.18480  0.56310  0.68440  1.0000 0.5496846791
C   C42       1.0  0.81520  0.56310  0.81560  1.0000 0.5496846791
C   C43       1.0  0.81520  0.43690  0.31560  1.0000 0.5496846791
C   C44       1.0  0.18480  0.43690  0.18440  1.0000 0.5496846791
C   C45       1.0  0.37140  0.81070  0.85060  1.0000 0.5419146772
C   C46       1.0  0.62860  0.81070  0.64940  1.0000 0.5419146772
C   C47       1.0  0.62860  0.18930  0.14940  1.0000 0.5419146772
C   C48       1.0  0.37140  0.18930  0.35060  1.0000 0.5419146772
C   C49       1.0  0.19280  0.31480  0.47480  1.0000 -0.1302147906
C   C50       1.0  0.80720  0.31480  0.02520  1.0000 -0.1302147906
C   C51       1.0  0.80720  0.68520  0.52520  1.0000 -0.1302147906
C   C52       1.0  0.19280  0.68520  0.97480  1.0000 -0.1302147906
C   C53       1.0  0.18990  0.26520  0.43000  1.0000 -0.140278997
C   C54       1.0  0.81010  0.26520  0.07000  1.0000 -0.140278997
C   C55       1.0  0.81010  0.73480  0.57000  1.0000 -0.140278997
C   C56       1.0  0.18990  0.73480  0.93000  1.0000 -0.140278997
C   C57       1.0  0.26650  0.20900  0.43760  1.0000 -0.1090552503
C   C58       1.0  0.73350  0.20900  0.06240  1.0000 -0.1090552503
C   C59       1.0  0.73350  0.79100  0.56240  1.0000 -0.1090552503
C   C60       1.0  0.26650  0.79100  0.93760  1.0000 -0.1090552503
C   C61       1.0  0.32630  0.21340  0.48920  1.0000 -0.1196829019
C   C62       1.0  0.67370  0.21340  0.01080  1.0000 -0.1196829019
C   C63       1.0  0.67370  0.78660  0.51080  1.0000 -0.1196829019
C   C64       1.0  0.32630  0.78660  0.98920  1.0000 -0.1196829019
C   C65       1.0  0.12570  0.38120  0.48270  1.0000 0.6300879176
C   C66       1.0  0.87430  0.38120  0.01730  1.0000 0.6300879176
C   C67       1.0  0.87430  0.61880  0.51730  1.0000 0.6300879176
C   C68       1.0  0.12570  0.61880  0.98270  1.0000 0.6300879176
C   C69       1.0  0.41250  0.16000  0.51480  1.0000 0.6116538997
C   C70       1.0  0.58750  0.16000  0.98520  1.0000 0.6116538997
C   C71       1.0  0.58750  0.84000  0.48520  1.0000 0.6116538997
C   C72       1.0  0.41250  0.84000  0.01480  1.0000 0.6116538997
C   C73       1.0  0.11930  0.06880  0.52060  1.0000 -0.1007427667
C   C74       1.0  0.88070  0.06880  0.97940  1.0000 -0.1007427667
C   C75       1.0  0.88070  0.93120  0.47940  1.0000 -0.1007427667
C   C76       1.0  0.11930  0.93120  0.02060  1.0000 -0.1007427667
C   C77       1.0  0.20020  0.05530  0.57050  1.0000 -0.1007427667
C   C78       1.0  0.79980  0.05530  0.92950  1.0000 -0.1007427667
C   C79       1.0  0.79980  0.94470  0.42950  1.0000 -0.1007427667
C   C80       1.0  0.20020  0.94470  0.07050  1.0000 -0.1007427667
C   C81       1.0  0.11960  0.20070  0.57890  1.0000 0.5981203969
C   C82       1.0  0.88040  0.20070  0.92110  1.0000 0.5981203969
C   C83       1.0  0.88040  0.79930  0.42110  1.0000 0.5981203969
C   C84       1.0  0.11960  0.79930  0.07890  1.0000 0.5981203969
C   C85       1.0  0.86800  0.56000  0.69080  1.0000 -0.1905562525
C   C86       1.0  0.13200  0.56000  0.80920  1.0000 -0.1905562525
C   C87       1.0  0.13200  0.44000  0.30920  1.0000 -0.1905562525
C   C88       1.0  0.86800  0.44000  0.19080  1.0000 -0.1905562525
C   C89       1.0  0.86100  0.46100  0.70790  1.0000 -0.0829685946
C   C90       1.0  0.13900  0.46100  0.79210  1.0000 -0.0829685946
C   C91       1.0  0.13900  0.53900  0.29210  1.0000 -0.0829685946
C   C92       1.0  0.86100  0.53900  0.20790  1.0000 -0.0829685946
C   C93       1.0  0.95480  0.45560  0.65980  1.0000 0.5691056604
C   C94       1.0  0.04520  0.45560  0.84020  1.0000 0.5691056604
C   C95       1.0  0.04520  0.54440  0.34020  1.0000 0.5691056604
C   C96       1.0  0.95480  0.54440  0.15980  1.0000 0.5691056604
C   C97       1.0  0.37960  0.78870  0.68650  1.0000 -0.0939854254
C   C98       1.0  0.62040  0.78870  0.81350  1.0000 -0.0939854254
C   C99       1.0  0.62040  0.21130  0.31350  1.0000 -0.0939854254
C   C100      1.0  0.37960  0.21130  0.18650  1.0000 -0.0939854254
C   C101      1.0  0.35380  0.89180  0.70730  1.0000 -0.1196829019
C   C102      1.0  0.64620  0.89180  0.79270  1.0000 -0.1196829019
C   C103      1.0  0.64620  0.10820  0.29270  1.0000 -0.1196829019
C   C104      1.0  0.35380  0.10820  0.20730  1.0000 -0.1196829019
C   C105      1.0  0.44490  0.93890  0.66780  1.0000 0.578134125
C   C106      1.0  0.55510  0.93890  0.83220  1.0000 0.578134125
C   C107      1.0  0.55510  0.06110  0.33220  1.0000 0.578134125
C   C108      1.0  0.44490  0.06110  0.16780  1.0000 0.578134125
C   C109      1.0  0.79490  0.23910  0.75510  1.0000 -0.1090552503
C   C110      1.0  0.20510  0.23910  0.74490  1.0000 -0.1090552503
C   C111      1.0  0.20510  0.76090  0.24490  1.0000 -0.1090552503
C   C112      1.0  0.79490  0.76090  0.25510  1.0000 -0.1090552503
C   C113      1.0  0.80590  0.12940  0.76590  1.0000 -0.1090552503
C   C114      1.0  0.19410  0.12940  0.73410  1.0000 -0.1090552503
C   C115      1.0  0.19410  0.87060  0.23410  1.0000 -0.1090552503
C   C116      1.0  0.80590  0.87060  0.26590  1.0000 -0.1090552503
C   C117      1.0  0.68590  0.15530  0.68330  1.0000 0.578134125
C   C118      1.0  0.31410  0.15530  0.81670  1.0000 0.578134125
C   C119      1.0  0.31410  0.84470  0.31670  1.0000 0.578134125
C   C120      1.0  0.68590  0.84470  0.18330  1.0000 0.578134125
S   S1        1.0  0.25950  0.78220  0.53764  1.0000 0.16952979
S   S2        1.0  0.74050  0.78220  0.96236  1.0000 0.16952979
S   S3        1.0  0.74050  0.21780  0.46236  1.0000 0.16952979
S   S4        1.0  0.25950  0.21780  0.03764  1.0000 0.16952979
S   S5        1.0  0.23874  0.73240  0.75851  1.0000 0.120603215
S   S6        1.0  0.76126  0.73240  0.74149  1.0000 0.1293053582
S   S7        1.0  0.76126  0.26760  0.24149  1.0000 0.1293053582
S   S8        1.0  0.23874  0.26760  0.25851  1.0000 0.120603215
S   S9        1.0  0.28953  0.28940  0.52793  1.0000 0.1872413809
S   S10       1.0  0.71047  0.28940  0.97207  1.0000 0.1872413809
S   S11       1.0  0.71047  0.71060  0.47207  1.0000 0.1872413809
S   S12       1.0  0.28953  0.71060  0.02793  1.0000 0.1872413809
N   N1        1.0  0.19170  0.14230  0.60300  1.0000 -0.3744623904
N   N2        1.0  0.80830  0.14230  0.89700  1.0000 -0.3744623904
N   N3        1.0  0.80830  0.85770  0.39700  1.0000 -0.3744623904
N   N4        1.0  0.19170  0.85770  0.10300  1.0000 -0.3744623904
N   N5        1.0  0.07270  0.15600  0.53220  1.0000 -0.3601785347
N   N6        1.0  0.92730  0.15600  0.96780  1.0000 -0.3601785347
N   N7        1.0  0.92730  0.84400  0.46780  1.0000 -0.3601785347
N   N8        1.0  0.07270  0.84400  0.03220  1.0000 -0.3601785347
N   N9        1.0  0.94560  0.55400  0.66790  1.0000 -0.3246295397
N   N10       1.0  0.05440  0.55400  0.83210  1.0000 -0.3246295397
N   N11       1.0  0.05440  0.44600  0.33210  1.0000 -0.3246295397
N   N12       1.0  0.94560  0.44600  0.16790  1.0000 -0.3246295397
N   N13       1.0  0.91800  0.39700  0.68720  1.0000 -0.3601785347
N   N14       1.0  0.08200  0.39700  0.81280  1.0000 -0.3601785347
N   N15       1.0  0.08200  0.60300  0.31280  1.0000 -0.3601785347
N   N16       1.0  0.91800  0.60300  0.18720  1.0000 -0.3601785347
N   N17       1.0  0.39740  0.97480  0.69040  1.0000 -0.3314178457
N   N18       1.0  0.60260  0.97480  0.80960  1.0000 -0.3314178457
N   N19       1.0  0.60260  0.02520  0.30960  1.0000 -0.3314178457
N   N20       1.0  0.39740  0.02520  0.19040  1.0000 -0.3314178457
N   N21       1.0  0.43840  0.82980  0.66590  1.0000 -0.3601785347
N   N22       1.0  0.56160  0.82980  0.83410  1.0000 -0.3601785347
N   N23       1.0  0.56160  0.17020  0.33410  1.0000 -0.3601785347
N   N24       1.0  0.43840  0.17020  0.16590  1.0000 -0.3601785347
N   N25       1.0  0.72330  0.25330  0.70320  1.0000 -0.3444832211
N   N26       1.0  0.27670  0.25330  0.79680  1.0000 -0.3444832211
N   N27       1.0  0.27670  0.74670  0.29680  1.0000 -0.3444832211
N   N28       1.0  0.72330  0.74670  0.20320  1.0000 -0.3444832211
N   N29       1.0  0.72960  0.09000  0.72120  1.0000 -0.3077386861
N   N30       1.0  0.27040  0.09000  0.77880  1.0000 -0.3077386861
N   N31       1.0  0.27040  0.91000  0.27880  1.0000 -0.3077386861
N   N32       1.0  0.72960  0.91000  0.22120  1.0000 -0.3077386861
O   O1        1.0  0.04760  0.60850  0.49440  1.0000 -0.7354799305
O   O2        1.0  0.95240  0.60850  0.00560  1.0000 -0.7354799305
O   O3        1.0  0.95240  0.39150  0.50560  1.0000 -0.7354799305
O   O4        1.0  0.04760  0.39150  0.99440  1.0000 -0.7354799305
O   O5        1.0  0.15520  0.63350  0.57240  1.0000 -0.5747609828
O   O6        1.0  0.84480  0.63350  0.92760  1.0000 -0.5747609828
O   O7        1.0  0.84480  0.36650  0.42760  1.0000 -0.5747609828
O   O8        1.0  0.15520  0.36650  0.07240  1.0000 -0.5747609828
O   O9        1.0  0.39840  0.92350  0.53500  1.0000 -0.6613224094
O   O10       1.0  0.60160  0.92350  0.96500  1.0000 -0.6613224094
O   O11       1.0  0.60160  0.07650  0.46500  1.0000 -0.6613224094
O   O12       1.0  0.39840  0.07650  0.03500  1.0000 -0.6613224094
O   O13       1.0  0.35450  0.91900  0.44730  1.0000 -0.6323733573
O   O14       1.0  0.64550  0.91900  0.05270  1.0000 -0.6323733573
O   O15       1.0  0.64550  0.08100  0.55270  1.0000 -0.6323733573
O   O16       1.0  0.35450  0.08100  0.94730  1.0000 -0.6323733573
O   O17       1.0  0.11440  0.61060  0.66200  1.0000 -0.6020671968
O   O18       1.0  0.88560  0.61060  0.83800  1.0000 -0.6020671968
O   O19       1.0  0.88560  0.38940  0.33800  1.0000 -0.6020671968
O   O20       1.0  0.11440  0.38940  0.16200  1.0000 -0.6020671968
O   O21       1.0  0.20230  0.47770  0.66550  1.0000 -0.6118130232
O   O22       1.0  0.79770  0.47770  0.83450  1.0000 -0.6118130232
O   O23       1.0  0.79770  0.52230  0.33450  1.0000 -0.6118130232
O   O24       1.0  0.20230  0.52230  0.16550  1.0000 -0.6118130232
O   O25       1.0  0.44720  0.79890  0.88740  1.0000 -0.6118130232
O   O26       1.0  0.55280  0.79890  0.61260  1.0000 -0.6118130232
O   O27       1.0  0.55280  0.20110  0.11260  1.0000 -0.6118130232
O   O28       1.0  0.44720  0.20110  0.38740  1.0000 -0.6118130232
O   O29       1.0  0.32920  0.89620  0.84670  1.0000 -0.6424805765
O   O30       1.0  0.67080  0.89620  0.65330  1.0000 -0.6424805765
O   O31       1.0  0.67080  0.10380  0.15330  1.0000 -0.6424805765
O   O32       1.0  0.32920  0.10380  0.34670  1.0000 -0.6424805765
O   O33       1.0  0.14210  0.40950  0.52890  1.0000 -0.6323733573
O   O34       1.0  0.85790  0.40950  0.97110  1.0000 -0.6323733573
O   O35       1.0  0.85790  0.59050  0.47110  1.0000 -0.6323733573
O   O36       1.0  0.14210  0.59050  0.02890  1.0000 -0.6323733573
O   O37       1.0  0.05750  0.40000  0.44200  1.0000 -0.6613224094
O   O38       1.0  0.94250  0.40000  0.05800  1.0000 -0.6613224094
O   O39       1.0  0.94250  0.60000  0.55800  1.0000 -0.6613224094
O   O40       1.0  0.05750  0.60000  0.94200  1.0000 -0.6613224094
O   O41       1.0  0.45070  0.16510  0.56400  1.0000 -0.591951931
O   O42       1.0  0.54930  0.16510  0.93600  1.0000 -0.591951931
O   O43       1.0  0.54930  0.83490  0.43600  1.0000 -0.591951931
O   O44       1.0  0.45070  0.83490  0.06400  1.0000 -0.591951931
O   O45       1.0  0.44390  0.11280  0.48650  1.0000 -0.7050772552
O   O46       1.0  0.55610  0.11280  0.01350  1.0000 -0.7045858745
O   O47       1.0  0.55610  0.88720  0.51350  1.0000 -0.7050772552
O   O48       1.0  0.44390  0.88720  0.98650  1.0000 -0.7050772552
O   O49       1.0  0.09930  0.28010  0.59980  1.0000 -0.6424805765
O   O50       1.0  0.90070  0.28010  0.90020  1.0000 -0.6424805765
O   O51       1.0  0.90070  0.71990  0.40020  1.0000 -0.6424805765
O   O52       1.0  0.09930  0.71990  0.09980  1.0000 -0.6424805765
O   O53       1.0  0.00170  0.41330  0.64040  1.0000 -0.6424805765
O   O54       1.0  0.99830  0.41330  0.85960  1.0000 -0.6424805765
O   O55       1.0  0.99830  0.58670  0.35960  1.0000 -0.6424805765
O   O56       1.0  0.00170  0.58670  0.14040  1.0000 -0.6424805765
O   O57       1.0  0.48740  0.99650  0.65160  1.0000 -0.6118130232
O   O58       1.0  0.51260  0.99650  0.84840  1.0000 -0.6118130232
O   O59       1.0  0.51260  0.00350  0.34840  1.0000 -0.6118130232
O   O60       1.0  0.48740  0.00350  0.15160  1.0000 -0.6118130232
O   O61       1.0  0.62020  0.14170  0.64540  1.0000 -0.5508520846
O   O62       1.0  0.37980  0.14170  0.85460  1.0000 -0.5508520846
O   O63       1.0  0.37980  0.85830  0.35460  1.0000 -0.5508520846
O   O64       1.0  0.62020  0.85830  0.14540  1.0000 -0.5508520846
