# DDEC6 charges by PACMAN v1.1 (https://github.com/mtap-research/PACMAN-charge/)
data_2011[Co][tfz]3[FSR]1
_chemical_formula_sum              "Co4 H42 C50 N8 O18"
_cell_length_a       10.463
_cell_length_b       11.846
_cell_length_c       12.511
_cell_angle_alpha    89.2
_cell_angle_beta     104.92
_cell_angle_gamma    106.64

_symmetry_space_group_name_H-M    "P 1"
_symmetry_Int_Tables_number       1

loop_
  _symmetry_equiv_pos_as_xyz
  'x, y, z'

loop_
  _atom_site_type_symbol
  _atom_site_label
  _atom_site_symmetry_multiplicity
  _atom_site_fract_x
  _atom_site_fract_y
  _atom_site_fract_z
  _atom_site_occupancy
  _atom_site_charge
Co  Co1       1.0  0.05570  0.38865  0.00720  1.0000 0.9995338814
Co  Co2       1.0  0.94430  0.61135  0.99280  1.0000 0.9995338814
Co  Co3       1.0  0.17306  0.55214  0.22646  1.0000 0.9363609449
Co  Co4       1.0  0.82694  0.44786  0.77354  1.0000 0.9363609449
H   H1        1.0  0.12170  0.18150  0.90010  1.0000 0.1138349386
H   H2        1.0  0.87830  0.81850  0.09990  1.0000 0.1219048636
H   H3        1.0  0.77090  0.15070  0.96990  1.0000 0.1398541601
H   H4        1.0  0.22910  0.84930  0.03010  1.0000 0.1398541601
H   H5        1.0  0.75070  0.96890  0.87480  1.0000 0.1219048636
H   H6        1.0  0.24930  0.03110  0.12520  1.0000 0.1219048636
H   H7        1.0  0.95980  0.88130  0.84020  1.0000 0.1292355609
H   H8        1.0  0.04020  0.11870  0.15980  1.0000 0.1292355609
H   H9        1.0  0.08070  0.98130  0.81400  1.0000 0.1292355609
H   H10       1.0  0.91930  0.01870  0.18600  1.0000 0.1292355609
H   H11       1.0  0.80830  0.76910  0.68380  1.0000 0.1219048636
H   H12       1.0  0.19170  0.23090  0.31620  1.0000 0.1219048636
H   H13       1.0  0.69710  0.74260  0.49940  1.0000 0.1292355609
H   H14       1.0  0.30290  0.25740  0.50060  1.0000 0.1292355609
H   H15       1.0  0.84930  0.08630  0.46620  1.0000 0.1219048636
H   H16       1.0  0.15070  0.91370  0.53380  1.0000 0.1219048636
H   H17       1.0  0.96950  0.11250  0.65030  1.0000 0.1219048636
H   H18       1.0  0.03050  0.88750  0.34970  1.0000 0.1219048636
H   H19       1.0  0.49900  0.67640  0.26190  1.0000 0.1219048636
H   H20       1.0  0.50100  0.32360  0.73810  1.0000 0.1219048636
H   H21       1.0  0.24150  0.81630  0.34700  1.0000 0.1219048636
H   H22       1.0  0.75850  0.18370  0.65300  1.0000 0.1219048636
H   H23       1.0  0.46570  0.96260  0.39180  1.0000 0.1292355609
H   H24       1.0  0.53430  0.03740  0.60820  1.0000 0.1292355609
H   H25       1.0  0.69610  0.96710  0.30810  1.0000 0.1292355609
H   H26       1.0  0.30390  0.03290  0.69190  1.0000 0.1292355609
H   H27       1.0  0.71720  0.84140  0.30530  1.0000 0.1292355609
H   H28       1.0  0.28280  0.15860  0.69470  1.0000 0.1292355609
H   H29       1.0  0.01590  0.35340  0.55800  1.0000 0.1292355609
H   H30       1.0  0.98410  0.64660  0.44200  1.0000 0.1292355609
H   H31       1.0  0.35640  0.55650  0.47510  1.0000 0.1642396645
H   H32       1.0  0.64360  0.44350  0.52490  1.0000 0.1642396645
H   H33       1.0  0.35550  0.53110  0.79590  1.0000 0.1292355609
H   H34       1.0  0.64450  0.46890  0.20410  1.0000 0.1292355609
H   H35       1.0  0.91840  0.37620  0.37590  1.0000 0.1219048636
H   H36       1.0  0.08160  0.62380  0.62410  1.0000 0.1219048636
H   H37       1.0  0.98170  0.27010  0.38440  1.0000 0.1138349386
H   H38       1.0  0.01830  0.72990  0.61560  1.0000 0.1138349386
H   H39       1.0  0.51410  0.67210  0.81900  1.0000 0.1219048636
H   H40       1.0  0.48590  0.32790  0.18100  1.0000 0.1219048636
H   H41       1.0  0.62580  0.76600  0.77620  1.0000 0.1219048636
H   H42       1.0  0.37420  0.23400  0.22380  1.0000 0.1219048636
C   C1        1.0  0.03190  0.15180  0.90690  1.0000 0.0958301173
C   C2        1.0  0.96810  0.84820  0.09310  1.0000 0.0958301173
C   C3        1.0  0.84010  0.13440  0.94430  1.0000 -0.0255317624
C   C4        1.0  0.15990  0.86560  0.05570  1.0000 -0.0255317624
C   C5        1.0  0.82870  0.03430  0.89230  1.0000 -0.1035956248
C   C6        1.0  0.17130  0.96570  0.10770  1.0000 -0.1035956248
C   C7        1.0  0.98200  0.95670  0.80740  1.0000 -0.1745772986
C   C8        1.0  0.01800  0.04330  0.19260  1.0000 -0.1745772986
C   C9        1.0  0.90470  0.94140  0.68620  1.0000 0.0907962722
C   C10       1.0  0.09530  0.05860  0.31380  1.0000 0.0907962722
C   C11       1.0  0.81950  0.83320  0.63970  1.0000 -0.1376651032
C   C12       1.0  0.18050  0.16680  0.36030  1.0000 -0.1376651032
C   C13       1.0  0.75060  0.81770  0.52970  1.0000 -0.1376651032
C   C14       1.0  0.24940  0.18230  0.47030  1.0000 -0.1376651032
C   C15       1.0  0.75900  0.91190  0.46300  1.0000 0.0907962722
C   C16       1.0  0.24100  0.08810  0.53700  1.0000 0.0907962722
C   C17       1.0  0.84200  0.02180  0.50990  1.0000 -0.1601206788
C   C18       1.0  0.15800  0.97820  0.49010  1.0000 -0.1601206788
C   C19       1.0  0.91430  0.03770  0.62000  1.0000 -0.1601206788
C   C20       1.0  0.08570  0.96230  0.38000  1.0000 -0.1601206788
C   C21       1.0  0.46160  0.72930  0.28810  1.0000 0.1138349386
C   C22       1.0  0.53840  0.27070  0.71190  1.0000 0.1138349386
C   C23       1.0  0.32180  0.80590  0.33540  1.0000 -0.0367799467
C   C24       1.0  0.67820  0.19410  0.66460  1.0000 -0.0367799467
C   C25       1.0  0.44430  0.88710  0.35920  1.0000 -0.1280149325
C   C26       1.0  0.55570  0.11290  0.64080  1.0000 -0.1280149325
C   C27       1.0  0.68120  0.89210  0.34220  1.0000 -0.1783184065
C   C28       1.0  0.31880  0.10790  0.65780  1.0000 -0.1783184065
C   C29       1.0  0.09210  0.40740  0.77400  1.0000 0.5572091238
C   C30       1.0  0.90790  0.59260  0.22600  1.0000 0.5572091238
C   C31       1.0  0.17400  0.43860  0.68940  1.0000 0.0309451231
C   C32       1.0  0.82600  0.56140  0.31060  1.0000 0.0309451231
C   C33       1.0  0.10540  0.40460  0.57850  1.0000 -0.3045790895
C   C34       1.0  0.89460  0.59540  0.42150  1.0000 -0.3045790895
C   C35       1.0  0.17670  0.45050  0.49870  1.0000 0.293651034
C   C36       1.0  0.82330  0.54950  0.50130  1.0000 0.293651034
C   C37       1.0  0.31040  0.52810  0.52890  1.0000 -0.3566988214
C   C38       1.0  0.68960  0.47190  0.47110  1.0000 -0.3566988214
C   C39       1.0  0.37430  0.56250  0.64030  1.0000 0.2842688457
C   C40       1.0  0.62570  0.43750  0.35970  1.0000 0.2842688457
C   C41       1.0  0.30930  0.51380  0.72120  1.0000 -0.2792598112
C   C42       1.0  0.69070  0.48620  0.27880  1.0000 -0.2792598112
C   C43       1.0  0.98280  0.34480  0.35130  1.0000 -0.187383677
C   C44       1.0  0.01720  0.65520  0.64870  1.0000 -0.187383677
C   C45       1.0  0.93780  0.32480  0.22660  1.0000 0.6090736286
C   C46       1.0  0.06220  0.67520  0.77340  1.0000 0.6090736286
C   C47       1.0  0.57680  0.68250  0.77210  1.0000 -0.1745772986
C   C48       1.0  0.42320  0.31750  0.22790  1.0000 -0.1745772986
C   C49       1.0  0.68110  0.61500  0.81710  1.0000 0.593520035
C   C50       1.0  0.31890  0.38500  0.18290  1.0000 0.593520035
N   N1        1.0  0.97090  0.21110  0.95490  1.0000 -0.288816887
N   N2        1.0  0.02910  0.78890  0.04510  1.0000 -0.288816887
N   N3        1.0  0.94890  0.04350  0.86910  1.0000 0.0309451231
N   N4        1.0  0.05110  0.95650  0.13090  1.0000 0.0404659357
N   N5        1.0  0.53310  0.83810  0.32630  1.0000 0.0404659357
N   N6        1.0  0.46690  0.16190  0.67370  1.0000 0.0404659357
N   N7        1.0  0.33190  0.70330  0.29080  1.0000 -0.288816887
N   N8        1.0  0.66810  0.29670  0.70920  1.0000 -0.288816887
O   O1        1.0  0.12650  0.56620  0.06190  1.0000 -0.7516732617
O   O2        1.0  0.87350  0.43380  0.93810  1.0000 -0.7516732617
O   O3        1.0  0.96200  0.37270  0.73550  1.0000 -0.5497588916
O   O4        1.0  0.03800  0.62730  0.26450  1.0000 -0.5497588916
O   O5        1.0  0.15440  0.42330  0.87510  1.0000 -0.493234451
O   O6        1.0  0.84560  0.57670  0.12490  1.0000 -0.493234451
O   O7        1.0  0.11930  0.42560  0.38700  1.0000 -0.1980688079
O   O8        1.0  0.88070  0.57440  0.61300  1.0000 -0.1980688079
O   O9        1.0  0.82530  0.24970  0.18780  1.0000 -0.5399946823
O   O10       1.0  0.17470  0.75030  0.81220  1.0000 -0.5399946823
O   O11       1.0  0.01740  0.38560  0.17190  1.0000 -0.5399946823
O   O12       1.0  0.98260  0.61440  0.82810  1.0000 -0.5399946823
O   O13       1.0  0.49740  0.64650  0.66020  1.0000 -0.1601206788
O   O14       1.0  0.50260  0.35350  0.33980  1.0000 -0.1601206788
O   O15       1.0  0.68010  0.53140  0.75690  1.0000 -0.533692251
O   O16       1.0  0.31990  0.46860  0.24310  1.0000 -0.533692251
O   O17       1.0  0.76080  0.65270  0.91000  1.0000 -0.5497588916
O   O18       1.0  0.23920  0.34730  0.09000  1.0000 -0.5497588916
