# DDEC6 charges by PACMAN v1.1 (https://github.com/mtap-research/PACMAN-charge/)
data_2011[CoDy][nan]3[FSR]1
_chemical_formula_sum              "Dy4 Co6 H60 C84 N12 O60"
_cell_length_a       15.2196
_cell_length_b       15.2196
_cell_length_c       15.4737
_cell_angle_alpha    90
_cell_angle_beta     90
_cell_angle_gamma    120

_symmetry_space_group_name_H-M    "P 1"
_symmetry_Int_Tables_number       1

loop_
  _symmetry_equiv_pos_as_xyz
  'x, y, z'

loop_
  _atom_site_type_symbol
  _atom_site_label
  _atom_site_symmetry_multiplicity
  _atom_site_fract_x
  _atom_site_fract_y
  _atom_site_fract_z
  _atom_site_occupancy
  _atom_site_charge
Dy  Dy1       1.0  0.33333  0.66667  0.25000  1.0000 1.8327006097
Dy  Dy2       1.0  0.66667  0.33333  0.25000  1.0000 1.8327006097
Dy  Dy3       1.0  0.66667  0.33333  0.75000  1.0000 1.8327006097
Dy  Dy4       1.0  0.33333  0.66667  0.75000  1.0000 1.8327006097
Co  Co1       1.0  0.50000  0.50000  0.50000  1.0000 1.0373937682
Co  Co2       1.0  0.50000  0.00000  0.50000  1.0000 1.0373937682
Co  Co3       1.0  0.00000  0.50000  0.50000  1.0000 1.0373937682
Co  Co4       1.0  0.50000  0.50000  0.00000  1.0000 1.0373937682
Co  Co5       1.0  0.00000  0.50000  0.00000  1.0000 1.0373937682
Co  Co6       1.0  0.50000  0.00000  0.00000  1.0000 1.0373937682
H   H1        1.0  0.51290  0.34900  0.54690  1.0000 0.3800577628
H   H2        1.0  0.65100  0.16390  0.54690  1.0000 0.3800577628
H   H3        1.0  0.83610  0.48710  0.54690  1.0000 0.3800577628
H   H4        1.0  0.48710  0.65100  0.54690  1.0000 0.3800577628
H   H5        1.0  0.34900  0.83610  0.54690  1.0000 0.3800577628
H   H6        1.0  0.16390  0.51290  0.54690  1.0000 0.3800577628
H   H7        1.0  0.34900  0.51290  0.95310  1.0000 0.3800577628
H   H8        1.0  0.16390  0.65100  0.95310  1.0000 0.3800577628
H   H9        1.0  0.48710  0.83610  0.95310  1.0000 0.3800577628
H   H10       1.0  0.65100  0.48710  0.95310  1.0000 0.3800577628
H   H11       1.0  0.83610  0.34900  0.95310  1.0000 0.3800577628
H   H12       1.0  0.51290  0.16390  0.95310  1.0000 0.3800577628
H   H13       1.0  0.48710  0.65100  0.45310  1.0000 0.3800577628
H   H14       1.0  0.34900  0.83610  0.45310  1.0000 0.3800577628
H   H15       1.0  0.16390  0.51290  0.45310  1.0000 0.3800577628
H   H16       1.0  0.51290  0.34900  0.45310  1.0000 0.3800577628
H   H17       1.0  0.65100  0.16390  0.45310  1.0000 0.3800577628
H   H18       1.0  0.83610  0.48710  0.45310  1.0000 0.3800577628
H   H19       1.0  0.65100  0.48710  0.04690  1.0000 0.3800577628
H   H20       1.0  0.83610  0.34900  0.04690  1.0000 0.3800577628
H   H21       1.0  0.51290  0.16390  0.04690  1.0000 0.3800577628
H   H22       1.0  0.34900  0.51290  0.04690  1.0000 0.3800577628
H   H23       1.0  0.16390  0.65100  0.04690  1.0000 0.3800577628
H   H24       1.0  0.48710  0.83610  0.04690  1.0000 0.3800577628
H   H25       1.0  0.23390  0.28840  0.34490  1.0000 0.1360424603
H   H26       1.0  0.71160  0.94550  0.34490  1.0000 0.1360424603
H   H27       1.0  0.05450  0.76610  0.34490  1.0000 0.1360424603
H   H28       1.0  0.76610  0.71160  0.34490  1.0000 0.1360424603
H   H29       1.0  0.28840  0.05450  0.34490  1.0000 0.1360424603
H   H30       1.0  0.94550  0.23390  0.34490  1.0000 0.1360424603
H   H31       1.0  0.28840  0.23390  0.15510  1.0000 0.1360424603
H   H32       1.0  0.94550  0.71160  0.15510  1.0000 0.1360424603
H   H33       1.0  0.76610  0.05450  0.15510  1.0000 0.1360424603
H   H34       1.0  0.71160  0.76610  0.15510  1.0000 0.1360424603
H   H35       1.0  0.05450  0.28840  0.15510  1.0000 0.1360424603
H   H36       1.0  0.23390  0.94550  0.15510  1.0000 0.1360424603
H   H37       1.0  0.76610  0.71160  0.65510  1.0000 0.1360424603
H   H38       1.0  0.28840  0.05450  0.65510  1.0000 0.1360424603
H   H39       1.0  0.94550  0.23390  0.65510  1.0000 0.1360424603
H   H40       1.0  0.23390  0.28840  0.65510  1.0000 0.1360424603
H   H41       1.0  0.71160  0.94550  0.65510  1.0000 0.1360424603
H   H42       1.0  0.05450  0.76610  0.65510  1.0000 0.1360424603
H   H43       1.0  0.71160  0.76610  0.84490  1.0000 0.1360424603
H   H44       1.0  0.05450  0.28840  0.84490  1.0000 0.1360424603
H   H45       1.0  0.23390  0.94550  0.84490  1.0000 0.1360424603
H   H46       1.0  0.28840  0.23390  0.84490  1.0000 0.1360424603
H   H47       1.0  0.94550  0.71160  0.84490  1.0000 0.1360424603
H   H48       1.0  0.76610  0.05450  0.84490  1.0000 0.1360424603
H   H49       1.0  0.09950  0.19900  0.25000  1.0000 0.1055768351
H   H50       1.0  0.80100  0.90050  0.25000  1.0000 0.1055768351
H   H51       1.0  0.09950  0.90050  0.25000  1.0000 0.1055768351
H   H52       1.0  0.90050  0.80100  0.25000  1.0000 0.1055768351
H   H53       1.0  0.19900  0.09950  0.25000  1.0000 0.1055768351
H   H54       1.0  0.90050  0.09950  0.25000  1.0000 0.1055768351
H   H55       1.0  0.90050  0.80100  0.75000  1.0000 0.1055768351
H   H56       1.0  0.19900  0.09950  0.75000  1.0000 0.1055768351
H   H57       1.0  0.90050  0.09950  0.75000  1.0000 0.1055768351
H   H58       1.0  0.09950  0.19900  0.75000  1.0000 0.1055768351
H   H59       1.0  0.80100  0.90050  0.75000  1.0000 0.1055768351
H   H60       1.0  0.09950  0.90050  0.75000  1.0000 0.1055768351
C   C1        1.0  0.35470  0.49270  0.36080  1.0000 0.5673274617
C   C2        1.0  0.50730  0.86200  0.36080  1.0000 0.5673274617
C   C3        1.0  0.13800  0.64530  0.36080  1.0000 0.5673274617
C   C4        1.0  0.64530  0.50730  0.36080  1.0000 0.5673274617
C   C5        1.0  0.49270  0.13800  0.36080  1.0000 0.5673274617
C   C6        1.0  0.86200  0.35470  0.36080  1.0000 0.5673274617
C   C7        1.0  0.49270  0.35470  0.13920  1.0000 0.5673274617
C   C8        1.0  0.86200  0.50730  0.13920  1.0000 0.5673274617
C   C9        1.0  0.64530  0.13800  0.13920  1.0000 0.5673274617
C   C10       1.0  0.50730  0.64530  0.13920  1.0000 0.5673274617
C   C11       1.0  0.13800  0.49270  0.13920  1.0000 0.5673274617
C   C12       1.0  0.35470  0.86200  0.13920  1.0000 0.5673274617
C   C13       1.0  0.64530  0.50730  0.63920  1.0000 0.5673274617
C   C14       1.0  0.49270  0.13800  0.63920  1.0000 0.5673274617
C   C15       1.0  0.86200  0.35470  0.63920  1.0000 0.5673274617
C   C16       1.0  0.35470  0.49270  0.63920  1.0000 0.5673274617
C   C17       1.0  0.50730  0.86200  0.63920  1.0000 0.5673274617
C   C18       1.0  0.13800  0.64530  0.63920  1.0000 0.5673274617
C   C19       1.0  0.50730  0.64530  0.86080  1.0000 0.5673274617
C   C20       1.0  0.13800  0.49270  0.86080  1.0000 0.5673274617
C   C21       1.0  0.35470  0.86200  0.86080  1.0000 0.5673274617
C   C22       1.0  0.49270  0.35470  0.86080  1.0000 0.5673274617
C   C23       1.0  0.86200  0.50730  0.86080  1.0000 0.5673274617
C   C24       1.0  0.64530  0.13800  0.86080  1.0000 0.5673274617
C   C25       1.0  0.26610  0.42740  0.30360  1.0000 0.1288812467
C   C26       1.0  0.57260  0.83870  0.30360  1.0000 0.1288812467
C   C27       1.0  0.16130  0.73390  0.30360  1.0000 0.1288812467
C   C28       1.0  0.73390  0.57260  0.30360  1.0000 0.1288812467
C   C29       1.0  0.42740  0.16130  0.30360  1.0000 0.1288812467
C   C30       1.0  0.83870  0.26610  0.30360  1.0000 0.1288812467
C   C31       1.0  0.42740  0.26610  0.19640  1.0000 0.1288812467
C   C32       1.0  0.83870  0.57260  0.19640  1.0000 0.1288812467
C   C33       1.0  0.73390  0.16130  0.19640  1.0000 0.1288812467
C   C34       1.0  0.57260  0.73390  0.19640  1.0000 0.1288812467
C   C35       1.0  0.16130  0.42740  0.19640  1.0000 0.1288812467
C   C36       1.0  0.26610  0.83870  0.19640  1.0000 0.1288812467
C   C37       1.0  0.73390  0.57260  0.69640  1.0000 0.1288812467
C   C38       1.0  0.42740  0.16130  0.69640  1.0000 0.1288812467
C   C39       1.0  0.83870  0.26610  0.69640  1.0000 0.1288812467
C   C40       1.0  0.26610  0.42740  0.69640  1.0000 0.1288812467
C   C41       1.0  0.57260  0.83870  0.69640  1.0000 0.1288812467
C   C42       1.0  0.16130  0.73390  0.69640  1.0000 0.1288812467
C   C43       1.0  0.57260  0.73390  0.80360  1.0000 0.1288812467
C   C44       1.0  0.16130  0.42740  0.80360  1.0000 0.1288812467
C   C45       1.0  0.26610  0.83870  0.80360  1.0000 0.1288812467
C   C46       1.0  0.42740  0.26610  0.80360  1.0000 0.1288812467
C   C47       1.0  0.83870  0.57260  0.80360  1.0000 0.1288812467
C   C48       1.0  0.73390  0.16130  0.80360  1.0000 0.1288812467
C   C49       1.0  0.21480  0.32260  0.30620  1.0000 -0.1352617894
C   C50       1.0  0.67740  0.89220  0.30620  1.0000 -0.1352617894
C   C51       1.0  0.10780  0.78520  0.30620  1.0000 -0.1352617894
C   C52       1.0  0.78520  0.67740  0.30620  1.0000 -0.1352617894
C   C53       1.0  0.32260  0.10780  0.30620  1.0000 -0.1347113703
C   C54       1.0  0.89220  0.21480  0.30620  1.0000 -0.1352617894
C   C55       1.0  0.32260  0.21480  0.19380  1.0000 -0.1347113703
C   C56       1.0  0.89220  0.67740  0.19380  1.0000 -0.1352617894
C   C57       1.0  0.78520  0.10780  0.19380  1.0000 -0.1352617894
C   C58       1.0  0.67740  0.78520  0.19380  1.0000 -0.1352617894
C   C59       1.0  0.10780  0.32260  0.19380  1.0000 -0.1352617894
C   C60       1.0  0.21480  0.89220  0.19380  1.0000 -0.1352617894
C   C61       1.0  0.78520  0.67740  0.69380  1.0000 -0.1352617894
C   C62       1.0  0.32260  0.10780  0.69380  1.0000 -0.1347113703
C   C63       1.0  0.89220  0.21480  0.69380  1.0000 -0.1347113703
C   C64       1.0  0.21480  0.32260  0.69380  1.0000 -0.1352617894
C   C65       1.0  0.67740  0.89220  0.69380  1.0000 -0.1347113703
C   C66       1.0  0.10780  0.78520  0.69380  1.0000 -0.1352617894
C   C67       1.0  0.67740  0.78520  0.80620  1.0000 -0.1347113703
C   C68       1.0  0.10780  0.32260  0.80620  1.0000 -0.1352617894
C   C69       1.0  0.21480  0.89220  0.80620  1.0000 -0.1352617894
C   C70       1.0  0.32260  0.21480  0.80620  1.0000 -0.1347113703
C   C71       1.0  0.89220  0.67740  0.80620  1.0000 -0.1347113703
C   C72       1.0  0.78520  0.10780  0.80620  1.0000 -0.1352617894
C   C73       1.0  0.13475  0.26950  0.25000  1.0000 -0.0576032395
C   C74       1.0  0.73050  0.86525  0.25000  1.0000 -0.0576032395
C   C75       1.0  0.13475  0.86525  0.25000  1.0000 -0.0576032395
C   C76       1.0  0.86525  0.73050  0.25000  1.0000 -0.0576032395
C   C77       1.0  0.26950  0.13475  0.25000  1.0000 -0.0576032395
C   C78       1.0  0.86525  0.13475  0.25000  1.0000 -0.0576032395
C   C79       1.0  0.86525  0.73050  0.75000  1.0000 -0.0576032395
C   C80       1.0  0.26950  0.13475  0.75000  1.0000 -0.0576032395
C   C81       1.0  0.86525  0.13475  0.75000  1.0000 -0.0576032395
C   C82       1.0  0.13475  0.26950  0.75000  1.0000 -0.0576032395
C   C83       1.0  0.73050  0.86525  0.75000  1.0000 -0.0576032395
C   C84       1.0  0.13475  0.86525  0.75000  1.0000 -0.0576032395
N   N1        1.0  0.23940  0.47880  0.25000  1.0000 -0.3433346952
N   N2        1.0  0.52120  0.76060  0.25000  1.0000 -0.3433346952
N   N3        1.0  0.23940  0.76060  0.25000  1.0000 -0.3433346952
N   N4        1.0  0.76060  0.52120  0.25000  1.0000 -0.3433346952
N   N5        1.0  0.47880  0.23940  0.25000  1.0000 -0.3433346952
N   N6        1.0  0.76060  0.23940  0.25000  1.0000 -0.3433346952
N   N7        1.0  0.76060  0.52120  0.75000  1.0000 -0.3433346952
N   N8        1.0  0.47880  0.23940  0.75000  1.0000 -0.3433346952
N   N9        1.0  0.76060  0.23940  0.75000  1.0000 -0.3433346952
N   N10       1.0  0.23940  0.47880  0.75000  1.0000 -0.3433346952
N   N11       1.0  0.52120  0.76060  0.75000  1.0000 -0.3433346952
N   N12       1.0  0.23940  0.76060  0.75000  1.0000 -0.3433346952
O   O1        1.0  0.38710  0.44870  0.40750  1.0000 -0.5371077438
O   O2        1.0  0.55130  0.93840  0.40750  1.0000 -0.5371077438
O   O3        1.0  0.06160  0.61290  0.40750  1.0000 -0.5371077438
O   O4        1.0  0.61290  0.55130  0.40750  1.0000 -0.5371077438
O   O5        1.0  0.44870  0.06160  0.40750  1.0000 -0.5371077438
O   O6        1.0  0.93840  0.38710  0.40750  1.0000 -0.5371077438
O   O7        1.0  0.44870  0.38710  0.09250  1.0000 -0.5371077438
O   O8        1.0  0.93840  0.55130  0.09250  1.0000 -0.5371077438
O   O9        1.0  0.61290  0.06160  0.09250  1.0000 -0.5371077438
O   O10       1.0  0.55130  0.61290  0.09250  1.0000 -0.5371077438
O   O11       1.0  0.06160  0.44870  0.09250  1.0000 -0.5371077438
O   O12       1.0  0.38710  0.93840  0.09250  1.0000 -0.5371077438
O   O13       1.0  0.61290  0.55130  0.59250  1.0000 -0.5371077438
O   O14       1.0  0.44870  0.06160  0.59250  1.0000 -0.5371077438
O   O15       1.0  0.93840  0.38710  0.59250  1.0000 -0.5371077438
O   O16       1.0  0.38710  0.44870  0.59250  1.0000 -0.5371077438
O   O17       1.0  0.55130  0.93840  0.59250  1.0000 -0.5371077438
O   O18       1.0  0.06160  0.61290  0.59250  1.0000 -0.5371077438
O   O19       1.0  0.55130  0.61290  0.90750  1.0000 -0.5371077438
O   O20       1.0  0.06160  0.44870  0.90750  1.0000 -0.5371077438
O   O21       1.0  0.38710  0.93840  0.90750  1.0000 -0.5371077438
O   O22       1.0  0.44870  0.38710  0.90750  1.0000 -0.5371077438
O   O23       1.0  0.93840  0.55130  0.90750  1.0000 -0.5371077438
O   O24       1.0  0.61290  0.06160  0.90750  1.0000 -0.5371077438
O   O25       1.0  0.38880  0.58780  0.35662  1.0000 -0.6228551273
O   O26       1.0  0.41220  0.80100  0.35662  1.0000 -0.6228551273
O   O27       1.0  0.19900  0.61120  0.35662  1.0000 -0.6228551273
O   O28       1.0  0.61120  0.41220  0.35662  1.0000 -0.6228551273
O   O29       1.0  0.58780  0.19900  0.35662  1.0000 -0.6228551273
O   O30       1.0  0.80100  0.38880  0.35662  1.0000 -0.6228551273
O   O31       1.0  0.58780  0.38880  0.14338  1.0000 -0.6228551273
O   O32       1.0  0.80100  0.41220  0.14338  1.0000 -0.6228551273
O   O33       1.0  0.61120  0.19900  0.14338  1.0000 -0.6228551273
O   O34       1.0  0.41220  0.61120  0.14338  1.0000 -0.6228551273
O   O35       1.0  0.19900  0.58780  0.14338  1.0000 -0.6228551273
O   O36       1.0  0.38880  0.80100  0.14338  1.0000 -0.6228551273
O   O37       1.0  0.61120  0.41220  0.64338  1.0000 -0.6228551273
O   O38       1.0  0.58780  0.19900  0.64338  1.0000 -0.6228551273
O   O39       1.0  0.80100  0.38880  0.64338  1.0000 -0.6228551273
O   O40       1.0  0.38880  0.58780  0.64338  1.0000 -0.6228551273
O   O41       1.0  0.41220  0.80100  0.64338  1.0000 -0.6228551273
O   O42       1.0  0.19900  0.61120  0.64338  1.0000 -0.6228551273
O   O43       1.0  0.41220  0.61120  0.85662  1.0000 -0.6228551273
O   O44       1.0  0.19900  0.58780  0.85662  1.0000 -0.6228551273
O   O45       1.0  0.38880  0.80100  0.85662  1.0000 -0.6228551273
O   O46       1.0  0.58780  0.38880  0.85662  1.0000 -0.6228551273
O   O47       1.0  0.80100  0.41220  0.85662  1.0000 -0.6228551273
O   O48       1.0  0.61120  0.19900  0.85662  1.0000 -0.6228551273
O   O49       1.0  0.48560  0.35070  0.50000  1.0000 -0.668771476
O   O50       1.0  0.64930  0.13490  0.50000  1.0000 -0.668771476
O   O51       1.0  0.86510  0.51440  0.50000  1.0000 -0.668771476
O   O52       1.0  0.51440  0.64930  0.50000  1.0000 -0.668771476
O   O53       1.0  0.35070  0.86510  0.50000  1.0000 -0.668771476
O   O54       1.0  0.13490  0.48560  0.50000  1.0000 -0.668771476
O   O55       1.0  0.35070  0.48560  0.00000  1.0000 -0.668771476
O   O56       1.0  0.13490  0.64930  0.00000  1.0000 -0.668771476
O   O57       1.0  0.51440  0.86510  0.00000  1.0000 -0.668771476
O   O58       1.0  0.64930  0.51440  0.00000  1.0000 -0.668771476
O   O59       1.0  0.86510  0.35070  0.00000  1.0000 -0.668771476
O   O60       1.0  0.48560  0.13490  0.00000  1.0000 -0.668771476
