# DDEC6 charges by PACMAN v1.1 (https://github.com/mtap-research/PACMAN-charge/)
data_2011[Mn][tfz]3[FSR]1
_chemical_formula_sum              "Mn3 H8 C24 O20"
_cell_length_a       9.4491
_cell_length_b       10.0762
_cell_length_c       11.5763
_cell_angle_alpha    106.907
_cell_angle_beta     89.597
_cell_angle_gamma    99.903

_symmetry_space_group_name_H-M    "P 1"
_symmetry_Int_Tables_number       1

loop_
  _symmetry_equiv_pos_as_xyz
  'x, y, z'

loop_
  _atom_site_type_symbol
  _atom_site_label
  _atom_site_symmetry_multiplicity
  _atom_site_fract_x
  _atom_site_fract_y
  _atom_site_fract_z
  _atom_site_occupancy
  _atom_site_charge
Mn  Mn1       1.0  0.00000  0.00000  0.50000  1.0000 1.1019740286
Mn  Mn2       1.0  0.99053  0.08932  0.83214  1.0000 1.0711453738
Mn  Mn3       1.0  0.00947  0.91068  0.16786  1.0000 1.0711453738
H   H1        1.0  0.87660  0.44570  0.52810  1.0000 0.1492146608
H   H2        1.0  0.12340  0.55430  0.47190  1.0000 0.1492146608
H   H3        1.0  0.87690  0.70710  0.63340  1.0000 0.1642578723
H   H4        1.0  0.12310  0.29290  0.36660  1.0000 0.1642578723
H   H5        1.0  0.73480  0.19030  0.50320  1.0000 0.1492146608
H   H6        1.0  0.26520  0.80970  0.49680  1.0000 0.1492146608
H   H7        1.0  0.47360  0.21570  0.53640  1.0000 0.1492146608
H   H8        1.0  0.52640  0.78430  0.46360  1.0000 0.1492146608
C   C1        1.0  0.98100  0.30120  0.68890  1.0000 0.5519642415
C   C2        1.0  0.01900  0.69880  0.31110  1.0000 0.5519642415
C   C3        1.0  0.95070  0.44200  0.69380  1.0000 0.0936866658
C   C4        1.0  0.04930  0.55800  0.30620  1.0000 0.0936866658
C   C5        1.0  0.90400  0.49530  0.61020  1.0000 -0.1703589676
C   C6        1.0  0.09600  0.50470  0.38980  1.0000 -0.1703589676
C   C7        1.0  0.90380  0.64070  0.66900  1.0000 -0.1572181216
C   C8        1.0  0.09620  0.35930  0.33100  1.0000 -0.1572181216
C   C9        1.0  0.94870  0.66580  0.78440  1.0000 0.082847833
C   C10       1.0  0.05130  0.33420  0.21560  1.0000 0.082847833
C   C11       1.0  0.96550  0.79090  0.89050  1.0000 0.5519642415
C   C12       1.0  0.03450  0.20910  0.10950  1.0000 0.5519642415
C   C13       1.0  0.77650  0.98640  0.27510  1.0000 0.5441954317
C   C14       1.0  0.22350  0.01360  0.72490  1.0000 0.5441954317
C   C15       1.0  0.65590  0.04560  0.34200  1.0000 0.0975196412
C   C16       1.0  0.34410  0.95440  0.65800  1.0000 0.0975196412
C   C17       1.0  0.65440  0.14150  0.44970  1.0000 -0.1703589676
C   C18       1.0  0.34560  0.85850  0.55030  1.0000 -0.1703589676
C   C19       1.0  0.50940  0.15520  0.46770  1.0000 -0.1572181216
C   C20       1.0  0.49060  0.84480  0.53230  1.0000 -0.1572181216
C   C21       1.0  0.43090  0.06770  0.37090  1.0000 0.0975196412
C   C22       1.0  0.56910  0.93230  0.62910  1.0000 0.0975196412
C   C23       1.0  0.27290  0.03000  0.34350  1.0000 0.5519642415
C   C24       1.0  0.72710  0.97000  0.65650  1.0000 0.5519642415
O   O1        1.0  0.96740  0.21219  0.58767  1.0000 -0.5281184731
O   O2        1.0  0.03260  0.78781  0.41233  1.0000 -0.5281184731
O   O3        1.0  0.01880  0.28500  0.78768  1.0000 -0.4986788152
O   O4        1.0  0.98120  0.71500  0.21232  1.0000 -0.4986788152
O   O5        1.0  0.93030  0.89890  0.87535  1.0000 -0.5086235819
O   O6        1.0  0.06970  0.10110  0.12465  1.0000 -0.5086235819
O   O7        1.0  0.00870  0.77700  0.98868  1.0000 -0.4836274801
O   O8        1.0  0.99130  0.22300  0.01132  1.0000 -0.4836274801
O   O9        1.0  0.97890  0.54476  0.80186  1.0000 -0.0430647215
O   O10       1.0  0.02110  0.45524  0.19814  1.0000 -0.0456025792
O   O11       1.0  0.89569  0.01180  0.33405  1.0000 -0.543328744
O   O12       1.0  0.10431  0.98820  0.66595  1.0000 -0.543328744
O   O13       1.0  0.76190  0.91860  0.16590  1.0000 -0.4395334838
O   O14       1.0  0.23810  0.08140  0.83410  1.0000 -0.4462029455
O   O15       1.0  0.22800  0.95070  0.24055  1.0000 -0.4986788152
O   O16       1.0  0.77200  0.04930  0.75945  1.0000 -0.4986788152
O   O17       1.0  0.19875  0.08270  0.42930  1.0000 -0.543328744
O   O18       1.0  0.80125  0.91730  0.57070  1.0000 -0.543328744
O   O19       1.0  0.51940  0.99780  0.28893  1.0000 -0.0589554837
O   O20       1.0  0.48060  0.00220  0.71107  1.0000 -0.0589554837
