# DDEC6 charges by PACMAN v1.1 (https://github.com/mtap-research/PACMAN-charge/)
data_2011[CuNd][jaj]3[FSR]1
_chemical_formula_sum              "Nd4 Cu4 H76 C64 N8 O60"
_cell_length_a       12.82
_cell_length_b       12.264
_cell_length_c       20.5522
_cell_angle_alpha    90
_cell_angle_beta     115.068
_cell_angle_gamma    90

_symmetry_space_group_name_H-M    "P 1"
_symmetry_Int_Tables_number       1

loop_
  _symmetry_equiv_pos_as_xyz
  'x, y, z'

loop_
  _atom_site_type_symbol
  _atom_site_label
  _atom_site_symmetry_multiplicity
  _atom_site_fract_x
  _atom_site_fract_y
  _atom_site_fract_z
  _atom_site_occupancy
  _atom_site_charge
Nd  Nd1       1.0  0.87691  0.86631  0.46853  1.0000 2.0371216406
Nd  Nd2       1.0  0.12309  0.36631  0.03147  1.0000 2.0371216406
Nd  Nd3       1.0  0.12309  0.13369  0.53147  1.0000 2.0371216406
Nd  Nd4       1.0  0.87691  0.63369  0.96853  1.0000 2.0371216406
Cu  Cu1       1.0  0.73104  0.31819  0.22242  1.0000 0.7625208368
Cu  Cu2       1.0  0.26896  0.81819  0.27758  1.0000 0.7625208368
Cu  Cu3       1.0  0.26896  0.68181  0.77758  1.0000 0.7625208368
Cu  Cu4       1.0  0.73104  0.18181  0.72242  1.0000 0.7625208368
H   H1        1.0  0.60000  0.27950  0.08200  1.0000 0.3256442269
H   H2        1.0  0.70620  0.29670  0.08220  1.0000 0.3593774383
H   H3        1.0  0.01660  0.75750  0.40530  1.0000 0.3890288343
H   H4        1.0  0.91540  0.69280  0.38260  1.0000 0.3722368946
H   H5        1.0  0.82890  0.99570  0.35000  1.0000 0.315682428
H   H6        1.0  0.94610  0.99030  0.37260  1.0000 0.3593774383
H   H7        1.0  0.74370  0.83590  0.55160  1.0000 0.3805944045
H   H8        1.0  0.67310  0.90100  0.47370  1.0000 0.409431534
H   H9        1.0  0.82750  0.64340  0.49460  1.0000 0.3890288343
H   H10       1.0  0.88380  0.68910  0.56390  1.0000 0.3593774383
H   H11       1.0  0.30410  0.77790  0.58900  1.0000 0.1792071723
H   H12       1.0  0.17900  0.74600  0.58260  1.0000 0.1792071723
H   H13       1.0  0.20470  0.74300  0.51290  1.0000 0.1734706481
H   H14       1.0  0.51870  0.79620  0.32580  1.0000 0.1186953244
H   H15       1.0  0.26950  0.58790  0.22690  1.0000 0.1093658527
H   H16       1.0  0.40040  0.45820  0.22670  1.0000 0.1413010845
H   H17       1.0  0.19410  0.98760  0.35440  1.0000 0.1186953244
H   H18       1.0  0.07170  0.89660  0.15240  1.0000 0.1186953244
H   H19       1.0  0.93430  0.03440  0.11800  1.0000 0.1413010845
H   H20       1.0  0.40000  0.77950  0.41800  1.0000 0.3256442269
H   H21       1.0  0.29380  0.79670  0.41780  1.0000 0.3593774383
H   H22       1.0  0.98340  0.25750  0.09470  1.0000 0.3890288343
H   H23       1.0  0.08460  0.19280  0.11740  1.0000 0.3722368946
H   H24       1.0  0.17110  0.49570  0.15000  1.0000 0.315682428
H   H25       1.0  0.05390  0.49030  0.12740  1.0000 0.3593774383
H   H26       1.0  0.25630  0.33590  0.94840  1.0000 0.3805944045
H   H27       1.0  0.32690  0.40100  0.02630  1.0000 0.409431534
H   H28       1.0  0.17250  0.14340  0.00540  1.0000 0.3890288343
H   H29       1.0  0.11620  0.18910  0.93610  1.0000 0.3593774383
H   H30       1.0  0.69590  0.27790  0.91100  1.0000 0.1792071723
H   H31       1.0  0.82100  0.24600  0.91740  1.0000 0.1792071723
H   H32       1.0  0.79530  0.24300  0.98710  1.0000 0.1734706481
H   H33       1.0  0.48130  0.29620  0.17420  1.0000 0.1186953244
H   H34       1.0  0.73050  0.08790  0.27310  1.0000 0.1093658527
H   H35       1.0  0.59960  0.95820  0.27330  1.0000 0.1413010845
H   H36       1.0  0.80590  0.48760  0.14560  1.0000 0.1186953244
H   H37       1.0  0.92830  0.39660  0.34760  1.0000 0.1186953244
H   H38       1.0  0.06570  0.53440  0.38200  1.0000 0.1413010845
H   H39       1.0  0.40000  0.72050  0.91800  1.0000 0.3256442269
H   H40       1.0  0.29380  0.70330  0.91780  1.0000 0.3593774383
H   H41       1.0  0.98340  0.24250  0.59470  1.0000 0.3890288343
H   H42       1.0  0.08460  0.30720  0.61740  1.0000 0.3722368946
H   H43       1.0  0.17110  0.00430  0.65000  1.0000 0.315682428
H   H44       1.0  0.05390  0.00970  0.62740  1.0000 0.3593774383
H   H45       1.0  0.25630  0.16410  0.44840  1.0000 0.3805944045
H   H46       1.0  0.32690  0.09900  0.52630  1.0000 0.409431534
H   H47       1.0  0.17250  0.35660  0.50540  1.0000 0.3890288343
H   H48       1.0  0.11620  0.31090  0.43610  1.0000 0.3593774383
H   H49       1.0  0.69590  0.22210  0.41100  1.0000 0.1792071723
H   H50       1.0  0.82100  0.25400  0.41740  1.0000 0.1792071723
H   H51       1.0  0.79530  0.25700  0.48710  1.0000 0.1734706481
H   H52       1.0  0.48130  0.20380  0.67420  1.0000 0.1186953244
H   H53       1.0  0.73050  0.41210  0.77310  1.0000 0.1093658527
H   H54       1.0  0.59960  0.54180  0.77330  1.0000 0.1413010845
H   H55       1.0  0.80590  0.01240  0.64560  1.0000 0.1186953244
H   H56       1.0  0.92830  0.10340  0.84760  1.0000 0.1186953244
H   H57       1.0  0.06570  0.96560  0.88200  1.0000 0.1413010845
H   H58       1.0  0.60000  0.22050  0.58200  1.0000 0.3256442269
H   H59       1.0  0.70620  0.20330  0.58220  1.0000 0.3593774383
H   H60       1.0  0.01660  0.74250  0.90530  1.0000 0.3890288343
H   H61       1.0  0.91540  0.80720  0.88260  1.0000 0.3722368946
H   H62       1.0  0.82890  0.50430  0.85000  1.0000 0.315682428
H   H63       1.0  0.94610  0.50970  0.87260  1.0000 0.3593774383
H   H64       1.0  0.74370  0.66410  0.05160  1.0000 0.3805944045
H   H65       1.0  0.67310  0.59900  0.97370  1.0000 0.409431534
H   H66       1.0  0.82750  0.85660  0.99460  1.0000 0.3890288343
H   H67       1.0  0.88380  0.81090  0.06390  1.0000 0.3593774383
H   H68       1.0  0.30410  0.72210  0.08900  1.0000 0.1792071723
H   H69       1.0  0.17900  0.75400  0.08260  1.0000 0.1792071723
H   H70       1.0  0.20470  0.75700  0.01290  1.0000 0.1734706481
H   H71       1.0  0.51870  0.70380  0.82580  1.0000 0.1186953244
H   H72       1.0  0.26950  0.91210  0.72690  1.0000 0.1093658527
H   H73       1.0  0.40040  0.04180  0.72670  1.0000 0.1413010845
H   H74       1.0  0.19410  0.51240  0.85440  1.0000 0.1186953244
H   H75       1.0  0.07170  0.60340  0.65240  1.0000 0.1186953244
H   H76       1.0  0.93430  0.46560  0.61800  1.0000 0.1413010845
C   C1        1.0  0.18470  0.89640  0.54300  1.0000 0.7141608467
C   C2        1.0  0.22130  0.78110  0.55820  1.0000 -0.5944230686
C   C3        1.0  0.70070  0.69340  0.33560  1.0000 0.6071738472
C   C4        1.0  0.57810  0.65490  0.30630  1.0000 -0.0834066625
C   C5        1.0  0.49460  0.72620  0.30520  1.0000 0.061510713
C   C6        1.0  0.34920  0.60530  0.24810  1.0000 0.0881502574
C   C7        1.0  0.42700  0.52760  0.24770  1.0000 -0.156463405
C   C8        1.0  0.54400  0.55120  0.27790  1.0000 0.0499760733
C   C9        1.0  0.62800  0.46330  0.27970  1.0000 0.5542316308
C   C10       1.0  0.89470  0.18670  0.19620  1.0000 0.5633984079
C   C11       1.0  0.98340  0.09770  0.21890  1.0000 0.0095856815
C   C12       1.0  0.06090  0.08240  0.29010  1.0000 -0.0612157713
C   C13       1.0  0.06810  0.15490  0.35080  1.0000 0.6000944545
C   C14       1.0  0.14060  0.99810  0.30580  1.0000 0.061510713
C   C15       1.0  0.06950  0.94480  0.18790  1.0000 0.1186953244
C   C16       1.0  0.98720  0.02680  0.16690  1.0000 -0.1398486922
C   C17       1.0  0.81530  0.39640  0.95700  1.0000 0.7141608467
C   C18       1.0  0.77870  0.28110  0.94180  1.0000 -0.5944230686
C   C19       1.0  0.29930  0.19340  0.16440  1.0000 0.6071738472
C   C20       1.0  0.42190  0.15490  0.19370  1.0000 -0.0834066625
C   C21       1.0  0.50540  0.22620  0.19480  1.0000 0.061510713
C   C22       1.0  0.65080  0.10530  0.25190  1.0000 0.0881502574
C   C23       1.0  0.57300  0.02760  0.25230  1.0000 -0.156463405
C   C24       1.0  0.45600  0.05120  0.22210  1.0000 0.0499760733
C   C25       1.0  0.37200  0.96330  0.22030  1.0000 0.5542316308
C   C26       1.0  0.10530  0.68670  0.30380  1.0000 0.5633984079
C   C27       1.0  0.01660  0.59770  0.28110  1.0000 0.0095856815
C   C28       1.0  0.93910  0.58240  0.20990  1.0000 -0.0612157713
C   C29       1.0  0.93190  0.65490  0.14920  1.0000 0.6000944545
C   C30       1.0  0.85940  0.49810  0.19420  1.0000 0.061510713
C   C31       1.0  0.93050  0.44480  0.31210  1.0000 0.1186953244
C   C32       1.0  0.01280  0.52680  0.33310  1.0000 -0.1398486922
C   C33       1.0  0.81530  0.10360  0.45700  1.0000 0.7141608467
C   C34       1.0  0.77870  0.21890  0.44180  1.0000 -0.5944230686
C   C35       1.0  0.29930  0.30660  0.66440  1.0000 0.6071738472
C   C36       1.0  0.42190  0.34510  0.69370  1.0000 -0.0834066625
C   C37       1.0  0.50540  0.27380  0.69480  1.0000 0.061510713
C   C38       1.0  0.65080  0.39470  0.75190  1.0000 0.0881502574
C   C39       1.0  0.57300  0.47240  0.75230  1.0000 -0.156463405
C   C40       1.0  0.45600  0.44880  0.72210  1.0000 0.0499760733
C   C41       1.0  0.37200  0.53670  0.72030  1.0000 0.5542316308
C   C42       1.0  0.10530  0.81330  0.80380  1.0000 0.5633984079
C   C43       1.0  0.01660  0.90230  0.78110  1.0000 0.0095856815
C   C44       1.0  0.93910  0.91760  0.70990  1.0000 -0.0612157713
C   C45       1.0  0.93190  0.84510  0.64920  1.0000 0.6000944545
C   C46       1.0  0.85940  0.00190  0.69420  1.0000 0.061510713
C   C47       1.0  0.93050  0.05520  0.81210  1.0000 0.1186953244
C   C48       1.0  0.01280  0.97320  0.83310  1.0000 -0.1398486922
C   C49       1.0  0.18470  0.60360  0.04300  1.0000 0.7141608467
C   C50       1.0  0.22130  0.71890  0.05820  1.0000 -0.5944230686
C   C51       1.0  0.70070  0.80660  0.83560  1.0000 0.6071738472
C   C52       1.0  0.57810  0.84510  0.80630  1.0000 -0.0834066625
C   C53       1.0  0.49460  0.77380  0.80520  1.0000 0.061510713
C   C54       1.0  0.34920  0.89470  0.74810  1.0000 0.0881502574
C   C55       1.0  0.42700  0.97240  0.74770  1.0000 -0.156463405
C   C56       1.0  0.54400  0.94880  0.77790  1.0000 0.0499760733
C   C57       1.0  0.62800  0.03670  0.77970  1.0000 0.5542316308
C   C58       1.0  0.89470  0.31330  0.69620  1.0000 0.5633984079
C   C59       1.0  0.98340  0.40230  0.71890  1.0000 0.0095856815
C   C60       1.0  0.06090  0.41760  0.79010  1.0000 -0.0612157713
C   C61       1.0  0.06810  0.34510  0.85080  1.0000 0.6000944545
C   C62       1.0  0.14060  0.50190  0.80580  1.0000 0.061510713
C   C63       1.0  0.06950  0.55520  0.68790  1.0000 0.1186953244
C   C64       1.0  0.98720  0.47320  0.66690  1.0000 -0.1398486922
N   N1        1.0  0.38180  0.70400  0.27720  1.0000 -0.2287024985
N   N2        1.0  0.14540  0.93090  0.25570  1.0000 -0.2002909611
N   N3        1.0  0.61820  0.20400  0.22280  1.0000 -0.2287024985
N   N4        1.0  0.85460  0.43090  0.24430  1.0000 -0.2002909611
N   N5        1.0  0.61820  0.29600  0.72280  1.0000 -0.2287024985
N   N6        1.0  0.85460  0.06910  0.74430  1.0000 -0.2002909611
N   N7        1.0  0.38180  0.79600  0.77720  1.0000 -0.2287024985
N   N8        1.0  0.14540  0.56910  0.75570  1.0000 -0.2002909611
O   O1        1.0  0.08000  0.92310  0.51100  1.0000 -0.736488087
O   O2        1.0  0.25870  0.97120  0.56270  1.0000 -0.6381055246
O   O3        1.0  0.72360  0.78170  0.37090  1.0000 -0.6949291358
O   O4        1.0  0.76960  0.64050  0.32110  1.0000 -0.4869901667
O   O5        1.0  0.62540  0.43830  0.21890  1.0000 -0.5405114124
O   O6        1.0  0.84560  0.20330  0.23770  1.0000 -0.5462462882
O   O7        1.0  0.87350  0.23570  0.13890  1.0000 -0.5582974384
O   O8        1.0  0.05030  0.11010  0.40010  1.0000 -0.6689345817
O   O9        1.0  0.09450  0.25210  0.34890  1.0000 -0.5168740282
O   O10       1.0  0.68620  0.41730  0.33630  1.0000 -0.5405114124
O   O11       1.0  0.65610  0.31950  0.09880  1.0000 -0.6689345817
O   O12       1.0  0.96810  0.72660  0.41950  1.0000 -0.7821009289
O   O13       1.0  0.88470  0.94930  0.36020  1.0000 -0.7523805927
O   O14       1.0  0.70750  0.84480  0.50410  1.0000 -0.8032152186
O   O15       1.0  0.88590  0.68290  0.52230  1.0000 -0.7689784298
O   O16       1.0  0.92000  0.42310  0.98900  1.0000 -0.736488087
O   O17       1.0  0.74130  0.47120  0.93730  1.0000 -0.6381055246
O   O18       1.0  0.27640  0.28170  0.12910  1.0000 -0.6949291358
O   O19       1.0  0.23040  0.14050  0.17890  1.0000 -0.4869901667
O   O20       1.0  0.37460  0.93830  0.28110  1.0000 -0.5405114124
O   O21       1.0  0.15440  0.70330  0.26230  1.0000 -0.5462462882
O   O22       1.0  0.12650  0.73570  0.36110  1.0000 -0.5582974384
O   O23       1.0  0.94970  0.61010  0.09990  1.0000 -0.6689345817
O   O24       1.0  0.90550  0.75210  0.15110  1.0000 -0.5168740282
O   O25       1.0  0.31380  0.91730  0.16370  1.0000 -0.5405114124
O   O26       1.0  0.34390  0.81950  0.40120  1.0000 -0.6689345817
O   O27       1.0  0.03190  0.22660  0.08050  1.0000 -0.7821009289
O   O28       1.0  0.11530  0.44930  0.13980  1.0000 -0.7523805927
O   O29       1.0  0.29250  0.34480  0.99590  1.0000 -0.8032152186
O   O30       1.0  0.11410  0.18290  0.97770  1.0000 -0.7689784298
O   O31       1.0  0.92000  0.07690  0.48900  1.0000 -0.736488087
O   O32       1.0  0.74130  0.02880  0.43730  1.0000 -0.6381055246
O   O33       1.0  0.27640  0.21830  0.62910  1.0000 -0.6949291358
O   O34       1.0  0.23040  0.35950  0.67890  1.0000 -0.4869901667
O   O35       1.0  0.37460  0.56170  0.78110  1.0000 -0.5405114124
O   O36       1.0  0.15440  0.79670  0.76230  1.0000 -0.5462462882
O   O37       1.0  0.12650  0.76430  0.86110  1.0000 -0.5582974384
O   O38       1.0  0.94970  0.88990  0.59990  1.0000 -0.6689345817
O   O39       1.0  0.90550  0.74790  0.65110  1.0000 -0.5168740282
O   O40       1.0  0.31380  0.58270  0.66370  1.0000 -0.5405114124
O   O41       1.0  0.34390  0.68050  0.90120  1.0000 -0.6689345817
O   O42       1.0  0.03190  0.27340  0.58050  1.0000 -0.7821009289
O   O43       1.0  0.11530  0.05070  0.63980  1.0000 -0.7523805927
O   O44       1.0  0.29250  0.15520  0.49590  1.0000 -0.8032152186
O   O45       1.0  0.11410  0.31710  0.47770  1.0000 -0.7689784298
O   O46       1.0  0.08000  0.57690  0.01100  1.0000 -0.736488087
O   O47       1.0  0.25870  0.52880  0.06270  1.0000 -0.6381055246
O   O48       1.0  0.72360  0.71830  0.87090  1.0000 -0.6949291358
O   O49       1.0  0.76960  0.85950  0.82110  1.0000 -0.4869901667
O   O50       1.0  0.62540  0.06170  0.71890  1.0000 -0.5405114124
O   O51       1.0  0.84560  0.29670  0.73770  1.0000 -0.5462462882
O   O52       1.0  0.87350  0.26430  0.63890  1.0000 -0.5582974384
O   O53       1.0  0.05030  0.38990  0.90010  1.0000 -0.6689345817
O   O54       1.0  0.09450  0.24790  0.84890  1.0000 -0.5168740282
O   O55       1.0  0.68620  0.08270  0.83630  1.0000 -0.5405114124
O   O56       1.0  0.65610  0.18050  0.59880  1.0000 -0.6689345817
O   O57       1.0  0.96810  0.77340  0.91950  1.0000 -0.7821009289
O   O58       1.0  0.88470  0.55070  0.86020  1.0000 -0.7523805927
O   O59       1.0  0.70750  0.65520  0.00410  1.0000 -0.8032152186
O   O60       1.0  0.88590  0.81710  0.02230  1.0000 -0.7689784298
