# DDEC6 charges by PACMAN v1.1 (https://github.com/mtap-research/PACMAN-charge/)
data_2011[Zn][nan]3[FSR]31
_chemical_formula_sum              "Zn8 H104 C136 N12 O40"
_cell_length_a       13.8606
_cell_length_b       16.9142
_cell_length_c       18.1588
_cell_angle_alpha    112.895
_cell_angle_beta     96.84
_cell_angle_gamma    101.84

_symmetry_space_group_name_H-M    "P 1"
_symmetry_Int_Tables_number       1

loop_
  _symmetry_equiv_pos_as_xyz
  'x, y, z'

loop_
  _atom_site_type_symbol
  _atom_site_label
  _atom_site_symmetry_multiplicity
  _atom_site_fract_x
  _atom_site_fract_y
  _atom_site_fract_z
  _atom_site_occupancy
  _atom_site_charge
Zn  Zn1       1.0  0.83887  0.65338  0.14821  1.0000 0.7332113779
Zn  Zn2       1.0  0.16113  0.34662  0.85179  1.0000 0.7332113779
Zn  Zn3       1.0  0.17854  0.85099  0.84682  1.0000 0.7363931036
Zn  Zn4       1.0  0.82146  0.14901  0.15318  1.0000 0.7363931036
Zn  Zn5       1.0  0.85881  0.07231  0.40150  1.0000 0.8300145364
Zn  Zn6       1.0  0.14119  0.92769  0.59850  1.0000 0.8300145364
Zn  Zn7       1.0  0.85004  0.58633  0.39635  1.0000 0.8166393137
Zn  Zn8       1.0  0.14996  0.41367  0.60365  1.0000 0.8166393137
H   H1        1.0  0.18090  0.61450  0.15510  1.0000 0.1411407733
H   H2        1.0  0.81910  0.38550  0.84490  1.0000 0.1411407733
H   H3        1.0  0.36250  0.67210  0.36780  1.0000 0.1411407733
H   H4        1.0  0.63750  0.32790  0.63220  1.0000 0.1411407733
H   H5        1.0  0.22550  0.66850  0.42850  1.0000 0.121273897
H   H6        1.0  0.77450  0.33150  0.57150  1.0000 0.121273897
H   H7        1.0  0.53680  0.62570  0.20490  1.0000 0.1411407733
H   H8        1.0  0.46320  0.37430  0.79510  1.0000 0.1411407733
H   H9        1.0  0.38910  0.80760  0.30150  1.0000 0.1324229534
H   H10       1.0  0.61090  0.19240  0.69850  1.0000 0.1324229534
H   H11       1.0  0.53840  0.91870  0.34550  1.0000 0.121273897
H   H12       1.0  0.46160  0.08130  0.65450  1.0000 0.121273897
H   H13       1.0  0.48550  0.85570  0.79360  1.0000 0.1411407733
H   H14       1.0  0.51450  0.14430  0.20640  1.0000 0.1411407733
H   H15       1.0  0.62880  0.66520  0.74470  1.0000 0.1324229534
H   H16       1.0  0.37120  0.33480  0.25530  1.0000 0.1324229534
H   H17       1.0  0.47570  0.55840  0.70000  1.0000 0.121273897
H   H18       1.0  0.52430  0.44160  0.30000  1.0000 0.121273897
H   H19       1.0  0.84790  0.87810  0.85280  1.0000 0.1324229534
H   H20       1.0  0.15210  0.12190  0.14720  1.0000 0.1324229534
H   H21       1.0  0.63630  0.80210  0.65000  1.0000 0.1411407733
H   H22       1.0  0.36370  0.19790  0.35000  1.0000 0.1411407733
H   H23       1.0  0.76140  0.82220  0.58020  1.0000 0.1115926988
H   H24       1.0  0.23860  0.17780  0.41980  1.0000 0.1115926988
H   H25       1.0  0.79150  0.75750  0.05170  1.0000 0.1115926988
H   H26       1.0  0.20850  0.24250  0.94830  1.0000 0.1115926988
H   H27       1.0  0.80230  0.76030  0.92850  1.0000 0.1490078962
H   H28       1.0  0.19770  0.23970  0.07150  1.0000 0.1490078962
H   H29       1.0  0.95970  0.58220  0.88840  1.0000 0.1411407733
H   H30       1.0  0.04030  0.41780  0.11160  1.0000 0.1411407733
H   H31       1.0  0.94480  0.58170  0.01260  1.0000 0.1115926988
H   H32       1.0  0.05520  0.41830  0.98740  1.0000 0.1115926988
H   H33       1.0  0.73260  0.58220  0.51620  1.0000 0.1115926988
H   H34       1.0  0.26740  0.41780  0.48380  1.0000 0.1115926988
H   H35       1.0  0.74300  0.58350  0.64410  1.0000 0.1411407733
H   H36       1.0  0.25700  0.41650  0.35590  1.0000 0.1411407733
H   H37       1.0  0.02940  0.60240  0.66210  1.0000 0.1608370146
H   H38       1.0  0.97060  0.39760  0.33790  1.0000 0.1608370146
H   H39       1.0  0.01470  0.60040  0.53450  1.0000 0.1115926988
H   H40       1.0  0.98530  0.39960  0.46550  1.0000 0.1115926988
H   H41       1.0  0.83880  0.69380  0.79470  1.0000 0.1115926988
H   H42       1.0  0.16120  0.30620  0.20530  1.0000 0.1115926988
H   H43       1.0  0.95600  0.71370  0.81990  1.0000 0.121273897
H   H44       1.0  0.04400  0.28630  0.18010  1.0000 0.121273897
H   H45       1.0  0.82750  0.54280  0.74280  1.0000 0.1115926988
H   H46       1.0  0.17250  0.45720  0.25720  1.0000 0.1115926988
H   H47       1.0  0.94590  0.56780  0.76100  1.0000 0.121273897
H   H48       1.0  0.05410  0.43220  0.23900  1.0000 0.121273897
H   H49       1.0  0.78580  0.49860  0.18760  1.0000 0.121273897
H   H50       1.0  0.21420  0.50140  0.81240  1.0000 0.121273897
H   H51       1.0  0.67640  0.35990  0.13890  1.0000 0.1411407733
H   H52       1.0  0.32360  0.64010  0.86110  1.0000 0.1411407733
H   H53       1.0  0.57490  0.38840  0.93950  1.0000 0.1411407733
H   H54       1.0  0.42510  0.61160  0.06050  1.0000 0.1411407733
H   H55       1.0  0.67900  0.52990  0.99820  1.0000 0.1023614865
H   H56       1.0  0.32100  0.47010  0.00180  1.0000 0.1023614865
H   H57       1.0  0.22430  0.00330  0.80350  1.0000 0.121273897
H   H58       1.0  0.77570  0.99670  0.19650  1.0000 0.121273897
H   H59       1.0  0.32930  0.14420  0.85050  1.0000 0.1490078962
H   H60       1.0  0.67070  0.85580  0.14950  1.0000 0.1490078962
H   H61       1.0  0.44420  0.11480  0.04820  1.0000 0.1411407733
H   H62       1.0  0.55580  0.88520  0.95180  1.0000 0.1411407733
H   H63       1.0  0.34610  0.97170  0.98890  1.0000 0.1023614865
H   H64       1.0  0.65390  0.02830  0.01110  1.0000 0.1023614865
H   H65       1.0  0.56030  0.22730  0.93170  1.0000 0.121273897
H   H66       1.0  0.43970  0.77270  0.06830  1.0000 0.121273897
H   H67       1.0  0.58460  0.21800  0.01500  1.0000 0.1115926988
H   H68       1.0  0.41540  0.78200  0.98500  1.0000 0.1115926988
H   H69       1.0  0.42900  0.28490  0.97260  1.0000 0.121273897
H   H70       1.0  0.57100  0.71510  0.02740  1.0000 0.121273897
H   H71       1.0  0.45330  0.27560  0.05580  1.0000 0.121273897
H   H72       1.0  0.54670  0.72440  0.94420  1.0000 0.121273897
H   H73       1.0  0.21590  0.74470  0.94010  1.0000 0.1115926988
H   H74       1.0  0.78410  0.25530  0.05990  1.0000 0.1115926988
H   H75       1.0  0.20310  0.73900  0.06160  1.0000 0.1411407733
H   H76       1.0  0.79690  0.26100  0.93840  1.0000 0.1411407733
H   H77       1.0  0.05370  0.92480  0.10610  1.0000 0.1411407733
H   H78       1.0  0.94630  0.07520  0.89390  1.0000 0.1411407733
H   H79       1.0  0.07740  0.92990  0.98430  1.0000 0.1115926988
H   H80       1.0  0.92260  0.07010  0.01570  1.0000 0.1115926988
H   H81       1.0  0.27850  0.94290  0.49440  1.0000 0.1115926988
H   H82       1.0  0.72150  0.05710  0.50560  1.0000 0.1115926988
H   H83       1.0  0.28110  0.94050  0.36770  1.0000 0.1411407733
H   H84       1.0  0.71890  0.05950  0.63230  1.0000 0.1411407733
H   H85       1.0  0.98170  0.88900  0.32020  1.0000 0.1608370146
H   H86       1.0  0.01830  0.11100  0.67980  1.0000 0.1608370146
H   H87       1.0  0.98450  0.89100  0.44660  1.0000 0.1115926988
H   H88       1.0  0.01550  0.10900  0.55340  1.0000 0.1115926988
H   H89       1.0  0.17040  0.80710  0.19710  1.0000 0.1115926988
H   H90       1.0  0.82960  0.19290  0.80290  1.0000 0.1115926988
H   H91       1.0  0.05390  0.79450  0.17530  1.0000 0.121273897
H   H92       1.0  0.94610  0.20550  0.82470  1.0000 0.121273897
H   H93       1.0  0.19480  0.95990  0.25020  1.0000 0.1115926988
H   H94       1.0  0.80520  0.04010  0.74980  1.0000 0.1115926988
H   H95       1.0  0.07720  0.94330  0.23420  1.0000 0.121273897
H   H96       1.0  0.92280  0.05670  0.76580  1.0000 0.121273897
H   H97       1.0  0.86320  0.22990  0.46480  1.0000 0.3361551559
H   H98       1.0  0.13680  0.77010  0.53520  1.0000 0.3361551559
H   H99       1.0  0.80700  0.21210  0.39240  1.0000 0.3736118174
H   H100      1.0  0.19300  0.78790  0.60760  1.0000 0.3736118174
H   H101      1.0  0.79210  0.70570  0.37830  1.0000 0.4086906409
H   H102      1.0  0.20790  0.29430  0.62170  1.0000 0.4086906409
H   H103      1.0  0.85200  0.74800  0.46120  1.0000 0.3916061914
H   H104      1.0  0.14800  0.25200  0.53880  1.0000 0.3916061914
C   C1        1.0  0.11820  0.64290  0.32970  1.0000 -0.0727654722
C   C2        1.0  0.88180  0.35710  0.67030  1.0000 -0.0727654722
C   C3        1.0  0.10570  0.62680  0.24720  1.0000 0.0016698714
C   C4        1.0  0.89430  0.37320  0.75280  1.0000 0.0016698714
C   C5        1.0  0.18920  0.62610  0.21030  1.0000 -0.2493429871
C   C6        1.0  0.81080  0.37390  0.78970  1.0000 -0.2493429871
C   C7        1.0  0.28280  0.64260  0.25630  1.0000 0.2318225151
C   C8        1.0  0.71720  0.35740  0.74370  1.0000 0.2318225151
C   C9        1.0  0.29790  0.65980  0.33750  1.0000 -0.2079616131
C   C10       1.0  0.70210  0.34020  0.66250  1.0000 -0.2079616131
C   C11       1.0  0.21590  0.65860  0.37370  1.0000 -0.0950847173
C   C12       1.0  0.78410  0.34140  0.62630  1.0000 -0.0950847173
C   C13       1.0  0.03240  0.63530  0.37070  1.0000 0.5513300693
C   C14       1.0  0.96760  0.36470  0.62930  1.0000 0.5513300693
C   C15       1.0  0.00630  0.61380  0.19440  1.0000 0.5513300693
C   C16       1.0  0.99370  0.38620  0.80560  1.0000 0.5513300693
C   C17       1.0  0.62910  0.83950  0.29980  1.0000 -0.064447196
C   C18       1.0  0.37090  0.16050  0.70020  1.0000 -0.0727654722
C   C19       1.0  0.62670  0.75190  0.25860  1.0000 -0.0031656691
C   C20       1.0  0.37330  0.24810  0.74140  1.0000 -0.0031656691
C   C21       1.0  0.53710  0.68490  0.23290  1.0000 -0.2392090361
C   C22       1.0  0.46290  0.31510  0.76710  1.0000 -0.2392090361
C   C23       1.0  0.44880  0.70560  0.24840  1.0000 0.2401233485
C   C24       1.0  0.55120  0.29440  0.75160  1.0000 0.2401233485
C   C25       1.0  0.44880  0.79340  0.29070  1.0000 -0.2190575007
C   C26       1.0  0.55120  0.20660  0.70930  1.0000 -0.2190575007
C   C27       1.0  0.53800  0.85960  0.31650  1.0000 -0.0917059584
C   C28       1.0  0.46200  0.14040  0.68350  1.0000 -0.0917059584
C   C29       1.0  0.72640  0.91240  0.33150  1.0000 0.5423010087
C   C30       1.0  0.27360  0.08760  0.66850  1.0000 0.5423010087
C   C31       1.0  0.71830  0.72230  0.23480  1.0000 0.5680841601
C   C32       1.0  0.28170  0.27770  0.76520  1.0000 0.5680841601
C   C33       1.0  0.38640  0.64250  0.71890  1.0000 -0.0727654722
C   C34       1.0  0.61360  0.35750  0.28110  1.0000 -0.0727654722
C   C35       1.0  0.39060  0.73080  0.74690  1.0000 0.0091848585
C   C36       1.0  0.60940  0.26920  0.25310  1.0000 0.0091848585
C   C37       1.0  0.48350  0.79570  0.77440  1.0000 -0.2392090361
C   C38       1.0  0.51650  0.20430  0.22560  1.0000 -0.2392090361
C   C39       1.0  0.57120  0.77100  0.77300  1.0000 0.2401233485
C   C40       1.0  0.42880  0.22900  0.22700  1.0000 0.2401233485
C   C41       1.0  0.56890  0.68200  0.74530  1.0000 -0.2190575007
C   C42       1.0  0.43110  0.31800  0.25470  1.0000 -0.2190575007
C   C43       1.0  0.47730  0.61830  0.71860  1.0000 -0.0917059584
C   C44       1.0  0.52270  0.38170  0.28140  1.0000 -0.0917059584
C   C45       1.0  0.28870  0.57170  0.68090  1.0000 0.5423010087
C   C46       1.0  0.71130  0.42830  0.31910  1.0000 0.5423010087
C   C47       1.0  0.29870  0.76600  0.75690  1.0000 0.5680841601
C   C48       1.0  0.70130  0.23400  0.24310  1.0000 0.5680841601
C   C49       1.0  0.88250  0.85830  0.67250  1.0000 -0.0727654722
C   C50       1.0  0.11750  0.14170  0.32750  1.0000 -0.0727654722
C   C51       1.0  0.90710  0.87380  0.75480  1.0000 -0.0031656691
C   C52       1.0  0.09290  0.12620  0.24520  1.0000 -0.0031656691
C   C53       1.0  0.83090  0.86570  0.79760  1.0000 -0.2493429871
C   C54       1.0  0.16910  0.13430  0.20240  1.0000 -0.2493429871
C   C55       1.0  0.73070  0.83950  0.75810  1.0000 0.245565424
C   C56       1.0  0.26930  0.16050  0.24190  1.0000 0.245565424
C   C57       1.0  0.70410  0.82140  0.67670  1.0000 -0.2190575007
C   C58       1.0  0.29590  0.17860  0.32330  1.0000 -0.2190575007
C   C59       1.0  0.77950  0.83240  0.63480  1.0000 -0.0917059584
C   C60       1.0  0.22050  0.16760  0.36520  1.0000 -0.0917059584
C   C61       1.0  0.96040  0.87530  0.62660  1.0000 0.5513300693
C   C62       1.0  0.03960  0.12470  0.37340  1.0000 0.5513300693
C   C63       1.0  0.01180  0.89260  0.80180  1.0000 0.5513300693
C   C64       1.0  0.98820  0.10740  0.19820  1.0000 0.5513300693
C   C65       1.0  0.82530  0.72110  0.01820  1.0000 0.0548493287
C   C66       1.0  0.17470  0.27890  0.98180  1.0000 0.0548493287
C   C67       1.0  0.83200  0.72320  0.94440  1.0000 -0.2079616131
C   C68       1.0  0.16800  0.27680  0.05560  1.0000 -0.1995794507
C   C69       1.0  0.88260  0.67090  0.89340  1.0000 0.1608370146
C   C70       1.0  0.11740  0.32910  0.10660  1.0000 0.1608370146
C   C71       1.0  0.92450  0.61830  0.92060  1.0000 -0.1995794507
C   C72       1.0  0.07550  0.38170  0.07940  1.0000 -0.1896611489
C   C73       1.0  0.91530  0.61820  0.99560  1.0000 0.0913597664
C   C74       1.0  0.08470  0.38180  0.00440  1.0000 0.0913597664
C   C75       1.0  0.79470  0.58520  0.54460  1.0000 0.0805438405
C   C76       1.0  0.20530  0.41480  0.45540  1.0000 0.0805438405
C   C77       1.0  0.80060  0.58610  0.62260  1.0000 -0.2079616131
C   C78       1.0  0.19940  0.41390  0.37740  1.0000 -0.2079616131
C   C79       1.0  0.88570  0.59060  0.66540  1.0000 0.1411407733
C   C80       1.0  0.11430  0.40940  0.33460  1.0000 0.1411407733
C   C81       1.0  0.96660  0.59710  0.63300  1.0000 -0.1896611489
C   C82       1.0  0.03340  0.40290  0.36700  1.0000 -0.1896611489
C   C83       1.0  0.95680  0.59580  0.55550  1.0000 0.0805438405
C   C84       1.0  0.04320  0.40420  0.44450  1.0000 0.0805438405
C   C85       1.0  0.89220  0.67170  0.81220  1.0000 -0.2392090361
C   C86       1.0  0.10780  0.32830  0.18780  1.0000 -0.2392090361
C   C87       1.0  0.88770  0.58690  0.74720  1.0000 -0.2190575007
C   C88       1.0  0.11230  0.41310  0.25280  1.0000 -0.2190575007
C   C89       1.0  0.74040  0.47680  0.13770  1.0000 0.1023614865
C   C90       1.0  0.25960  0.52320  0.86230  1.0000 0.1023614865
C   C91       1.0  0.67520  0.39240  0.10780  1.0000 -0.1896611489
C   C92       1.0  0.32480  0.60760  0.89220  1.0000 -0.1896611489
C   C93       1.0  0.61120  0.35660  0.03600  1.0000 0.1490078962
C   C94       1.0  0.38880  0.64340  0.96400  1.0000 0.1490078962
C   C95       1.0  0.61540  0.41050  0.99170  1.0000 -0.2079616131
C   C96       1.0  0.38460  0.58950  0.00830  1.0000 -0.2079616131
C   C97       1.0  0.67930  0.49460  0.02680  1.0000 0.0805438405
C   C98       1.0  0.32070  0.50540  0.97320  1.0000 0.0805438405
C   C99       1.0  0.27280  0.02540  0.85190  1.0000 0.1115926988
C   C100      1.0  0.72720  0.97460  0.14810  1.0000 0.121273897
C   C101      1.0  0.33440  0.11120  0.88080  1.0000 -0.1896611489
C   C102      1.0  0.66560  0.88880  0.11920  1.0000 -0.1896611489
C   C103      1.0  0.40120  0.14690  0.95200  1.0000 0.1608370146
C   C104      1.0  0.59880  0.85310  0.04800  1.0000 0.1608370146
C   C105      1.0  0.40260  0.09210  0.99640  1.0000 -0.1995794507
C   C106      1.0  0.59740  0.90790  0.00360  1.0000 -0.1995794507
C   C107      1.0  0.34260  0.00760  0.96130  1.0000 0.0582860506
C   C108      1.0  0.65740  0.99240  0.03870  1.0000 0.0582860506
C   C109      1.0  0.55660  0.25120  0.98900  1.0000 -0.2392090361
C   C110      1.0  0.44340  0.74880  0.01100  1.0000 -0.2392090361
C   C111      1.0  0.45680  0.25160  0.99850  1.0000 -0.2392090361
C   C112      1.0  0.54320  0.74840  0.00150  1.0000 -0.2392090361
C   C113      1.0  0.18430  0.78270  0.97460  1.0000 0.0689440968
C   C114      1.0  0.81570  0.21730  0.02540  1.0000 0.0689440968
C   C115      1.0  0.17630  0.77850  0.04720  1.0000 -0.2079616131
C   C116      1.0  0.82370  0.22150  0.95280  1.0000 -0.1995794507
C   C117      1.0  0.12820  0.83340  0.09980  1.0000 0.1694795734
C   C118      1.0  0.87180  0.16660  0.90020  1.0000 0.1694795734
C   C119      1.0  0.08900  0.88870  0.07420  1.0000 -0.1896611489
C   C120      1.0  0.91100  0.11130  0.92580  1.0000 -0.1896611489
C   C121      1.0  0.10230  0.89050  0.99990  1.0000 0.0805438405
C   C122      1.0  0.89770  0.10950  0.00010  1.0000 0.0805438405
C   C123      1.0  0.21830  0.93330  0.45940  1.0000 0.0689440968
C   C124      1.0  0.78170  0.06670  0.54060  1.0000 0.0689440968
C   C125      1.0  0.21980  0.93170  0.38340  1.0000 -0.1995794507
C   C126      1.0  0.78020  0.06830  0.61660  1.0000 -0.1995794507
C   C127      1.0  0.13240  0.91730  0.33020  1.0000 0.1608370146
C   C128      1.0  0.86760  0.08270  0.66980  1.0000 0.1608370146
C   C129      1.0  0.04310  0.90110  0.35500  1.0000 -0.1701053583
C   C130      1.0  0.95690  0.09890  0.64500  1.0000 -0.1701053583
C   C131      1.0  0.04540  0.90300  0.43110  1.0000 0.1023614865
C   C132      1.0  0.95460  0.09700  0.56890  1.0000 0.1023614865
C   C133      1.0  0.11970  0.83290  0.18140  1.0000 -0.2392090361
C   C134      1.0  0.88030  0.16710  0.81860  1.0000 -0.2392090361
C   C135      1.0  0.13180  0.91970  0.24700  1.0000 -0.2298112367
C   C136      1.0  0.86820  0.08030  0.75300  1.0000 -0.2298112367
N   N1        1.0  0.86630  0.66780  0.04400  1.0000 -0.2493429871
N   N2        1.0  0.13370  0.33220  0.95600  1.0000 -0.2493429871
N   N3        1.0  0.87140  0.58850  0.50960  1.0000 -0.2392090361
N   N4        1.0  0.12860  0.41150  0.49040  1.0000 -0.2392090361
N   N5        1.0  0.74110  0.52820  0.09840  1.0000 -0.2190575007
N   N6        1.0  0.25890  0.47180  0.90160  1.0000 -0.2190575007
N   N7        1.0  0.27890  0.97350  0.88910  1.0000 -0.2190575007
N   N8        1.0  0.72110  0.02650  0.11090  1.0000 -0.2190575007
N   N9        1.0  0.14920  0.83830  0.95060  1.0000 -0.2392090361
N   N10       1.0  0.85080  0.16170  0.04940  1.0000 -0.2392090361
N   N11       1.0  0.13050  0.92120  0.48390  1.0000 -0.2493429871
N   N12       1.0  0.86950  0.07880  0.51610  1.0000 -0.2493429871
O   O1        1.0  0.94840  0.58010  0.32660  1.0000 -0.5229149564
O   O2        1.0  0.05160  0.41990  0.67340  1.0000 -0.5229149564
O   O3        1.0  0.82130  0.18740  0.42350  1.0000 -0.6448106373
O   O4        1.0  0.17870  0.81260  0.57650  1.0000 -0.6448106373
O   O5        1.0  0.81190  0.70130  0.42240  1.0000 -0.656842103
O   O6        1.0  0.18810  0.29870  0.57760  1.0000 -0.656842103
O   O7        1.0  0.04470  0.67870  0.44490  1.0000 -0.5481592917
O   O8        1.0  0.95530  0.32130  0.55510  1.0000 -0.5481592917
O   O9        1.0  0.96530  0.67650  0.22050  1.0000 -0.5275938475
O   O10       1.0  0.03470  0.32350  0.77950  1.0000 -0.5275938475
O   O11       1.0  0.97390  0.54740  0.12900  1.0000 -0.5574780309
O   O12       1.0  0.02610  0.45260  0.87100  1.0000 -0.5574780309
O   O13       1.0  0.72130  0.99160  0.34380  1.0000 -0.5481592917
O   O14       1.0  0.27870  0.00840  0.65620  1.0000 -0.5481592917
O   O15       1.0  0.80680  0.89590  0.34470  1.0000 -0.5275938475
O   O16       1.0  0.19320  0.10410  0.65530  1.0000 -0.5275938475
O   O17       1.0  0.75800  0.68220  0.26890  1.0000 -0.5275938475
O   O18       1.0  0.24200  0.31780  0.73110  1.0000 -0.5275938475
O   O19       1.0  0.74470  0.73090  0.17340  1.0000 -0.5409457191
O   O20       1.0  0.25530  0.26910  0.82660  1.0000 -0.5409457191
O   O21       1.0  0.36180  0.63600  0.21580  1.0000 -0.2298112367
O   O22       1.0  0.63820  0.36400  0.78420  1.0000 -0.2298112367
O   O23       1.0  0.28920  0.49100  0.65900  1.0000 -0.5409457191
O   O24       1.0  0.71080  0.50900  0.34100  1.0000 -0.5409457191
O   O25       1.0  0.20910  0.59180  0.66980  1.0000 -0.5229149564
O   O26       1.0  0.79090  0.40820  0.33020  1.0000 -0.5229149564
O   O27       1.0  0.26360  0.76870  0.81810  1.0000 -0.5481592917
O   O28       1.0  0.73640  0.23130  0.18190  1.0000 -0.5481592917
O   O29       1.0  0.27200  0.80140  0.71290  1.0000 -0.5229149564
O   O30       1.0  0.72800  0.19860  0.28710  1.0000 -0.5229149564
O   O31       1.0  0.04600  0.92880  0.66940  1.0000 -0.5275938475
O   O32       1.0  0.95400  0.07120  0.33060  1.0000 -0.5275938475
O   O33       1.0  0.94140  0.84000  0.55180  1.0000 -0.5409457191
O   O34       1.0  0.05860  0.16000  0.44820  1.0000 -0.5409457191
O   O35       1.0  0.05510  0.83080  0.77350  1.0000 -0.5275938475
O   O36       1.0  0.94490  0.16920  0.22650  1.0000 -0.5275938475
O   O37       1.0  0.04630  0.96040  0.86560  1.0000 -0.5574780309
O   O38       1.0  0.95370  0.03960  0.13440  1.0000 -0.5574780309
O   O39       1.0  0.66190  0.83720  0.80670  1.0000 -0.2298112367
O   O40       1.0  0.33810  0.16280  0.19330  1.0000 -0.2298112367
