# DDEC6 charges by PACMAN v1.1 (https://github.com/mtap-research/PACMAN-charge/)
data_2011[Zn][dia]3[FSR]8
_chemical_formula_sum              "Zn2 H40 C56 N4 O8"
_cell_length_a       14.1302
_cell_length_b       14.1302
_cell_length_c       8.409
_cell_angle_alpha    85.7574
_cell_angle_beta     94.2426
_cell_angle_gamma    57.0151

_symmetry_space_group_name_H-M    "P 1"
_symmetry_Int_Tables_number       1

loop_
  _symmetry_equiv_pos_as_xyz
  'x, y, z'

loop_
  _atom_site_type_symbol
  _atom_site_label
  _atom_site_symmetry_multiplicity
  _atom_site_fract_x
  _atom_site_fract_y
  _atom_site_fract_z
  _atom_site_occupancy
  _atom_site_charge
Zn  Zn1       1.0  0.19984  0.61776  0.47811  1.0000 0.734727466
Zn  Zn2       1.0  0.38224  0.80016  0.97811  1.0000 0.734727466
H   H1        1.0  0.27560  0.46580  0.98360  1.0000 0.1012215306
H   H2        1.0  0.53420  0.72440  0.48360  1.0000 0.1012215306
H   H3        1.0  0.31600  0.35040  0.22230  1.0000 0.1109293577
H   H4        1.0  0.64960  0.68400  0.72230  1.0000 0.1109293577
H   H5        1.0  0.25770  0.14530  0.98290  1.0000 0.1182588721
H   H6        1.0  0.85470  0.74230  0.48290  1.0000 0.1182588721
H   H7        1.0  0.21970  0.25930  0.74200  1.0000 0.1182588721
H   H8        1.0  0.74070  0.78030  0.24200  1.0000 0.1182588721
H   H9        1.0  0.33790  0.19010  0.37730  1.0000 0.1109293577
H   H10       1.0  0.80990  0.66210  0.87730  1.0000 0.1109293577
H   H11       1.0  0.30140  0.04700  0.21560  1.0000 0.1312670151
H   H12       1.0  0.95300  0.69860  0.71560  1.0000 0.1312670151
H   H13       1.0  0.28500  0.91060  0.38400  1.0000 0.1450060248
H   H14       1.0  0.08940  0.71500  0.88400  1.0000 0.1450060248
H   H15       1.0  0.31630  0.80630  0.63070  1.0000 0.1109293577
H   H16       1.0  0.19370  0.68370  0.13070  1.0000 0.1109293577
H   H17       1.0  0.43440  0.96800  0.84200  1.0000 0.1182588721
H   H18       1.0  0.03200  0.56560  0.34200  1.0000 0.1182588721
H   H19       1.0  0.40570  0.07590  0.60330  1.0000 0.1361998855
H   H20       1.0  0.92410  0.59430  0.10330  1.0000 0.1361998855
H   H21       1.0  0.11250  0.96490  0.61810  1.0000 0.1109293577
H   H22       1.0  0.03510  0.88750  0.11810  1.0000 0.1109293577
H   H23       1.0  0.99500  0.14480  0.70070  1.0000 0.1182588721
H   H24       1.0  0.85520  0.00500  0.20070  1.0000 0.1182588721
H   H25       1.0  0.73380  0.10340  0.67210  1.0000 0.1109293577
H   H26       1.0  0.89660  0.26620  0.17210  1.0000 0.1109293577
H   H27       1.0  0.84720  0.92860  0.58770  1.0000 0.1182588721
H   H28       1.0  0.07140  0.15280  0.08770  1.0000 0.1182588721
H   H29       1.0  0.82070  0.28930  0.78520  1.0000 0.1109293577
H   H30       1.0  0.71070  0.17930  0.28520  1.0000 0.1109293577
H   H31       1.0  0.63860  0.26720  0.74780  1.0000 0.1182588721
H   H32       1.0  0.73280  0.36140  0.24780  1.0000 0.1182588721
H   H33       1.0  0.73460  0.43560  0.90430  1.0000 0.1312670151
H   H34       1.0  0.56440  0.26540  0.40430  1.0000 0.1312670151
H   H35       1.0  0.61720  0.61640  0.98330  1.0000 0.1012215306
H   H36       1.0  0.38360  0.38280  0.48330  1.0000 0.1012215306
H   H37       1.0  0.34250  0.61670  0.85110  1.0000 0.1182588721
H   H38       1.0  0.38330  0.65750  0.35110  1.0000 0.1182588721
H   H39       1.0  0.45340  0.43540  0.78320  1.0000 0.1361998855
H   H40       1.0  0.56460  0.54660  0.28320  1.0000 0.1361998855
C   C1        1.0  0.21880  0.44680  0.68170  1.0000 0.5387865245
C   C2        1.0  0.55320  0.78120  0.18170  1.0000 0.5387865245
C   C3        1.0  0.24330  0.37450  0.83810  1.0000 -0.030005597
C   C4        1.0  0.62550  0.75670  0.33810  1.0000 -0.030005597
C   C5        1.0  0.27220  0.40040  0.98290  1.0000 -0.109377348
C   C6        1.0  0.59960  0.72780  0.48290  1.0000 -0.109377348
C   C7        1.0  0.29590  0.33170  0.12480  1.0000 -0.1551174284
C   C8        1.0  0.66830  0.70410  0.62480  1.0000 -0.1551174284
C   C9        1.0  0.29130  0.23630  0.12980  1.0000 0.1312670151
C   C10       1.0  0.76370  0.70870  0.62980  1.0000 0.1312670151
C   C11       1.0  0.26180  0.21020  0.98320  1.0000 -0.1499453056
C   C12       1.0  0.78980  0.73820  0.48320  1.0000 -0.1499453056
C   C13       1.0  0.23880  0.27820  0.84000  1.0000 -0.109377348
C   C14       1.0  0.72180  0.76120  0.34000  1.0000 -0.109377348
C   C15       1.0  0.31830  0.16610  0.28500  1.0000 -0.1276741871
C   C16       1.0  0.83390  0.68170  0.78500  1.0000 -0.1276741871
C   C17       1.0  0.31790  0.07270  0.30830  1.0000 -0.1411321223
C   C18       1.0  0.92730  0.68210  0.80830  1.0000 -0.1411321223
C   C19       1.0  0.34100  0.00520  0.46450  1.0000 0.1618078141
C   C20       1.0  0.99480  0.65900  0.96450  1.0000 0.1618078141
C   C21       1.0  0.31580  0.92400  0.47720  1.0000 -0.1810774714
C   C22       1.0  0.07600  0.68420  0.97720  1.0000 -0.1810774714
C   C23       1.0  0.33500  0.86160  0.62500  1.0000 0.0798771321
C   C24       1.0  0.13840  0.66500  0.12500  1.0000 0.0798771321
C   C25       1.0  0.40350  0.95630  0.74710  1.0000 0.1012215306
C   C26       1.0  0.04370  0.59650  0.24710  1.0000 0.1012215306
C   C27       1.0  0.38660  0.02080  0.60570  1.0000 -0.194043851
C   C28       1.0  0.97920  0.61340  0.10570  1.0000 -0.194043851
C   C29       1.0  0.06410  0.81330  0.53860  1.0000 0.5387865245
C   C30       1.0  0.18670  0.93590  0.03860  1.0000 0.5387865245
C   C31       1.0  0.99140  0.92960  0.59240  1.0000 -0.0182482605
C   C32       1.0  0.07040  0.00860  0.09240  1.0000 -0.0182482605
C   C33       1.0  0.03520  0.99320  0.62820  1.0000 -0.0982924462
C   C34       1.0  0.00680  0.96480  0.12820  1.0000 -0.0982924462
C   C35       1.0  0.96520  0.10020  0.67970  1.0000 -0.1499453056
C   C36       1.0  0.89980  0.03480  0.17970  1.0000 -0.1551174284
C   C37       1.0  0.85400  0.14080  0.70010  1.0000 0.1182588721
C   C38       1.0  0.85920  0.14600  0.20010  1.0000 0.1182588721
C   C39       1.0  0.81100  0.07540  0.66210  1.0000 -0.1499453056
C   C40       1.0  0.92460  0.18900  0.16210  1.0000 -0.1499453056
C   C41       1.0  0.87790  0.97210  0.61100  1.0000 -0.109377348
C   C42       1.0  0.02790  0.12210  0.11100  1.0000 -0.109377348
C   C43       1.0  0.78380  0.25200  0.75740  1.0000 -0.1232624114
C   C44       1.0  0.74800  0.21620  0.25740  1.0000 -0.1232624114
C   C45       1.0  0.67540  0.30480  0.77380  1.0000 -0.1499453056
C   C46       1.0  0.69520  0.32460  0.27380  1.0000 -0.1499453056
C   C47       1.0  0.60570  0.41690  0.82880  1.0000 0.1618078141
C   C48       1.0  0.58310  0.39430  0.32880  1.0000 0.1618078141
C   C49       1.0  0.65440  0.47140  0.89240  1.0000 -0.2065184177
C   C50       1.0  0.52860  0.34560  0.39240  1.0000 -0.2065184177
C   C51       1.0  0.58330  0.58010  0.93890  1.0000 0.0718702316
C   C52       1.0  0.41990  0.41670  0.43890  1.0000 0.0718702316
C   C53       1.0  0.42290  0.57990  0.86350  1.0000 0.0798771321
C   C54       1.0  0.42010  0.57710  0.36350  1.0000 0.0798771321
C   C55       1.0  0.48900  0.47220  0.81990  1.0000 -0.1953669549
C   C56       1.0  0.52780  0.51100  0.31990  1.0000 -0.1953669549
N   N1        1.0  0.37870  0.87670  0.75930  1.0000 -0.238094157
N   N2        1.0  0.12330  0.62130  0.25930  1.0000 -0.238094157
N   N3        1.0  0.46870  0.63450  0.92280  1.0000 -0.2510460228
N   N4        1.0  0.36550  0.53130  0.42280  1.0000 -0.2510460228
O   O1        1.0  0.23192  0.52992  0.68920  1.0000 -0.5580416084
O   O2        1.0  0.47008  0.76808  0.18920  1.0000 -0.5580416084
O   O3        1.0  0.19276  0.42336  0.55400  1.0000 -0.5580416084
O   O4        1.0  0.57664  0.80724  0.05400  1.0000 -0.5580416084
O   O5        1.0  0.16821  0.77361  0.52500  1.0000 -0.5471874238
O   O6        1.0  0.22639  0.83179  0.02500  1.0000 -0.5471874238
O   O7        1.0  0.02010  0.75850  0.51540  1.0000 -0.5404098988
O   O8        1.0  0.24150  0.97990  0.01540  1.0000 -0.5404098988
