# DDEC6 charges by PACMAN v1.1 (https://github.com/mtap-research/PACMAN-charge/)
data_2011[U][nan]3[FSR]2
_chemical_formula_sum              "U8 H8 C40 O56"
_cell_length_a       9.1844
_cell_length_b       21.615
_cell_length_c       11.6499
_cell_angle_alpha    90
_cell_angle_beta     113.959
_cell_angle_gamma    90

_symmetry_space_group_name_H-M    "P 1"
_symmetry_Int_Tables_number       1

loop_
  _symmetry_equiv_pos_as_xyz
  'x, y, z'

loop_
  _atom_site_type_symbol
  _atom_site_label
  _atom_site_symmetry_multiplicity
  _atom_site_fract_x
  _atom_site_fract_y
  _atom_site_fract_z
  _atom_site_occupancy
  _atom_site_charge
U   U1        1.0  0.01336  0.24627  0.72081  1.0000 2.3638906119
U   U2        1.0  0.98664  0.74627  0.77919  1.0000 2.3638906119
U   U3        1.0  0.98664  0.75373  0.27919  1.0000 2.3638906119
U   U4        1.0  0.01336  0.25373  0.22081  1.0000 2.3638906119
U   U5        1.0  0.21353  0.99950  0.63045  1.0000 2.4340998767
U   U6        1.0  0.78647  0.49950  0.86955  1.0000 2.4239281453
U   U7        1.0  0.78647  0.00050  0.36955  1.0000 2.4239281453
U   U8        1.0  0.21353  0.50050  0.13045  1.0000 2.4239281453
H   H1        1.0  0.50400  0.32480  0.57510  1.0000 0.1364553267
H   H2        1.0  0.49600  0.82480  0.92490  1.0000 0.1364553267
H   H3        1.0  0.49600  0.67520  0.42490  1.0000 0.1364553267
H   H4        1.0  0.50400  0.17520  0.07510  1.0000 0.1364553267
H   H5        1.0  0.53000  0.17620  0.86750  1.0000 0.1364553267
H   H6        1.0  0.47000  0.67620  0.63250  1.0000 0.1364553267
H   H7        1.0  0.47000  0.82380  0.13250  1.0000 0.1364553267
H   H8        1.0  0.53000  0.32380  0.36750  1.0000 0.1364553267
C   C1        1.0  0.26040  0.25020  0.47320  1.0000 0.5701999305
C   C2        1.0  0.73960  0.75020  0.02680  1.0000 0.5701999305
C   C3        1.0  0.73960  0.74980  0.52680  1.0000 0.5701999305
C   C4        1.0  0.26040  0.24980  0.97320  1.0000 0.5701999305
C   C5        1.0  0.77060  0.25300  0.97030  1.0000 0.5609046606
C   C6        1.0  0.22940  0.75300  0.52970  1.0000 0.5609046606
C   C7        1.0  0.22940  0.74700  0.02970  1.0000 0.5609046606
C   C8        1.0  0.77060  0.24700  0.47030  1.0000 0.5609046606
C   C9        1.0  0.75560  0.34690  0.77610  1.0000 0.6782992272
C   C10       1.0  0.24440  0.84690  0.72390  1.0000 0.6782992272
C   C11       1.0  0.24440  0.65310  0.22390  1.0000 0.6782992272
C   C12       1.0  0.75560  0.15310  0.27610  1.0000 0.6782992272
C   C13       1.0  0.28000  0.15250  0.66470  1.0000 0.658606091
C   C14       1.0  0.72000  0.65250  0.83530  1.0000 0.658606091
C   C15       1.0  0.72000  0.84750  0.33530  1.0000 0.658606091
C   C16       1.0  0.28000  0.34750  0.16470  1.0000 0.658606091
C   C17       1.0  0.39150  0.24970  0.60160  1.0000 -0.0235014347
C   C18       1.0  0.60850  0.74970  0.89840  1.0000 -0.0235014347
C   C19       1.0  0.60850  0.75030  0.39840  1.0000 -0.0235014347
C   C20       1.0  0.39150  0.25030  0.10160  1.0000 -0.0235014347
C   C21       1.0  0.63990  0.25120  0.83870  1.0000 -0.0099011856
C   C22       1.0  0.36010  0.75120  0.66130  1.0000 -0.0099011856
C   C23       1.0  0.36010  0.74880  0.16130  1.0000 -0.0099011856
C   C24       1.0  0.63990  0.24880  0.33870  1.0000 -0.0099011856
C   C25       1.0  0.39970  0.20390  0.69000  1.0000 -0.0235014347
C   C26       1.0  0.60030  0.70390  0.81000  1.0000 -0.0235014347
C   C27       1.0  0.60030  0.79610  0.31000  1.0000 -0.0235014347
C   C28       1.0  0.39970  0.29610  0.19000  1.0000 -0.0235014347
C   C29       1.0  0.63350  0.29610  0.75020  1.0000 -0.0358142067
C   C30       1.0  0.36650  0.79610  0.74980  1.0000 -0.0358142067
C   C31       1.0  0.36650  0.70390  0.24980  1.0000 -0.0358142067
C   C32       1.0  0.63350  0.20390  0.25020  1.0000 -0.0358142067
C   C33       1.0  0.50930  0.29480  0.63380  1.0000 -0.0984135956
C   C34       1.0  0.49070  0.79480  0.86620  1.0000 -0.0984135956
C   C35       1.0  0.49070  0.70520  0.36620  1.0000 -0.0984135956
C   C36       1.0  0.50930  0.20520  0.13380  1.0000 -0.0984135956
C   C37       1.0  0.52420  0.20590  0.80800  1.0000 -0.0984135956
C   C38       1.0  0.47580  0.70590  0.69200  1.0000 -0.0984135956
C   C39       1.0  0.47580  0.79410  0.19200  1.0000 -0.0984135956
C   C40       1.0  0.52420  0.29410  0.30800  1.0000 -0.0984135956
O   O1        1.0  0.48980  0.00080  0.79980  1.0000 -0.2082920285
O   O2        1.0  0.51020  0.50080  0.70020  1.0000 -0.1981514605
O   O3        1.0  0.51020  0.99920  0.20020  1.0000 -0.2224149244
O   O4        1.0  0.48980  0.49920  0.29980  1.0000 -0.2224149244
O   O5        1.0  0.88780  0.33600  0.77150  1.0000 -0.4982971015
O   O6        1.0  0.11220  0.83600  0.72850  1.0000 -0.4982971015
O   O7        1.0  0.11220  0.66400  0.22850  1.0000 -0.4891365113
O   O8        1.0  0.88780  0.16400  0.27150  1.0000 -0.4982971015
O   O9        1.0  0.14700  0.16110  0.66610  1.0000 -0.4891365113
O   O10       1.0  0.85300  0.66110  0.83390  1.0000 -0.4891365113
O   O11       1.0  0.85300  0.83890  0.33390  1.0000 -0.4891365113
O   O12       1.0  0.14700  0.33890  0.16610  1.0000 -0.4891365113
O   O13       1.0  0.89760  0.19700  0.77060  1.0000 -0.5999899866
O   O14       1.0  0.10240  0.69700  0.72940  1.0000 -0.5999899866
O   O15       1.0  0.10240  0.80300  0.22940  1.0000 -0.5999899866
O   O16       1.0  0.89760  0.30300  0.27060  1.0000 -0.5999899866
O   O17       1.0  0.12890  0.29640  0.67170  1.0000 -0.6104169252
O   O18       1.0  0.87110  0.79640  0.82830  1.0000 -0.6104169252
O   O19       1.0  0.87110  0.70360  0.32830  1.0000 -0.6104169252
O   O20       1.0  0.12890  0.20360  0.17170  1.0000 -0.6104169252
O   O21       1.0  0.78650  0.20700  0.03990  1.0000 -0.5101958277
O   O22       1.0  0.21350  0.70700  0.46010  1.0000 -0.5101958277
O   O23       1.0  0.21350  0.79300  0.96010  1.0000 -0.5101958277
O   O24       1.0  0.78650  0.29300  0.53990  1.0000 -0.4982971015
O   O25       1.0  0.32980  0.09960  0.64860  1.0000 -0.52314069
O   O26       1.0  0.67020  0.59960  0.85140  1.0000 -0.52314069
O   O27       1.0  0.67020  0.90040  0.35140  1.0000 -0.52314069
O   O28       1.0  0.32980  0.40040  0.14860  1.0000 -0.52314069
O   O29       1.0  0.71060  0.39960  0.79190  1.0000 -0.5337017936
O   O30       1.0  0.28940  0.89960  0.70810  1.0000 -0.5370535018
O   O31       1.0  0.28940  0.60040  0.20810  1.0000 -0.5337017936
O   O32       1.0  0.71060  0.10040  0.29190  1.0000 -0.5337017936
O   O33       1.0  0.16740  0.20570  0.43150  1.0000 -0.4574901635
O   O34       1.0  0.83260  0.70570  0.06850  1.0000 -0.4574901635
O   O35       1.0  0.83260  0.79430  0.56850  1.0000 -0.4574901635
O   O36       1.0  0.16740  0.29430  0.93150  1.0000 -0.4574901635
O   O37       1.0  0.28910  0.98380  0.51620  1.0000 -0.5101958277
O   O38       1.0  0.71090  0.48380  0.98380  1.0000 -0.5101958277
O   O39       1.0  0.71090  0.01620  0.48380  1.0000 -0.5101958277
O   O40       1.0  0.28910  0.51620  0.01620  1.0000 -0.5101958277
O   O41       1.0  0.24210  0.29810  0.40340  1.0000 -0.5370535018
O   O42       1.0  0.75790  0.79810  0.09660  1.0000 -0.5337017936
O   O43       1.0  0.75790  0.70190  0.59660  1.0000 -0.5337017936
O   O44       1.0  0.24210  0.20190  0.90340  1.0000 -0.5337017936
O   O45       1.0  0.14090  0.01530  0.74680  1.0000 -0.5630997183
O   O46       1.0  0.85910  0.51530  0.75320  1.0000 -0.5667798283
O   O47       1.0  0.85910  0.98470  0.25320  1.0000 -0.5667798283
O   O48       1.0  0.14090  0.48470  0.24680  1.0000 -0.5630997183
O   O49       1.0  0.85700  0.29940  0.00790  1.0000 -0.4574901635
O   O50       1.0  0.14300  0.79940  0.49210  1.0000 -0.4574901635
O   O51       1.0  0.14300  0.70060  0.99210  1.0000 -0.4574901635
O   O52       1.0  0.85700  0.20060  0.50790  1.0000 -0.4574901635
O   O53       1.0  0.98620  0.94050  0.51880  1.0000 -0.7414721908
O   O54       1.0  0.01380  0.44050  0.98120  1.0000 -0.7461495759
O   O55       1.0  0.01380  0.05950  0.48120  1.0000 -0.7461495759
O   O56       1.0  0.98620  0.55950  0.01880  1.0000 -0.7414721908
