# DDEC6 charges by PACMAN v1.1 (https://github.com/mtap-research/PACMAN-charge/)
data_2011[Zn][nan]3[FSR]25
_chemical_formula_sum              "Zn4 H96 C96 S4 N16 O28"
_cell_length_a       9.8561
_cell_length_b       11.9538
_cell_length_c       23.9976
_cell_angle_alpha    90
_cell_angle_beta     108.625
_cell_angle_gamma    90

_symmetry_space_group_name_H-M    "P 1"
_symmetry_Int_Tables_number       1

loop_
  _symmetry_equiv_pos_as_xyz
  'x, y, z'

loop_
  _atom_site_type_symbol
  _atom_site_label
  _atom_site_symmetry_multiplicity
  _atom_site_fract_x
  _atom_site_fract_y
  _atom_site_fract_z
  _atom_site_occupancy
  _atom_site_charge
Zn  Zn1       1.0  0.27131  0.78010  0.53666  1.0000 0.8128937865
Zn  Zn2       1.0  0.72869  0.28010  0.96335  1.0000 0.8128937865
Zn  Zn3       1.0  0.72869  0.21990  0.46335  1.0000 0.8128937865
Zn  Zn4       1.0  0.27130  0.71990  0.03666  1.0000 0.8128937865
H   H1        1.0  0.16339  0.45200  0.75740  1.0000 0.2536942149
H   H2        1.0  0.83660  0.95200  0.74260  1.0000 0.2536942149
H   H3        1.0  0.83660  0.54800  0.24261  1.0000 0.2536942149
H   H4        1.0  0.16339  0.04800  0.25739  1.0000 0.2536942149
H   H5        1.0  0.29109  0.01130  0.71449  1.0000 0.1385601638
H   H6        1.0  0.70891  0.51130  0.78551  1.0000 0.1385601638
H   H7        1.0  0.70891  0.98870  0.28551  1.0000 0.1385601638
H   H8        1.0  0.29110  0.48870  0.21450  1.0000 0.1385601638
H   H9        1.0  0.24479  0.85680  0.65350  1.0000 0.1100334524
H   H10       1.0  0.75521  0.35680  0.84650  1.0000 0.1100334524
H   H11       1.0  0.75520  0.14320  0.34651  1.0000 0.1100334524
H   H12       1.0  0.24479  0.64320  0.15350  1.0000 0.1100334524
H   H13       1.0  0.41550  0.00300  0.54470  1.0000 0.1100334524
H   H14       1.0  0.58451  0.50300  0.95531  1.0000 0.1100334524
H   H15       1.0  0.58451  0.99700  0.45531  1.0000 0.1100334524
H   H16       1.0  0.41550  0.49700  0.04470  1.0000 0.1100334524
H   H17       1.0  0.46570  0.16200  0.60290  1.0000 0.1385601638
H   H18       1.0  0.53431  0.66200  0.89711  1.0000 0.1385601638
H   H19       1.0  0.53431  0.83800  0.39710  1.0000 0.1385601638
H   H20       1.0  0.46570  0.33800  0.10290  1.0000 0.1385601638
H   H21       1.0  0.43080  0.27160  0.68090  1.0000 0.1202600683
H   H22       1.0  0.56920  0.77160  0.81911  1.0000 0.1202600683
H   H23       1.0  0.56920  0.72840  0.31911  1.0000 0.1202600683
H   H24       1.0  0.43079  0.22840  0.18090  1.0000 0.1202600683
H   H25       1.0  0.51220  0.19350  0.73540  1.0000 0.1293690268
H   H26       1.0  0.48781  0.69350  0.76461  1.0000 0.1293690268
H   H27       1.0  0.48781  0.80650  0.26461  1.0000 0.1293690268
H   H28       1.0  0.51220  0.30650  0.23540  1.0000 0.1293690268
H   H29       1.0  0.45839  0.27200  0.81039  1.0000 0.1202600683
H   H30       1.0  0.54161  0.77200  0.68961  1.0000 0.1202600683
H   H31       1.0  0.54161  0.72800  0.18961  1.0000 0.1202600683
H   H32       1.0  0.45839  0.22800  0.31039  1.0000 0.1202600683
H   H33       1.0  0.40439  0.37810  0.76840  1.0000 0.1100334524
H   H34       1.0  0.59560  0.87810  0.73160  1.0000 0.1100334524
H   H35       1.0  0.59560  0.62190  0.23161  1.0000 0.1100334524
H   H36       1.0  0.40440  0.12190  0.26840  1.0000 0.1100334524
H   H37       1.0  0.23499  0.26420  0.82749  1.0000 0.1293690268
H   H38       1.0  0.76501  0.76420  0.67251  1.0000 0.1293690268
H   H39       1.0  0.76501  0.73580  0.17250  1.0000 0.1293690268
H   H40       1.0  0.23500  0.23580  0.32750  1.0000 0.1293690268
H   H41       1.0  0.31100  0.38290  0.84760  1.0000 0.1202600683
H   H42       1.0  0.68900  0.88290  0.65241  1.0000 0.1202600683
H   H43       1.0  0.68900  0.61710  0.15241  1.0000 0.1202600683
H   H44       1.0  0.31100  0.11710  0.34759  1.0000 0.1202600683
H   H45       1.0  0.21910  0.35530  0.67460  1.0000 0.1100334524
H   H46       1.0  0.78090  0.85530  0.82541  1.0000 0.1100334524
H   H47       1.0  0.78090  0.64470  0.32540  1.0000 0.1100334524
H   H48       1.0  0.21910  0.14470  0.17460  1.0000 0.1100334524
H   H49       1.0  0.14510  0.23550  0.65670  1.0000 0.1100334524
H   H50       1.0  0.85491  0.73550  0.84331  1.0000 0.1100334524
H   H51       1.0  0.85491  0.76450  0.34331  1.0000 0.1100334524
H   H52       1.0  0.14510  0.26450  0.15670  1.0000 0.1100334524
H   H53       1.0  0.03869  0.24820  0.73159  1.0000 0.1100334524
H   H54       1.0  0.96130  0.74820  0.76841  1.0000 0.1100334524
H   H55       1.0  0.96130  0.75180  0.26841  1.0000 0.1100334524
H   H56       1.0  0.03870  0.25180  0.23160  1.0000 0.1100334524
H   H57       1.0  0.99459  0.35580  0.68980  1.0000 0.1293690268
H   H58       1.0  0.00541  0.85580  0.81020  1.0000 0.1293690268
H   H59       1.0  0.00541  0.64420  0.31021  1.0000 0.1293690268
H   H60       1.0  0.99459  0.14420  0.18980  1.0000 0.1293690268
H   H61       1.0  0.95479  0.47210  0.76829  1.0000 0.1293690268
H   H62       1.0  0.04520  0.97210  0.73171  1.0000 0.1293690268
H   H63       1.0  0.04521  0.52790  0.23171  1.0000 0.1293690268
H   H64       1.0  0.95479  0.02790  0.26830  1.0000 0.1293690268
H   H65       1.0  0.98149  0.35980  0.80650  1.0000 0.1293690268
H   H66       1.0  0.01851  0.85980  0.69351  1.0000 0.1293690268
H   H67       1.0  0.01851  0.64020  0.19351  1.0000 0.1293690268
H   H68       1.0  0.98149  0.14020  0.30650  1.0000 0.1293690268
H   H69       1.0  0.01940  0.39090  0.90510  1.0000 0.1385601638
H   H70       1.0  0.98060  0.89090  0.59491  1.0000 0.1385601638
H   H71       1.0  0.98060  0.60910  0.09491  1.0000 0.1385601638
H   H72       1.0  0.01940  0.10910  0.40510  1.0000 0.1385601638
H   H73       1.0  0.11210  0.49520  0.99050  1.0000 0.0978137302
H   H74       1.0  0.88790  0.99520  0.50950  1.0000 0.0978137302
H   H75       1.0  0.88790  0.50480  0.00950  1.0000 0.0978137302
H   H76       1.0  0.11210  0.00480  0.49050  1.0000 0.0978137302
H   H77       1.0  0.17700  0.62340  0.81959  1.0000 0.1293690268
H   H78       1.0  0.82300  0.12340  0.68041  1.0000 0.1293690268
H   H79       1.0  0.82300  0.37660  0.18041  1.0000 0.1293690268
H   H80       1.0  0.17700  0.87660  0.31960  1.0000 0.1293690268
H   H81       1.0  0.85149  0.51660  0.41969  1.0000 0.1293690268
H   H82       1.0  0.14850  0.01660  0.08031  1.0000 0.1293690268
H   H83       1.0  0.14850  0.48340  0.58030  1.0000 0.1293690268
H   H84       1.0  0.85150  0.98340  0.91970  1.0000 0.1293690268
H   H85       1.0  0.81329  0.76510  0.52890  1.0000 0.1100334524
H   H86       1.0  0.18671  0.26510  0.97111  1.0000 0.1100334524
H   H87       1.0  0.18671  0.23490  0.47111  1.0000 0.1100334524
H   H88       1.0  0.81329  0.73490  0.02890  1.0000 0.1100334524
H   H89       1.0  0.47170  0.57020  0.44690  1.0000 0.1385601638
H   H90       1.0  0.52830  0.07020  0.05311  1.0000 0.1385601638
H   H91       1.0  0.52830  0.42980  0.55310  1.0000 0.1385601638
H   H92       1.0  0.47170  0.92980  0.94690  1.0000 0.1385601638
H   H93       1.0  0.26160  0.72150  0.90680  1.0000 0.1202600683
H   H94       1.0  0.73841  0.22150  0.59321  1.0000 0.1202600683
H   H95       1.0  0.73840  0.27850  0.09320  1.0000 0.1202600683
H   H96       1.0  0.26160  0.77850  0.40680  1.0000 0.1202600683
C   C1        1.0  0.31700  0.01210  0.67959  1.0000 -0.2008906444
C   C2        1.0  0.68300  0.51210  0.82041  1.0000 -0.2008906444
C   C3        1.0  0.68300  0.98790  0.32040  1.0000 -0.2008906444
C   C4        1.0  0.31700  0.48790  0.17960  1.0000 -0.2008906444
C   C5        1.0  0.28958  0.92000  0.64289  1.0000 0.0762582655
C   C6        1.0  0.71041  0.42000  0.85711  1.0000 0.0762582655
C   C7        1.0  0.71041  0.08000  0.35712  1.0000 0.0762582655
C   C8        1.0  0.28958  0.58000  0.14289  1.0000 0.0762582655
C   C9        1.0  0.38890  0.00500  0.57940  1.0000 0.0889680433
C   C10       1.0  0.61110  0.50500  0.92060  1.0000 0.0889680433
C   C11       1.0  0.61110  0.99500  0.42060  1.0000 0.0889680433
C   C12       1.0  0.38891  0.49500  0.07941  1.0000 0.0889680433
C   C13       1.0  0.41939  0.10020  0.61408  1.0000 -0.2008906444
C   C14       1.0  0.58061  0.60020  0.88592  1.0000 -0.2008906444
C   C15       1.0  0.58061  0.89980  0.38592  1.0000 -0.2008906444
C   C16       1.0  0.41939  0.39980  0.11409  1.0000 -0.2008906444
C   C17       1.0  0.38227  0.10540  0.66537  1.0000 0.1699869568
C   C18       1.0  0.61774  0.60540  0.83464  1.0000 0.1699869568
C   C19       1.0  0.61774  0.89460  0.33464  1.0000 0.1699869568
C   C20       1.0  0.38227  0.39460  0.16537  1.0000 0.1699869568
C   C21       1.0  0.41924  0.20640  0.70444  1.0000 -0.175101093
C   C22       1.0  0.58076  0.70640  0.79556  1.0000 -0.175101093
C   C23       1.0  0.58076  0.79360  0.29556  1.0000 -0.175101093
C   C24       1.0  0.41924  0.29360  0.20444  1.0000 -0.175101093
C   C25       1.0  0.37319  0.30780  0.78239  1.0000 -0.1223071413
C   C26       1.0  0.62682  0.80780  0.71762  1.0000 -0.1223071413
C   C27       1.0  0.62682  0.69220  0.21762  1.0000 -0.1223071413
C   C28       1.0  0.37319  0.19220  0.28239  1.0000 -0.1223071413
C   C29       1.0  0.26653  0.33410  0.81323  1.0000 -0.1383461123
C   C30       1.0  0.73347  0.83410  0.68678  1.0000 -0.1383461123
C   C31       1.0  0.73347  0.66590  0.18677  1.0000 -0.1383461123
C   C32       1.0  0.26653  0.16590  0.31323  1.0000 -0.1383461123
C   C33       1.0  0.18774  0.28670  0.69015  1.0000 -0.1223071413
C   C34       1.0  0.81225  0.78670  0.80986  1.0000 -0.1223071413
C   C35       1.0  0.81225  0.71330  0.30985  1.0000 -0.1223071413
C   C36       1.0  0.18774  0.21330  0.19015  1.0000 -0.1223071413
C   C37       1.0  0.07572  0.31710  0.71872  1.0000 -0.1460325038
C   C38       1.0  0.92429  0.81710  0.78129  1.0000 -0.1460325038
C   C39       1.0  0.92429  0.68290  0.28129  1.0000 -0.1460325038
C   C40       1.0  0.07572  0.18290  0.21871  1.0000 -0.1460325038
C   C41       1.0  0.02862  0.42740  0.79743  1.0000 -0.2239834433
C   C42       1.0  0.97138  0.92740  0.70258  1.0000 -0.2239834433
C   C43       1.0  0.97137  0.57260  0.20258  1.0000 -0.2239834433
C   C44       1.0  0.02862  0.07260  0.29742  1.0000 -0.2239834433
C   C45       1.0  0.08861  0.49520  0.85272  1.0000 0.1486150111
C   C46       1.0  0.91139  0.99520  0.64728  1.0000 0.1486150111
C   C47       1.0  0.91139  0.50480  0.14728  1.0000 0.1486150111
C   C48       1.0  0.08862  0.00480  0.35272  1.0000 0.1486150111
C   C49       1.0  0.06955  0.45850  0.90435  1.0000 -0.2081640353
C   C50       1.0  0.93045  0.95850  0.59566  1.0000 -0.2081640353
C   C51       1.0  0.93045  0.54150  0.09566  1.0000 -0.2081640353
C   C52       1.0  0.06955  0.04150  0.40435  1.0000 -0.2081640353
C   C53       1.0  0.12491  0.52180  0.95521  1.0000 0.0978137302
C   C54       1.0  0.87510  0.02180  0.54480  1.0000 0.0978137302
C   C55       1.0  0.87509  0.47820  0.04480  1.0000 0.0978137302
C   C56       1.0  0.12490  0.97820  0.45521  1.0000 0.0978137302
C   C57       1.0  0.16184  0.59530  0.85413  1.0000 -0.2239834433
C   C58       1.0  0.83817  0.09530  0.64587  1.0000 -0.2239834433
C   C59       1.0  0.83817  0.40470  0.14586  1.0000 -0.2239834433
C   C60       1.0  0.16184  0.90470  0.35414  1.0000 -0.2239834433
C   C61       1.0  0.65221  0.53170  0.42741  1.0000 -0.069010769
C   C62       1.0  0.34779  0.03170  0.07258  1.0000 -0.069010769
C   C63       1.0  0.34779  0.46830  0.57259  1.0000 -0.069010769
C   C64       1.0  0.65221  0.96830  0.92741  1.0000 -0.069010769
C   C65       1.0  0.79551  0.55760  0.43831  1.0000 -0.1138554019
C   C66       1.0  0.20450  0.05760  0.06169  1.0000 -0.1138554019
C   C67       1.0  0.20449  0.44240  0.56170  1.0000 -0.1138554019
C   C68       1.0  0.79551  0.94240  0.93830  1.0000 -0.1138554019
C   C69       1.0  0.85666  0.64470  0.47706  1.0000 -0.0081562568
C   C70       1.0  0.14335  0.14470  0.02295  1.0000 -0.0081562568
C   C71       1.0  0.14335  0.35530  0.52294  1.0000 -0.0081562568
C   C72       1.0  0.85666  0.85530  0.97706  1.0000 -0.0081562568
C   C73       1.0  0.01164  0.67420  0.48774  1.0000 0.5527477051
C   C74       1.0  0.98836  0.17420  0.01227  1.0000 0.5527477051
C   C75       1.0  0.98837  0.32580  0.51227  1.0000 0.5527477051
C   C76       1.0  0.01164  0.82580  0.98774  1.0000 0.5527477051
C   C77       1.0  0.77236  0.70500  0.50316  1.0000 -0.1383461123
C   C78       1.0  0.22764  0.20500  0.99684  1.0000 -0.1383461123
C   C79       1.0  0.22764  0.29500  0.49685  1.0000 -0.1383461123
C   C80       1.0  0.77236  0.79500  0.00316  1.0000 -0.1383461123
C   C81       1.0  0.62938  0.67830  0.49197  1.0000 -0.0081562568
C   C82       1.0  0.37062  0.17830  0.00802  1.0000 -0.0081562568
C   C83       1.0  0.37062  0.32170  0.50802  1.0000 -0.0081562568
C   C84       1.0  0.62938  0.82170  0.99198  1.0000 -0.0081562568
C   C85       1.0  0.53439  0.74680  0.51750  1.0000 0.5596263791
C   C86       1.0  0.46561  0.24680  0.98251  1.0000 0.5596263791
C   C87       1.0  0.46561  0.25320  0.48251  1.0000 0.5596263791
C   C88       1.0  0.53439  0.75320  0.01750  1.0000 0.5596263791
C   C89       1.0  0.56917  0.59000  0.45417  1.0000 -0.1138554019
C   C90       1.0  0.43082  0.09000  0.04583  1.0000 -0.1138554019
C   C91       1.0  0.43083  0.41000  0.54583  1.0000 -0.1138554019
C   C92       1.0  0.56918  0.91000  0.95418  1.0000 -0.1138554019
C   C93       1.0  0.21210  0.65320  0.90641  1.0000 0.0889680433
C   C94       1.0  0.78790  0.15320  0.59359  1.0000 0.0889680433
C   C95       1.0  0.78790  0.34680  0.09360  1.0000 0.0889680433
C   C96       1.0  0.21210  0.84680  0.40641  1.0000 0.0889680433
S   S1        1.0  0.56751  0.43039  0.37327  1.0000 1.1663944508
S   S2        1.0  0.43249  0.93039  0.12673  1.0000 1.1663944508
S   S3        1.0  0.43249  0.56961  0.62674  1.0000 1.1663944508
S   S4        1.0  0.56752  0.06961  0.87327  1.0000 1.1663944508
N   N1        1.0  0.32309  0.91540  0.59300  1.0000 -0.2482105335
N   N2        1.0  0.67690  0.41540  0.90700  1.0000 -0.2482105335
N   N3        1.0  0.67690  0.08460  0.40701  1.0000 -0.2482105335
N   N4        1.0  0.32310  0.58460  0.09299  1.0000 -0.2482105335
N   N5        1.0  0.31150  0.23290  0.73230  1.0000 -0.0758360615
N   N6        1.0  0.68850  0.73290  0.76771  1.0000 -0.0758360615
N   N7        1.0  0.68850  0.76710  0.26771  1.0000 -0.0758360615
N   N8        1.0  0.31149  0.26710  0.23230  1.0000 -0.0758360615
N   N9        1.0  0.14032  0.39220  0.77092  1.0000 0.018908524
N   N10       1.0  0.85967  0.89220  0.72908  1.0000 0.018908524
N   N11       1.0  0.85967  0.60780  0.22908  1.0000 0.018908524
N   N12       1.0  0.14033  0.10780  0.27093  1.0000 0.018908524
N   N13       1.0  0.19447  0.61740  0.95707  1.0000 -0.2305855666
N   N14       1.0  0.80554  0.11740  0.54293  1.0000 -0.2305855666
N   N15       1.0  0.80554  0.38260  0.04294  1.0000 -0.2305855666
N   N16       1.0  0.19446  0.88260  0.45706  1.0000 -0.2305855666
O   O1        1.0  0.40820  0.70672  0.50680  1.0000 -0.5512012457
O   O2        1.0  0.59179  0.20672  0.99320  1.0000 -0.5512012457
O   O3        1.0  0.59179  0.29328  0.49319  1.0000 -0.5512012457
O   O4        1.0  0.40820  0.79328  0.00681  1.0000 -0.5512012457
O   O5        1.0  0.58047  0.83405  0.54397  1.0000 -0.5631580567
O   O6        1.0  0.41954  0.33405  0.95604  1.0000 -0.5631580567
O   O7        1.0  0.41953  0.16595  0.45604  1.0000 -0.5631580567
O   O8        1.0  0.58047  0.66595  0.04397  1.0000 -0.5631580567
O   O9        1.0  0.07049  0.73887  0.53209  1.0000 -0.5780338859
O   O10       1.0  0.92951  0.23887  0.96791  1.0000 -0.5780338859
O   O11       1.0  0.92951  0.26113  0.46792  1.0000 -0.5780338859
O   O12       1.0  0.07049  0.76113  0.03209  1.0000 -0.5780338859
O   O13       1.0  0.07528  0.63719  0.45508  1.0000 -0.5354698812
O   O14       1.0  0.92473  0.13719  0.04492  1.0000 -0.5354698812
O   O15       1.0  0.92473  0.36281  0.54492  1.0000 -0.5354698812
O   O16       1.0  0.07528  0.86281  0.95508  1.0000 -0.5354698812
O   O17       1.0  0.66272  0.33279  0.38382  1.0000 -0.6193523918
O   O18       1.0  0.33729  0.83279  0.11619  1.0000 -0.6193523918
O   O19       1.0  0.33728  0.66721  0.61618  1.0000 -0.6193523918
O   O20       1.0  0.66272  0.16721  0.88382  1.0000 -0.6193523918
O   O21       1.0  0.42858  0.40802  0.37909  1.0000 -0.5898480033
O   O22       1.0  0.57142  0.90802  0.12091  1.0000 -0.5898480033
O   O23       1.0  0.57142  0.59198  0.62092  1.0000 -0.5898480033
O   O24       1.0  0.42858  0.09198  0.87909  1.0000 -0.5898480033
O   O25       1.0  0.55788  0.48335  0.31719  1.0000 -0.6387050962
O   O26       1.0  0.44211  0.98335  0.18282  1.0000 -0.6387050962
O   O27       1.0  0.44211  0.51665  0.68281  1.0000 -0.6387050962
O   O28       1.0  0.55789  0.01665  0.81719  1.0000 -0.6387050962
