# DDEC6 charges by PACMAN v1.1 (https://github.com/mtap-research/PACMAN-charge/)
data_2011[Cd][nuc]3[FSR]7
_chemical_formula_sum              "Cd4 H144 C192 N48"
_cell_length_a       15.8178
_cell_length_b       15.8178
_cell_length_c       21.503
_cell_angle_alpha    90
_cell_angle_beta     90
_cell_angle_gamma    90

_symmetry_space_group_name_H-M    "P 1"
_symmetry_Int_Tables_number       1

loop_
  _symmetry_equiv_pos_as_xyz
  'x, y, z'

loop_
  _atom_site_type_symbol
  _atom_site_label
  _atom_site_symmetry_multiplicity
  _atom_site_fract_x
  _atom_site_fract_y
  _atom_site_fract_z
  _atom_site_occupancy
  _atom_site_charge
Cd  Cd1       1.0  0.94034  0.05966  0.25000  1.0000 0.6418078173
Cd  Cd2       1.0  0.05966  0.94034  0.75000  1.0000 0.6418078173
Cd  Cd3       1.0  0.44034  0.44034  0.00000  1.0000 0.6418078173
Cd  Cd4       1.0  0.55966  0.55966  0.50000  1.0000 0.6418078173
H   H1        1.0  0.75950  0.99620  0.32480  1.0000 0.0999115806
H   H2        1.0  0.24050  0.00380  0.82480  1.0000 0.0999115806
H   H3        1.0  0.50380  0.25950  0.07480  1.0000 0.0999115806
H   H4        1.0  0.49620  0.74050  0.57480  1.0000 0.0999115806
H   H5        1.0  0.74050  0.49620  0.42520  1.0000 0.0999115806
H   H6        1.0  0.25950  0.50380  0.92520  1.0000 0.0999115806
H   H7        1.0  0.99620  0.75950  0.67520  1.0000 0.0999115806
H   H8        1.0  0.00380  0.24050  0.17520  1.0000 0.0999115806
H   H9        1.0  0.64960  0.90390  0.31730  1.0000 0.1265543638
H   H10       1.0  0.35040  0.09610  0.81730  1.0000 0.1265543638
H   H11       1.0  0.59610  0.14960  0.06730  1.0000 0.1265543638
H   H12       1.0  0.40390  0.85040  0.56730  1.0000 0.1265543638
H   H13       1.0  0.85040  0.40390  0.43270  1.0000 0.1265543638
H   H14       1.0  0.14960  0.59610  0.93270  1.0000 0.1265543638
H   H15       1.0  0.90390  0.64960  0.68270  1.0000 0.1265543638
H   H16       1.0  0.09610  0.35040  0.18270  1.0000 0.1265543638
H   H17       1.0  0.73430  0.84560  0.14410  1.0000 0.1265543638
H   H18       1.0  0.26570  0.15440  0.64410  1.0000 0.1265543638
H   H19       1.0  0.65440  0.23430  0.89410  1.0000 0.1265543638
H   H20       1.0  0.34560  0.76570  0.39410  1.0000 0.1265543638
H   H21       1.0  0.76570  0.34560  0.60590  1.0000 0.1265543638
H   H22       1.0  0.23430  0.65440  0.10590  1.0000 0.1265543638
H   H23       1.0  0.84560  0.73430  0.85590  1.0000 0.1265543638
H   H24       1.0  0.15440  0.26570  0.35590  1.0000 0.1265543638
H   H25       1.0  0.84080  0.93970  0.15860  1.0000 0.0999115806
H   H26       1.0  0.15920  0.06030  0.65860  1.0000 0.0999115806
H   H27       1.0  0.56030  0.34080  0.90860  1.0000 0.0999115806
H   H28       1.0  0.43970  0.65920  0.40860  1.0000 0.0999115806
H   H29       1.0  0.65920  0.43970  0.59140  1.0000 0.0999115806
H   H30       1.0  0.34080  0.56030  0.09140  1.0000 0.0999115806
H   H31       1.0  0.93970  0.84080  0.84140  1.0000 0.0999115806
H   H32       1.0  0.06030  0.15920  0.34140  1.0000 0.0999115806
H   H33       1.0  0.52990  0.84050  0.28840  1.0000 0.1109657011
H   H34       1.0  0.47010  0.15950  0.78840  1.0000 0.1109657011
H   H35       1.0  0.65950  0.02990  0.03840  1.0000 0.1109657011
H   H36       1.0  0.34050  0.97010  0.53840  1.0000 0.1109657011
H   H37       1.0  0.97010  0.34050  0.46160  1.0000 0.1109657011
H   H38       1.0  0.02990  0.65950  0.96160  1.0000 0.1109657011
H   H39       1.0  0.84050  0.52990  0.71160  1.0000 0.1109657011
H   H40       1.0  0.15950  0.47010  0.21160  1.0000 0.1109657011
H   H41       1.0  0.42850  0.73830  0.27690  1.0000 0.1109657011
H   H42       1.0  0.57150  0.26170  0.77690  1.0000 0.1109657011
H   H43       1.0  0.76170  0.92850  0.02690  1.0000 0.1109657011
H   H44       1.0  0.23830  0.07150  0.52690  1.0000 0.1109657011
H   H45       1.0  0.07150  0.23830  0.47310  1.0000 0.1109657011
H   H46       1.0  0.92850  0.76170  0.97310  1.0000 0.1109657011
H   H47       1.0  0.73830  0.42850  0.72310  1.0000 0.1109657011
H   H48       1.0  0.26170  0.57150  0.22310  1.0000 0.1109657011
H   H49       1.0  0.44860  0.62410  0.20980  1.0000 0.1109657011
H   H50       1.0  0.55140  0.37590  0.70980  1.0000 0.1109657011
H   H51       1.0  0.87590  0.94860  0.95980  1.0000 0.1109657011
H   H52       1.0  0.12410  0.05140  0.45980  1.0000 0.1109657011
H   H53       1.0  0.05140  0.12410  0.54020  1.0000 0.1109657011
H   H54       1.0  0.94860  0.87590  0.04020  1.0000 0.1109657011
H   H55       1.0  0.62410  0.44860  0.79020  1.0000 0.1109657011
H   H56       1.0  0.37590  0.55140  0.29020  1.0000 0.1109657011
H   H57       1.0  0.67160  0.72590  0.15590  1.0000 0.0999115806
H   H58       1.0  0.32840  0.27410  0.65590  1.0000 0.0999115806
H   H59       1.0  0.77410  0.17160  0.90590  1.0000 0.0999115806
H   H60       1.0  0.22590  0.82840  0.40590  1.0000 0.0999115806
H   H61       1.0  0.82840  0.22590  0.59410  1.0000 0.0999115806
H   H62       1.0  0.17160  0.77410  0.09410  1.0000 0.0999115806
H   H63       1.0  0.72590  0.67160  0.84410  1.0000 0.0999115806
H   H64       1.0  0.27410  0.32840  0.34410  1.0000 0.0999115806
H   H65       1.0  0.70160  0.51090  0.95750  1.0000 0.1109657011
H   H66       1.0  0.29840  0.48910  0.45750  1.0000 0.1109657011
H   H67       1.0  0.98910  0.20160  0.70750  1.0000 0.1109657011
H   H68       1.0  0.01090  0.79840  0.20750  1.0000 0.1109657011
H   H69       1.0  0.79840  0.01090  0.79250  1.0000 0.1109657011
H   H70       1.0  0.20160  0.98910  0.29250  1.0000 0.1109657011
H   H71       1.0  0.51090  0.70160  0.04250  1.0000 0.1109657011
H   H72       1.0  0.48910  0.29840  0.54250  1.0000 0.1109657011
H   H73       1.0  0.80440  0.42040  0.91720  1.0000 0.1109657011
H   H74       1.0  0.19560  0.57960  0.41720  1.0000 0.1109657011
H   H75       1.0  0.07960  0.30440  0.66720  1.0000 0.1109657011
H   H76       1.0  0.92040  0.69560  0.16720  1.0000 0.1109657011
H   H77       1.0  0.69560  0.92040  0.83280  1.0000 0.1109657011
H   H78       1.0  0.30440  0.07960  0.33280  1.0000 0.1109657011
H   H79       1.0  0.42040  0.80440  0.08280  1.0000 0.1109657011
H   H80       1.0  0.57960  0.19560  0.58280  1.0000 0.1109657011
H   H81       1.0  0.84780  0.30120  0.96750  1.0000 0.0999115806
H   H82       1.0  0.15220  0.69880  0.46750  1.0000 0.0999115806
H   H83       1.0  0.19880  0.34780  0.71750  1.0000 0.0999115806
H   H84       1.0  0.80120  0.65220  0.21750  1.0000 0.0999115806
H   H85       1.0  0.65220  0.80120  0.78250  1.0000 0.0999115806
H   H86       1.0  0.34780  0.19880  0.28250  1.0000 0.0999115806
H   H87       1.0  0.30120  0.84780  0.03250  1.0000 0.0999115806
H   H88       1.0  0.69880  0.15220  0.53250  1.0000 0.0999115806
H   H89       1.0  0.69510  0.36060  0.11210  1.0000 0.1109657011
H   H90       1.0  0.30490  0.63940  0.61210  1.0000 0.1109657011
H   H91       1.0  0.13940  0.19510  0.86210  1.0000 0.1109657011
H   H92       1.0  0.86060  0.80490  0.36210  1.0000 0.1109657011
H   H93       1.0  0.80490  0.86060  0.63790  1.0000 0.1109657011
H   H94       1.0  0.19510  0.13940  0.13790  1.0000 0.1109657011
H   H95       1.0  0.36060  0.69510  0.88790  1.0000 0.1109657011
H   H96       1.0  0.63940  0.30490  0.38790  1.0000 0.1109657011
H   H97       1.0  0.91030  0.21510  0.03210  1.0000 0.1265543638
H   H98       1.0  0.08970  0.78490  0.53210  1.0000 0.1265543638
H   H99       1.0  0.28490  0.41030  0.78210  1.0000 0.1265543638
H   H100      1.0  0.71510  0.58970  0.28210  1.0000 0.1265543638
H   H101      1.0  0.58970  0.71510  0.71790  1.0000 0.1265543638
H   H102      1.0  0.41030  0.28490  0.21790  1.0000 0.1265543638
H   H103      1.0  0.21510  0.91030  0.96790  1.0000 0.1265543638
H   H104      1.0  0.78490  0.08970  0.46790  1.0000 0.1265543638
H   H105      1.0  0.95920  0.10910  0.09710  1.0000 0.0999115806
H   H106      1.0  0.04080  0.89090  0.59710  1.0000 0.0999115806
H   H107      1.0  0.39090  0.45920  0.84710  1.0000 0.0999115806
H   H108      1.0  0.60910  0.54080  0.34710  1.0000 0.0999115806
H   H109      1.0  0.54080  0.60910  0.65290  1.0000 0.0999115806
H   H110      1.0  0.45920  0.39090  0.15290  1.0000 0.0999115806
H   H111      1.0  0.10910  0.95920  0.90290  1.0000 0.0999115806
H   H112      1.0  0.89090  0.04080  0.40290  1.0000 0.0999115806
H   H113      1.0  0.76820  0.13920  0.20970  1.0000 0.0939073418
H   H114      1.0  0.23180  0.86080  0.70970  1.0000 0.0939073418
H   H115      1.0  0.36080  0.26820  0.95970  1.0000 0.0939073418
H   H116      1.0  0.63920  0.73180  0.45970  1.0000 0.0939073418
H   H117      1.0  0.73180  0.63920  0.54030  1.0000 0.0939073418
H   H118      1.0  0.26820  0.36080  0.04030  1.0000 0.0939073418
H   H119      1.0  0.13920  0.76820  0.79030  1.0000 0.0939073418
H   H120      1.0  0.86080  0.23180  0.29030  1.0000 0.0939073418
H   H121      1.0  0.70860  0.24100  0.14500  1.0000 0.1265543638
H   H122      1.0  0.29140  0.75900  0.64500  1.0000 0.1265543638
H   H123      1.0  0.25900  0.20860  0.89500  1.0000 0.1265543638
H   H124      1.0  0.74100  0.79140  0.39500  1.0000 0.1265543638
H   H125      1.0  0.79140  0.74100  0.60500  1.0000 0.1265543638
H   H126      1.0  0.20860  0.25900  0.10500  1.0000 0.1265543638
H   H127      1.0  0.24100  0.70860  0.85500  1.0000 0.1265543638
H   H128      1.0  0.75900  0.29140  0.35500  1.0000 0.1265543638
H   H129      1.0  0.76610  0.53800  0.13870  1.0000 0.2347857584
H   H130      1.0  0.23390  0.46200  0.63870  1.0000 0.2347857584
H   H131      1.0  0.96200  0.26610  0.88870  1.0000 0.2347857584
H   H132      1.0  0.03800  0.73390  0.38870  1.0000 0.2347857584
H   H133      1.0  0.73390  0.03800  0.61130  1.0000 0.2347857584
H   H134      1.0  0.26610  0.96200  0.11130  1.0000 0.2347857584
H   H135      1.0  0.53800  0.76610  0.86130  1.0000 0.2347857584
H   H136      1.0  0.46200  0.23390  0.36130  1.0000 0.2347857584
H   H137      1.0  0.74690  0.60600  0.09900  1.0000 0.2203767379
H   H138      1.0  0.25310  0.39400  0.59900  1.0000 0.2203767379
H   H139      1.0  0.89400  0.24690  0.84900  1.0000 0.2203767379
H   H140      1.0  0.10600  0.75310  0.34900  1.0000 0.2203767379
H   H141      1.0  0.75310  0.10600  0.65100  1.0000 0.2203767379
H   H142      1.0  0.24690  0.89400  0.15100  1.0000 0.2203767379
H   H143      1.0  0.60600  0.74690  0.90100  1.0000 0.2203767379
H   H144      1.0  0.39400  0.25310  0.40100  1.0000 0.2203767379
C   C1        1.0  0.75430  0.96420  0.28760  1.0000 0.0499578184
C   C2        1.0  0.24570  0.03580  0.78760  1.0000 0.0499578184
C   C3        1.0  0.53580  0.25430  0.03760  1.0000 0.0499578184
C   C4        1.0  0.46420  0.74570  0.53760  1.0000 0.0499578184
C   C5        1.0  0.74570  0.46420  0.46240  1.0000 0.0499578184
C   C6        1.0  0.25430  0.53580  0.96240  1.0000 0.0499578184
C   C7        1.0  0.96420  0.75430  0.71240  1.0000 0.0499578184
C   C8        1.0  0.03580  0.24570  0.21240  1.0000 0.0499578184
C   C9        1.0  0.68830  0.90930  0.28380  1.0000 -0.1993420292
C   C10       1.0  0.31170  0.09070  0.78380  1.0000 -0.1993420292
C   C11       1.0  0.59070  0.18830  0.03380  1.0000 -0.1993420292
C   C12       1.0  0.40930  0.81170  0.53380  1.0000 -0.1993420292
C   C13       1.0  0.81170  0.40930  0.46620  1.0000 -0.1993420292
C   C14       1.0  0.18830  0.59070  0.96620  1.0000 -0.1993420292
C   C15       1.0  0.90930  0.68830  0.71620  1.0000 -0.1993420292
C   C16       1.0  0.09070  0.31170  0.21620  1.0000 -0.1993420292
C   C17       1.0  0.67810  0.86020  0.22900  1.0000 0.1109657011
C   C18       1.0  0.32190  0.13980  0.72900  1.0000 0.1109657011
C   C19       1.0  0.63980  0.17810  0.97900  1.0000 0.1109657011
C   C20       1.0  0.36020  0.82190  0.47900  1.0000 0.1109657011
C   C21       1.0  0.82190  0.36020  0.52100  1.0000 0.1109657011
C   C22       1.0  0.17810  0.63980  0.02100  1.0000 0.1109657011
C   C23       1.0  0.86020  0.67810  0.77100  1.0000 0.1109657011
C   C24       1.0  0.13980  0.32190  0.27100  1.0000 0.1109657011
C   C25       1.0  0.73810  0.87530  0.18250  1.0000 -0.1993420292
C   C26       1.0  0.26190  0.12470  0.68250  1.0000 -0.1993420292
C   C27       1.0  0.62470  0.23810  0.93250  1.0000 -0.1946483474
C   C28       1.0  0.37530  0.76190  0.43250  1.0000 -0.1993420292
C   C29       1.0  0.76190  0.37530  0.56750  1.0000 -0.1993420292
C   C30       1.0  0.23810  0.62470  0.06750  1.0000 -0.1993420292
C   C31       1.0  0.87530  0.73810  0.81750  1.0000 -0.1993420292
C   C32       1.0  0.12470  0.26190  0.31750  1.0000 -0.1993420292
C   C33       1.0  0.80140  0.93160  0.19140  1.0000 0.0499578184
C   C34       1.0  0.19860  0.06840  0.69140  1.0000 0.0499578184
C   C35       1.0  0.56840  0.30140  0.94140  1.0000 0.0499578184
C   C36       1.0  0.43160  0.69860  0.44140  1.0000 0.0499578184
C   C37       1.0  0.69860  0.43160  0.55860  1.0000 0.0499578184
C   C38       1.0  0.30140  0.56840  0.05860  1.0000 0.0499578184
C   C39       1.0  0.93160  0.80140  0.80860  1.0000 0.0499578184
C   C40       1.0  0.06840  0.19860  0.30860  1.0000 0.0499578184
C   C41       1.0  0.61190  0.79470  0.22390  1.0000 0.0678058867
C   C42       1.0  0.38810  0.20530  0.72390  1.0000 0.0678058867
C   C43       1.0  0.70530  0.11190  0.97390  1.0000 0.0678058867
C   C44       1.0  0.29470  0.88810  0.47390  1.0000 0.0678058867
C   C45       1.0  0.88810  0.29470  0.52610  1.0000 0.0678058867
C   C46       1.0  0.11190  0.70530  0.02610  1.0000 0.0678058867
C   C47       1.0  0.79470  0.61190  0.77610  1.0000 0.0678058867
C   C48       1.0  0.20530  0.38810  0.27610  1.0000 0.0678058867
C   C49       1.0  0.53860  0.79600  0.25930  1.0000 -0.1564513627
C   C50       1.0  0.46140  0.20400  0.75930  1.0000 -0.1564513627
C   C51       1.0  0.70400  0.03860  0.00930  1.0000 -0.1564513627
C   C52       1.0  0.29600  0.96140  0.50930  1.0000 -0.1564513627
C   C53       1.0  0.96140  0.29600  0.49070  1.0000 -0.1564513627
C   C54       1.0  0.03860  0.70400  0.99070  1.0000 -0.1564513627
C   C55       1.0  0.79600  0.53860  0.74070  1.0000 -0.1564513627
C   C56       1.0  0.20400  0.46140  0.24070  1.0000 -0.1564513627
C   C57       1.0  0.47890  0.73480  0.25310  1.0000 -0.1064943248
C   C58       1.0  0.52110  0.26520  0.75310  1.0000 -0.1064943248
C   C59       1.0  0.76520  0.97890  0.00310  1.0000 -0.1064943248
C   C60       1.0  0.23480  0.02110  0.50310  1.0000 -0.1064943248
C   C61       1.0  0.02110  0.23480  0.49690  1.0000 -0.1064943248
C   C62       1.0  0.97890  0.76520  0.99690  1.0000 -0.1064943248
C   C63       1.0  0.73480  0.47890  0.74690  1.0000 -0.1064943248
C   C64       1.0  0.26520  0.52110  0.24690  1.0000 -0.1064943248
C   C65       1.0  0.49010  0.66730  0.21290  1.0000 -0.1564513627
C   C66       1.0  0.50990  0.33270  0.71290  1.0000 -0.1564513627
C   C67       1.0  0.83270  0.99010  0.96290  1.0000 -0.1564513627
C   C68       1.0  0.16730  0.00990  0.46290  1.0000 -0.1564513627
C   C69       1.0  0.00990  0.16730  0.53710  1.0000 -0.1564513627
C   C70       1.0  0.99010  0.83270  0.03710  1.0000 -0.1564513627
C   C71       1.0  0.66730  0.49010  0.78710  1.0000 -0.1564513627
C   C72       1.0  0.33270  0.50990  0.28710  1.0000 -0.1564513627
C   C73       1.0  0.56360  0.66410  0.17690  1.0000 0.042154568
C   C74       1.0  0.43640  0.33590  0.67690  1.0000 0.042154568
C   C75       1.0  0.83590  0.06360  0.92690  1.0000 0.042154568
C   C76       1.0  0.16410  0.93640  0.42690  1.0000 0.042154568
C   C77       1.0  0.93640  0.16410  0.57310  1.0000 0.042154568
C   C78       1.0  0.06360  0.83590  0.07310  1.0000 0.042154568
C   C79       1.0  0.66410  0.56360  0.82310  1.0000 0.042154568
C   C80       1.0  0.33590  0.43640  0.32310  1.0000 0.042154568
C   C81       1.0  0.62280  0.72740  0.18160  1.0000 -0.1993420292
C   C82       1.0  0.37720  0.27260  0.68160  1.0000 -0.1993420292
C   C83       1.0  0.77260  0.12280  0.93160  1.0000 -0.1993420292
C   C84       1.0  0.22740  0.87720  0.43160  1.0000 -0.1993420292
C   C85       1.0  0.87720  0.22740  0.56840  1.0000 -0.1993420292
C   C86       1.0  0.12280  0.77260  0.06840  1.0000 -0.1993420292
C   C87       1.0  0.72740  0.62280  0.81840  1.0000 -0.1993420292
C   C88       1.0  0.27260  0.37720  0.31840  1.0000 -0.1993420292
C   C89       1.0  0.57270  0.59370  0.13280  1.0000 0.1776369404
C   C90       1.0  0.42730  0.40630  0.63280  1.0000 0.1776369404
C   C91       1.0  0.90630  0.07270  0.88280  1.0000 0.1776369404
C   C92       1.0  0.09370  0.92730  0.38280  1.0000 0.1776369404
C   C93       1.0  0.92730  0.09370  0.61720  1.0000 0.1776369404
C   C94       1.0  0.07270  0.90630  0.11720  1.0000 0.1776369404
C   C95       1.0  0.59370  0.57270  0.86720  1.0000 0.1776369404
C   C96       1.0  0.40630  0.42730  0.36720  1.0000 0.1776369404
C   C97       1.0  0.62430  0.49820  0.06970  1.0000 0.1776369404
C   C98       1.0  0.37570  0.50180  0.56970  1.0000 0.1776369404
C   C99       1.0  0.00180  0.12430  0.81970  1.0000 0.1776369404
C   C100      1.0  0.99820  0.87570  0.31970  1.0000 0.1776369404
C   C101      1.0  0.87570  0.99820  0.68030  1.0000 0.1776369404
C   C102      1.0  0.12430  0.00180  0.18030  1.0000 0.1776369404
C   C103      1.0  0.49820  0.62430  0.93030  1.0000 0.1776369404
C   C104      1.0  0.50180  0.37570  0.43030  1.0000 0.1776369404
C   C105      1.0  0.68720  0.44350  0.03900  1.0000 0.0222352826
C   C106      1.0  0.31280  0.55650  0.53900  1.0000 0.0222352826
C   C107      1.0  0.05650  0.18720  0.78900  1.0000 0.0222352826
C   C108      1.0  0.94350  0.81280  0.28900  1.0000 0.0222352826
C   C109      1.0  0.81280  0.94350  0.71100  1.0000 0.0222352826
C   C110      1.0  0.18720  0.05650  0.21100  1.0000 0.0222352826
C   C111      1.0  0.44350  0.68720  0.96100  1.0000 0.0222352826
C   C112      1.0  0.55650  0.31280  0.46100  1.0000 0.0222352826
C   C113      1.0  0.71990  0.46270  0.98020  1.0000 -0.1798715662
C   C114      1.0  0.28010  0.53730  0.48020  1.0000 -0.1798715662
C   C115      1.0  0.03730  0.21990  0.73020  1.0000 -0.1798715662
C   C116      1.0  0.96270  0.78010  0.23020  1.0000 -0.1798715662
C   C117      1.0  0.78010  0.96270  0.76980  1.0000 -0.1798715662
C   C118      1.0  0.21990  0.03730  0.26980  1.0000 -0.1798715662
C   C119      1.0  0.46270  0.71990  0.01980  1.0000 -0.1798715662
C   C120      1.0  0.53730  0.28010  0.51980  1.0000 -0.1798715662
C   C121      1.0  0.78050  0.40780  0.95670  1.0000 -0.0960058752
C   C122      1.0  0.21950  0.59220  0.45670  1.0000 -0.0960058752
C   C123      1.0  0.09220  0.28050  0.70670  1.0000 -0.0960058752
C   C124      1.0  0.90780  0.71950  0.20670  1.0000 -0.0960058752
C   C125      1.0  0.71950  0.90780  0.79330  1.0000 -0.0960058752
C   C126      1.0  0.28050  0.09220  0.29330  1.0000 -0.0960058752
C   C127      1.0  0.40780  0.78050  0.04330  1.0000 -0.0960058752
C   C128      1.0  0.59220  0.21950  0.54330  1.0000 -0.0960058752
C   C129      1.0  0.80750  0.33740  0.98650  1.0000 -0.1701287102
C   C130      1.0  0.19250  0.66260  0.48650  1.0000 -0.1701287102
C   C131      1.0  0.16260  0.30750  0.73650  1.0000 -0.1701287102
C   C132      1.0  0.83740  0.69250  0.23650  1.0000 -0.1701287102
C   C133      1.0  0.69250  0.83740  0.76350  1.0000 -0.1701287102
C   C134      1.0  0.30750  0.16260  0.26350  1.0000 -0.1701287102
C   C135      1.0  0.33740  0.80750  0.01350  1.0000 -0.1701287102
C   C136      1.0  0.66260  0.19250  0.51350  1.0000 -0.1701287102
C   C137      1.0  0.77550  0.31840  0.04590  1.0000 0.0751600176
C   C138      1.0  0.22450  0.68160  0.54590  1.0000 0.0751600176
C   C139      1.0  0.18160  0.27550  0.79590  1.0000 0.0751600176
C   C140      1.0  0.81840  0.72450  0.29590  1.0000 0.0751600176
C   C141      1.0  0.72450  0.81840  0.70410  1.0000 0.0751600176
C   C142      1.0  0.27550  0.18160  0.20410  1.0000 0.0751600176
C   C143      1.0  0.31840  0.77550  0.95410  1.0000 0.0751600176
C   C144      1.0  0.68160  0.22450  0.45410  1.0000 0.0751600176
C   C145      1.0  0.71640  0.37200  0.07170  1.0000 -0.2088090662
C   C146      1.0  0.28360  0.62800  0.57170  1.0000 -0.2088090662
C   C147      1.0  0.12800  0.21640  0.82170  1.0000 -0.2088090662
C   C148      1.0  0.87200  0.78360  0.32170  1.0000 -0.2088090662
C   C149      1.0  0.78360  0.87200  0.67830  1.0000 -0.2088090662
C   C150      1.0  0.21640  0.12800  0.17830  1.0000 -0.2088090662
C   C151      1.0  0.37200  0.71640  0.92830  1.0000 -0.2088090662
C   C152      1.0  0.62800  0.28360  0.42830  1.0000 -0.2088090662
C   C153      1.0  0.80740  0.24590  0.08240  1.0000 0.1109657011
C   C154      1.0  0.19260  0.75410  0.58240  1.0000 0.1109657011
C   C155      1.0  0.25410  0.30740  0.83240  1.0000 0.1109657011
C   C156      1.0  0.74590  0.69260  0.33240  1.0000 0.1109657011
C   C157      1.0  0.69260  0.74590  0.66760  1.0000 0.1109657011
C   C158      1.0  0.30740  0.25410  0.16760  1.0000 0.1109657011
C   C159      1.0  0.24590  0.80740  0.91760  1.0000 0.1109657011
C   C160      1.0  0.75410  0.19260  0.41760  1.0000 0.1109657011
C   C161      1.0  0.87990  0.20230  0.06910  1.0000 -0.2088090662
C   C162      1.0  0.12010  0.79770  0.56910  1.0000 -0.2088090662
C   C163      1.0  0.29770  0.37990  0.81910  1.0000 -0.2088090662
C   C164      1.0  0.70230  0.62010  0.31910  1.0000 -0.2088090662
C   C165      1.0  0.62010  0.70230  0.68090  1.0000 -0.2088090662
C   C166      1.0  0.37990  0.29770  0.18090  1.0000 -0.2088090662
C   C167      1.0  0.20230  0.87990  0.93090  1.0000 -0.2088090662
C   C168      1.0  0.79770  0.12010  0.43090  1.0000 -0.2088090662
C   C169      1.0  0.90990  0.13950  0.10880  1.0000 0.0559869226
C   C170      1.0  0.09010  0.86050  0.60880  1.0000 0.0559869226
C   C171      1.0  0.36050  0.40990  0.85880  1.0000 0.0559869226
C   C172      1.0  0.63950  0.59010  0.35880  1.0000 0.0559869226
C   C173      1.0  0.59010  0.63950  0.64120  1.0000 0.0559869226
C   C174      1.0  0.40990  0.36050  0.14120  1.0000 0.0559869226
C   C175      1.0  0.13950  0.90990  0.89120  1.0000 0.0559869226
C   C176      1.0  0.86050  0.09010  0.39120  1.0000 0.0559869226
C   C177      1.0  0.79840  0.15630  0.17370  1.0000 0.042154568
C   C178      1.0  0.20160  0.84370  0.67370  1.0000 0.042154568
C   C179      1.0  0.34370  0.29840  0.92370  1.0000 0.042154568
C   C180      1.0  0.65630  0.70160  0.42370  1.0000 0.042154568
C   C181      1.0  0.70160  0.65630  0.57630  1.0000 0.042154568
C   C182      1.0  0.29840  0.34370  0.07630  1.0000 0.042154568
C   C183      1.0  0.15630  0.79840  0.82630  1.0000 0.042154568
C   C184      1.0  0.84370  0.20160  0.32630  1.0000 0.042154568
C   C185      1.0  0.76250  0.21800  0.13550  1.0000 -0.2168732207
C   C186      1.0  0.23750  0.78200  0.63550  1.0000 -0.2168732207
C   C187      1.0  0.28200  0.26250  0.88550  1.0000 -0.2168732207
C   C188      1.0  0.71800  0.73750  0.38550  1.0000 -0.2168732207
C   C189      1.0  0.73750  0.71800  0.61450  1.0000 -0.2168732207
C   C190      1.0  0.26250  0.28200  0.11450  1.0000 -0.2168732207
C   C191      1.0  0.21800  0.76250  0.86450  1.0000 -0.2168732207
C   C192      1.0  0.78200  0.23750  0.36450  1.0000 -0.2168732207
N   N1        1.0  0.81230  0.97680  0.24350  1.0000 -0.2396924045
N   N2        1.0  0.18770  0.02320  0.74350  1.0000 -0.2396924045
N   N3        1.0  0.52320  0.31230  0.99350  1.0000 -0.2396924045
N   N4        1.0  0.47680  0.68770  0.49350  1.0000 -0.2396924045
N   N5        1.0  0.68770  0.47680  0.50650  1.0000 -0.2396924045
N   N6        1.0  0.31230  0.52320  0.00650  1.0000 -0.2396924045
N   N7        1.0  0.97680  0.81230  0.75650  1.0000 -0.2396924045
N   N8        1.0  0.02320  0.18770  0.25650  1.0000 -0.2396924045
N   N9        1.0  0.50880  0.55540  0.10650  1.0000 -0.2758242633
N   N10       1.0  0.49120  0.44460  0.60650  1.0000 -0.2758242633
N   N11       1.0  0.94460  0.00880  0.85650  1.0000 -0.2758242633
N   N12       1.0  0.05540  0.99120  0.35650  1.0000 -0.2758242633
N   N13       1.0  0.99120  0.05540  0.64350  1.0000 -0.2758242633
N   N14       1.0  0.00880  0.94460  0.14350  1.0000 -0.2758242633
N   N15       1.0  0.55540  0.50880  0.89350  1.0000 -0.2758242633
N   N16       1.0  0.44460  0.49120  0.39350  1.0000 -0.2758242633
N   N17       1.0  0.54210  0.49500  0.06700  1.0000 -0.2305836655
N   N18       1.0  0.45790  0.50500  0.56700  1.0000 -0.2305836655
N   N19       1.0  0.00500  0.04210  0.81700  1.0000 -0.2305836655
N   N20       1.0  0.99500  0.95790  0.31700  1.0000 -0.2305836655
N   N21       1.0  0.95790  0.99500  0.68300  1.0000 -0.2305836655
N   N22       1.0  0.04210  0.00500  0.18300  1.0000 -0.2305836655
N   N23       1.0  0.49500  0.54210  0.93300  1.0000 -0.2305836655
N   N24       1.0  0.50500  0.45790  0.43300  1.0000 -0.2305836655
N   N25       1.0  0.64640  0.55860  0.11160  1.0000 0.0499578184
N   N26       1.0  0.35360  0.44140  0.61160  1.0000 0.0499578184
N   N27       1.0  0.94140  0.14640  0.86160  1.0000 0.0499578184
N   N28       1.0  0.05860  0.85360  0.36160  1.0000 0.0499578184
N   N29       1.0  0.85360  0.05860  0.63840  1.0000 0.0499578184
N   N30       1.0  0.14640  0.94140  0.13840  1.0000 0.0499578184
N   N31       1.0  0.55860  0.64640  0.88840  1.0000 0.0499578184
N   N32       1.0  0.44140  0.35360  0.38840  1.0000 0.0499578184
N   N33       1.0  0.72850  0.57830  0.13220  1.0000 -0.5001013647
N   N34       1.0  0.27150  0.42170  0.63220  1.0000 -0.5001013647
N   N35       1.0  0.92170  0.22850  0.88220  1.0000 -0.5001013647
N   N36       1.0  0.07830  0.77150  0.38220  1.0000 -0.5001013647
N   N37       1.0  0.77150  0.07830  0.61780  1.0000 -0.5001013647
N   N38       1.0  0.22850  0.92170  0.11780  1.0000 -0.5001013647
N   N39       1.0  0.57830  0.72850  0.86780  1.0000 -0.5001013647
N   N40       1.0  0.42170  0.27150  0.36780  1.0000 -0.5001013647
N   N41       1.0  0.87280  0.12000  0.16230  1.0000 -0.2305836655
N   N42       1.0  0.12720  0.88000  0.66230  1.0000 -0.2305836655
N   N43       1.0  0.38000  0.37280  0.91230  1.0000 -0.2305836655
N   N44       1.0  0.62000  0.62720  0.41230  1.0000 -0.2305836655
N   N45       1.0  0.62720  0.62000  0.58770  1.0000 -0.2305836655
N   N46       1.0  0.37280  0.38000  0.08770  1.0000 -0.2305836655
N   N47       1.0  0.12000  0.87280  0.83770  1.0000 -0.2305836655
N   N48       1.0  0.88000  0.12720  0.33770  1.0000 -0.2305836655
