# DDEC6 charges by PACMAN v1.1 (https://github.com/mtap-research/PACMAN-charge/)
data_2011[Zn][dia]3[FSR]10
_chemical_formula_sum              "Zn2 H40 C56 N4 O8"
_cell_length_a       14.0605
_cell_length_b       14.0605
_cell_length_c       8.715
_cell_angle_alpha    83.686
_cell_angle_beta     96.314
_cell_angle_gamma    54.7666

_symmetry_space_group_name_H-M    "P 1"
_symmetry_Int_Tables_number       1

loop_
  _symmetry_equiv_pos_as_xyz
  'x, y, z'

loop_
  _atom_site_type_symbol
  _atom_site_label
  _atom_site_symmetry_multiplicity
  _atom_site_fract_x
  _atom_site_fract_y
  _atom_site_fract_z
  _atom_site_occupancy
  _atom_site_charge
Zn  Zn1       1.0  0.43639  0.74115  0.36757  1.0000 0.7454293986
Zn  Zn2       1.0  0.25885  0.56361  0.86757  1.0000 0.7454293986
H   H1        1.0  0.43530  0.09630  0.09300  1.0000 0.119577843
H   H2        1.0  0.90370  0.56470  0.59300  1.0000 0.119577843
H   H3        1.0  0.40740  0.20040  0.85010  1.0000 0.1298745592
H   H4        1.0  0.79960  0.59260  0.35010  1.0000 0.1298745592
H   H5        1.0  0.31480  0.02040  0.64380  1.0000 0.119577843
H   H6        1.0  0.97960  0.68520  0.14380  1.0000 0.119577843
H   H7        1.0  0.33690  0.91990  0.87850  1.0000 0.1126730648
H   H8        1.0  0.08010  0.66310  0.37850  1.0000 0.1126730648
H   H9        1.0  0.32190  0.16230  0.47570  1.0000 0.119577843
H   H10       1.0  0.83770  0.67810  0.97570  1.0000 0.119577843
H   H11       1.0  0.33960  0.31640  0.62280  1.0000 0.1298745592
H   H12       1.0  0.68360  0.66040  0.12280  1.0000 0.1298745592
H   H13       1.0  0.27960  0.26140  0.24830  1.0000 0.1383317132
H   H14       1.0  0.73860  0.72040  0.74830  1.0000 0.1383317132
H   H15       1.0  0.24390  0.37330  0.00150  1.0000 0.119577843
H   H16       1.0  0.62670  0.75610  0.50150  1.0000 0.119577843
H   H17       1.0  0.30820  0.56600  0.20870  1.0000 0.1126730648
H   H18       1.0  0.43400  0.69180  0.70870  1.0000 0.1126730648
H   H19       1.0  0.33050  0.47370  0.45240  1.0000 0.1490198169
H   H20       1.0  0.52630  0.66950  0.95240  1.0000 0.1490198169
H   H21       1.0  0.78600  0.43540  0.23980  1.0000 0.1126730648
H   H22       1.0  0.56460  0.21400  0.73980  1.0000 0.1126730648
H   H23       1.0  0.89830  0.26130  0.14970  1.0000 0.119577843
H   H24       1.0  0.73870  0.10170  0.64970  1.0000 0.119577843
H   H25       1.0  0.64080  0.22040  0.14500  1.0000 0.119577843
H   H26       1.0  0.77960  0.35920  0.64500  1.0000 0.119577843
H   H27       1.0  0.53060  0.39200  0.24570  1.0000 0.119577843
H   H28       1.0  0.60800  0.46940  0.74570  1.0000 0.119577843
H   H29       1.0  0.81180  0.08200  0.05100  1.0000 0.119577843
H   H30       1.0  0.91800  0.18820  0.55100  1.0000 0.119577843
H   H31       1.0  0.00060  0.09440  0.08260  1.0000 0.119577843
H   H32       1.0  0.90560  0.99940  0.58260  1.0000 0.119577843
H   H33       1.0  0.18550  0.92550  0.05710  1.0000 0.1383317132
H   H34       1.0  0.07450  0.81450  0.55710  1.0000 0.1383317132
H   H35       1.0  0.29670  0.74890  0.96750  1.0000 0.1126730648
H   H36       1.0  0.25110  0.70330  0.46750  1.0000 0.1126730648
H   H37       1.0  0.01170  0.75910  0.85830  1.0000 0.1126730648
H   H38       1.0  0.24090  0.98830  0.35830  1.0000 0.1126730648
H   H39       1.0  0.90130  0.93050  0.93550  1.0000 0.1298745592
H   H40       1.0  0.06950  0.09870  0.43550  1.0000 0.1298745592
C   C1        1.0  0.41630  0.92050  0.16500  1.0000 0.536022814
C   C2        1.0  0.07950  0.58370  0.66500  1.0000 0.536022814
C   C3        1.0  0.39210  0.99310  0.01680  1.0000 -0.0682073663
C   C4        1.0  0.00690  0.60790  0.51680  1.0000 -0.0682073663
C   C5        1.0  0.41060  0.08020  0.00240  1.0000 -0.0895558725
C   C6        1.0  0.91980  0.58940  0.50240  1.0000 -0.0895558725
C   C7        1.0  0.39310  0.14330  0.85640  1.0000 -0.1405593329
C   C8        1.0  0.85670  0.60690  0.35640  1.0000 -0.1515652041
C   C9        1.0  0.35490  0.12330  0.71980  1.0000 0.119577843
C   C10       1.0  0.87670  0.64510  0.21980  1.0000 0.119577843
C   C11       1.0  0.33800  0.03720  0.73490  1.0000 -0.1405593329
C   C12       1.0  0.96280  0.66200  0.23490  1.0000 -0.1405593329
C   C13       1.0  0.35280  0.97560  0.87500  1.0000 -0.0976189877
C   C14       1.0  0.02440  0.64720  0.37500  1.0000 -0.0976189877
C   C15       1.0  0.33300  0.19020  0.56270  1.0000 -0.1232504527
C   C16       1.0  0.80980  0.66700  0.06270  1.0000 -0.1232504527
C   C17       1.0  0.32760  0.28860  0.53590  1.0000 -0.1405593329
C   C18       1.0  0.71140  0.67240  0.03590  1.0000 -0.1405593329
C   C19       1.0  0.30390  0.35630  0.37680  1.0000 0.1614530106
C   C20       1.0  0.64370  0.69610  0.87680  1.0000 0.1614530106
C   C21       1.0  0.28180  0.32660  0.24260  1.0000 -0.1915204953
C   C22       1.0  0.67340  0.71820  0.74260  1.0000 -0.1915204953
C   C23       1.0  0.26180  0.39340  0.09300  1.0000 0.091695862
C   C24       1.0  0.60660  0.73820  0.59300  1.0000 0.091695862
C   C25       1.0  0.29740  0.50640  0.21570  1.0000 0.0769530927
C   C26       1.0  0.49360  0.70260  0.71570  1.0000 0.0769530927
C   C27       1.0  0.31360  0.45060  0.36360  1.0000 -0.1915204953
C   C28       1.0  0.54940  0.68640  0.86360  1.0000 -0.1915204953
C   C29       1.0  0.57910  0.54210  0.30170  1.0000 0.536022814
C   C30       1.0  0.45790  0.42090  0.80170  1.0000 0.536022814
C   C31       1.0  0.64320  0.43220  0.24370  1.0000 -0.0484815146
C   C32       1.0  0.56780  0.35680  0.74370  1.0000 -0.0484815146
C   C33       1.0  0.75640  0.39260  0.21980  1.0000 -0.108417822
C   C34       1.0  0.60740  0.24360  0.71980  1.0000 -0.108417822
C   C35       1.0  0.82300  0.28840  0.16570  1.0000 -0.1515652041
C   C36       1.0  0.71160  0.17700  0.66570  1.0000 -0.1515652041
C   C37       1.0  0.78080  0.22380  0.13520  1.0000 0.1126730648
C   C38       1.0  0.77620  0.21920  0.63520  1.0000 0.1126730648
C   C39       1.0  0.67070  0.26310  0.16400  1.0000 -0.1515652041
C   C40       1.0  0.73690  0.32930  0.66400  1.0000 -0.1515652041
C   C41       1.0  0.60340  0.36780  0.22220  1.0000 -0.0832353811
C   C42       1.0  0.63220  0.39660  0.72220  1.0000 -0.0832353811
C   C43       1.0  0.84940  0.11640  0.07800  1.0000 -0.1405593329
C   C44       1.0  0.88360  0.15060  0.57800  1.0000 -0.1405593329
C   C45       1.0  0.96270  0.05970  0.05880  1.0000 -0.1629191767
C   C46       1.0  0.94030  0.03730  0.55880  1.0000 -0.1629191767
C   C47       1.0  0.02930  0.95010  0.00470  1.0000 0.1490198169
C   C48       1.0  0.04990  0.97070  0.50470  1.0000 0.1490198169
C   C49       1.0  0.14890  0.89310  0.01640  1.0000 -0.1915204953
C   C50       1.0  0.10690  0.85110  0.51640  1.0000 -0.1915204953
C   C51       1.0  0.21650  0.78410  0.96600  1.0000 0.0719577093
C   C52       1.0  0.21590  0.78350  0.46600  1.0000 0.0719577093
C   C53       1.0  0.04880  0.79060  0.90080  1.0000 0.0482140147
C   C54       1.0  0.20940  0.95120  0.40080  1.0000 0.0482140147
C   C55       1.0  0.98240  0.89400  0.94490  1.0000 -0.1915204953
C   C56       1.0  0.10600  0.01760  0.44490  1.0000 -0.1915204953
N   N1        1.0  0.26840  0.48640  0.08140  1.0000 -0.2391752283
N   N2        1.0  0.51360  0.73160  0.58140  1.0000 -0.2391752283
N   N3        1.0  0.16900  0.72880  0.91540  1.0000 -0.2631189208
N   N4        1.0  0.27120  0.83100  0.41540  1.0000 -0.2631189208
O   O1        1.0  0.39680  0.84300  0.16310  1.0000 -0.5483059268
O   O2        1.0  0.15700  0.60320  0.66310  1.0000 -0.5483059268
O   O3        1.0  0.44580  0.94220  0.28860  1.0000 -0.5589778404
O   O4        1.0  0.05780  0.55420  0.78860  1.0000 -0.5589778404
O   O5        1.0  0.46720  0.59000  0.31650  1.0000 -0.5685602407
O   O6        1.0  0.41000  0.53280  0.81650  1.0000 -0.5685602407
O   O7        1.0  0.61780  0.59920  0.33070  1.0000 -0.5071148853
O   O8        1.0  0.40080  0.38220  0.83070  1.0000 -0.5071148853
