# DDEC6 charges by PACMAN v1.1 (https://github.com/mtap-research/PACMAN-charge/)
data_2011[Al][bpq]3[FSR]1
_chemical_formula_sum              "Al4 H20 C32 O20"
_cell_length_a       6.6018
_cell_length_b       15.954
_cell_length_c       15.2023
_cell_angle_alpha    90
_cell_angle_beta     114.027
_cell_angle_gamma    90

_symmetry_space_group_name_H-M    "P 1"
_symmetry_Int_Tables_number       1

loop_
  _symmetry_equiv_pos_as_xyz
  'x, y, z'

loop_
  _atom_site_type_symbol
  _atom_site_label
  _atom_site_symmetry_multiplicity
  _atom_site_fract_x
  _atom_site_fract_y
  _atom_site_fract_z
  _atom_site_occupancy
  _atom_site_charge
Al  Al1       1.0  0.00000  0.00000  0.00000  1.0000 1.6101298019
Al  Al2       1.0  1.00000  0.50000  0.50000  1.0000 1.6101298019
Al  Al3       1.0  0.50000  0.00000  0.00000  1.0000 1.6380171463
Al  Al4       1.0  0.50000  0.50000  0.50000  1.0000 1.6380171463
H   H1        1.0  0.35296  0.98040  0.11483  1.0000 0.4248517439
H   H2        1.0  0.64704  0.48040  0.38517  1.0000 0.4253456876
H   H3        1.0  0.64704  0.01960  0.88517  1.0000 0.4253456876
H   H4        1.0  0.35296  0.51960  0.61483  1.0000 0.4253456876
H   H5        1.0  0.27256  0.69077  0.70477  1.0000 0.1198728666
H   H6        1.0  0.72744  0.19077  0.79523  1.0000 0.1198728666
H   H7        1.0  0.72744  0.30923  0.29523  1.0000 0.1198728666
H   H8        1.0  0.27256  0.80923  0.20477  1.0000 0.1198728666
H   H9        1.0  0.37012  0.80503  0.80747  1.0000 0.1198728666
H   H10       1.0  0.62988  0.30503  0.69253  1.0000 0.1198728666
H   H11       1.0  0.62988  0.19497  0.19253  1.0000 0.1198728666
H   H12       1.0  0.37012  0.69497  0.30747  1.0000 0.1198728666
H   H13       1.0  0.66729  0.69190  0.70481  1.0000 0.1198728666
H   H14       1.0  0.33271  0.19190  0.79519  1.0000 0.1198728666
H   H15       1.0  0.33271  0.30810  0.29519  1.0000 0.1198728666
H   H16       1.0  0.66729  0.80810  0.20481  1.0000 0.1198728666
H   H17       1.0  0.76455  0.80616  0.80752  1.0000 0.1198728666
H   H18       1.0  0.23545  0.30616  0.69248  1.0000 0.1198728666
H   H19       1.0  0.23545  0.19384  0.19248  1.0000 0.1198728666
H   H20       1.0  0.76455  0.69384  0.30752  1.0000 0.1198728666
C   C1        1.0  0.89307  0.61000  0.62377  1.0000 0.6331455618
C   C2        1.0  0.10693  0.11000  0.87623  1.0000 0.6331455618
C   C3        1.0  0.10693  0.39000  0.37623  1.0000 0.6331455618
C   C4        1.0  0.89307  0.89000  0.12377  1.0000 0.6331455618
C   C5        1.0  0.95887  0.68157  0.69305  1.0000 -0.0394889755
C   C6        1.0  0.04113  0.18157  0.80695  1.0000 -0.0394889755
C   C7        1.0  0.04113  0.31843  0.30695  1.0000 -0.0394889755
C   C8        1.0  0.95887  0.81843  0.19305  1.0000 -0.0394889755
C   C9        1.0  0.16982  0.71437  0.72488  1.0000 -0.0973224943
C   C10       1.0  0.83018  0.21437  0.77512  1.0000 -0.0973224943
C   C11       1.0  0.83018  0.28563  0.27512  1.0000 -0.0973224943
C   C12       1.0  0.16982  0.78563  0.22488  1.0000 -0.0973224943
C   C13       1.0  0.13644  0.89287  0.88031  1.0000 0.6331455618
C   C14       1.0  0.86356  0.39287  0.61969  1.0000 0.6331455618
C   C15       1.0  0.86356  0.10713  0.11969  1.0000 0.6331455618
C   C16       1.0  0.13644  0.60713  0.38031  1.0000 0.6331455618
C   C17       1.0  0.07725  0.81668  0.81794  1.0000 -0.0394889755
C   C18       1.0  0.92275  0.31668  0.68206  1.0000 -0.0394889755
C   C19       1.0  0.92275  0.18332  0.18206  1.0000 -0.0394889755
C   C20       1.0  0.07725  0.68332  0.31794  1.0000 -0.0394889755
C   C21       1.0  0.22874  0.78237  0.78682  1.0000 -0.0973224943
C   C22       1.0  0.77126  0.28237  0.71318  1.0000 -0.0973224943
C   C23       1.0  0.77126  0.21763  0.21318  1.0000 -0.0973224943
C   C24       1.0  0.22874  0.71763  0.28682  1.0000 -0.0973224943
C   C25       1.0  0.80810  0.71506  0.72489  1.0000 -0.0973224943
C   C26       1.0  0.19190  0.21506  0.77511  1.0000 -0.0973224943
C   C27       1.0  0.19190  0.28494  0.27511  1.0000 -0.0973224943
C   C28       1.0  0.80810  0.78494  0.22489  1.0000 -0.0973224943
C   C29       1.0  0.86671  0.78306  0.78683  1.0000 -0.0973224943
C   C30       1.0  0.13329  0.28306  0.71317  1.0000 -0.0973224943
C   C31       1.0  0.13329  0.21694  0.21317  1.0000 -0.0973224943
C   C32       1.0  0.86671  0.71694  0.28683  1.0000 -0.0973224943
O   O1        1.0  0.30169  0.99311  0.05811  1.0000 -0.9652149394
O   O2        1.0  0.69831  0.49311  0.44189  1.0000 -0.9652149394
O   O3        1.0  0.69831  0.00689  0.94189  1.0000 -0.9652149394
O   O4        1.0  0.30169  0.50689  0.55811  1.0000 -0.9652149394
O   O5        1.0  0.98962  0.92261  0.90399  1.0000 -0.5888218597
O   O6        1.0  0.01038  0.42261  0.59601  1.0000 -0.5888218597
O   O7        1.0  0.01038  0.07739  0.09601  1.0000 -0.5888218597
O   O8        1.0  0.98962  0.57739  0.40399  1.0000 -0.5888218597
O   O9        1.0  0.69946  0.58183  0.59825  1.0000 -0.5888218597
O   O10       1.0  0.30054  0.08183  0.90175  1.0000 -0.5888218597
O   O11       1.0  0.30054  0.41817  0.40175  1.0000 -0.5888218597
O   O12       1.0  0.69946  0.91817  0.09825  1.0000 -0.5888218597
O   O13       1.0  0.33026  0.92074  0.90604  1.0000 -0.5888218597
O   O14       1.0  0.66974  0.42074  0.59396  1.0000 -0.5888218597
O   O15       1.0  0.66974  0.07926  0.09396  1.0000 -0.5888218597
O   O16       1.0  0.33026  0.57926  0.40604  1.0000 -0.5888218597
O   O17       1.0  0.03645  0.58270  0.59620  1.0000 -0.5951298192
O   O18       1.0  0.96355  0.08270  0.90380  1.0000 -0.5951298192
O   O19       1.0  0.96355  0.41730  0.40380  1.0000 -0.5951298192
O   O20       1.0  0.03645  0.91730  0.09620  1.0000 -0.5951298192
