# DDEC6 charges by PACMAN v1.1 (https://github.com/mtap-research/PACMAN-charge/)
data_2011[Zn][hms]3[FSR]1
_chemical_formula_sum              "Zn8 H80 C88 N24 O48"
_cell_length_a       12.562
_cell_length_b       12.562
_cell_length_c       26.4917
_cell_angle_alpha    73.3737
_cell_angle_beta     106.626
_cell_angle_gamma    118.359

_symmetry_space_group_name_H-M    "P 1"
_symmetry_Int_Tables_number       1

loop_
  _symmetry_equiv_pos_as_xyz
  'x, y, z'

loop_
  _atom_site_type_symbol
  _atom_site_label
  _atom_site_symmetry_multiplicity
  _atom_site_fract_x
  _atom_site_fract_y
  _atom_site_fract_z
  _atom_site_occupancy
  _atom_site_charge
Zn  Zn1       1.0  0.94631  0.67891  0.05008  1.0000 0.853049531
Zn  Zn2       1.0  0.36599  0.99425  0.68863  1.0000 0.8285156184
Zn  Zn3       1.0  0.32109  0.05369  0.55008  1.0000 0.853049531
Zn  Zn4       1.0  0.00575  0.63401  0.18863  1.0000 0.8285156184
Zn  Zn5       1.0  0.67891  0.94631  0.44992  1.0000 0.853049531
Zn  Zn6       1.0  0.99425  0.36599  0.81137  1.0000 0.8285156184
Zn  Zn7       1.0  0.05369  0.32109  0.94992  1.0000 0.853049531
Zn  Zn8       1.0  0.63401  0.00575  0.31137  1.0000 0.8285156184
H   H1        1.0  0.19960  0.65960  0.93650  1.0000 0.1399998705
H   H2        1.0  0.09840  0.59960  0.00640  1.0000 0.1077710504
H   H3        1.0  0.64670  0.37450  0.70090  1.0000 0.0900916824
H   H4        1.0  0.52980  0.37700  0.71000  1.0000 0.1077710504
H   H5        1.0  0.00850  0.84690  0.69820  1.0000 0.0970878272
H   H6        1.0  0.00140  0.73020  0.68420  1.0000 0.0970878272
H   H7        1.0  0.95670  0.91990  0.60680  1.0000 0.1399998705
H   H8        1.0  0.94620  0.80220  0.59240  1.0000 0.1485963234
H   H9        1.0  0.06580  0.90700  0.97130  1.0000 0.1173841351
H   H10       1.0  0.16550  0.97530  0.90000  1.0000 0.1399998705
H   H11       1.0  0.57880  0.41020  0.60760  1.0000 0.1399998705
H   H12       1.0  0.46080  0.40860  0.61750  1.0000 0.1485963234
H   H13       1.0  0.24140  0.76220  0.75990  1.0000 0.1173841351
H   H14       1.0  0.49550  0.79190  0.61160  1.0000 0.1485963234
H   H15       1.0  0.61720  0.91360  0.61480  1.0000 0.1329971546
H   H16       1.0  0.16620  0.69540  0.83810  1.0000 0.1485963234
H   H17       1.0  0.52540  0.74680  0.70630  1.0000 0.0900916824
H   H18       1.0  0.65020  0.86560  0.70820  1.0000 0.0900916824
H   H19       1.0  0.34990  0.04110  0.86570  1.0000 0.1329971546
H   H20       1.0  0.42260  0.09940  0.78700  1.0000 0.1329971546
H   H21       1.0  0.34040  0.80040  0.43650  1.0000 0.1399998705
H   H22       1.0  0.40040  0.90160  0.50640  1.0000 0.1077710504
H   H23       1.0  0.62550  0.35330  0.20090  1.0000 0.0900916824
H   H24       1.0  0.62300  0.47020  0.21000  1.0000 0.1077710504
H   H25       1.0  0.15310  0.99150  0.19820  1.0000 0.0970878272
H   H26       1.0  0.26980  0.99860  0.18420  1.0000 0.0970878272
H   H27       1.0  0.08010  0.04330  0.10680  1.0000 0.1399998705
H   H28       1.0  0.19780  0.05380  0.09240  1.0000 0.1485963234
H   H29       1.0  0.09300  0.93420  0.47130  1.0000 0.1173841351
H   H30       1.0  0.02470  0.83450  0.40000  1.0000 0.1399998705
H   H31       1.0  0.58980  0.42120  0.10760  1.0000 0.1399998705
H   H32       1.0  0.59140  0.53920  0.11750  1.0000 0.1485963234
H   H33       1.0  0.23780  0.75860  0.25990  1.0000 0.1173841351
H   H34       1.0  0.20810  0.50450  0.11160  1.0000 0.1485963234
H   H35       1.0  0.08640  0.38280  0.11480  1.0000 0.1329971546
H   H36       1.0  0.30460  0.83380  0.33810  1.0000 0.1485963234
H   H37       1.0  0.25320  0.47460  0.20630  1.0000 0.0900916824
H   H38       1.0  0.13440  0.34980  0.20820  1.0000 0.0900916824
H   H39       1.0  0.95890  0.65010  0.36570  1.0000 0.1329971546
H   H40       1.0  0.90060  0.57740  0.28700  1.0000 0.1329971546
H   H41       1.0  0.65960  0.19960  0.56350  1.0000 0.1399998705
H   H42       1.0  0.59960  0.09840  0.49360  1.0000 0.1077710504
H   H43       1.0  0.37450  0.64670  0.79910  1.0000 0.0900916824
H   H44       1.0  0.37700  0.52980  0.79000  1.0000 0.1077710504
H   H45       1.0  0.84690  0.00850  0.80180  1.0000 0.0970878272
H   H46       1.0  0.73020  0.00140  0.81580  1.0000 0.0970878272
H   H47       1.0  0.91990  0.95670  0.89320  1.0000 0.1399998705
H   H48       1.0  0.80220  0.94620  0.90760  1.0000 0.1485963234
H   H49       1.0  0.90700  0.06580  0.52870  1.0000 0.1173841351
H   H50       1.0  0.97530  0.16550  0.60000  1.0000 0.1399998705
H   H51       1.0  0.41020  0.57880  0.89240  1.0000 0.1399998705
H   H52       1.0  0.40860  0.46080  0.88250  1.0000 0.1485963234
H   H53       1.0  0.76220  0.24140  0.74010  1.0000 0.1173841351
H   H54       1.0  0.79190  0.49550  0.88840  1.0000 0.1485963234
H   H55       1.0  0.91360  0.61720  0.88520  1.0000 0.1329971546
H   H56       1.0  0.69540  0.16620  0.66190  1.0000 0.1485963234
H   H57       1.0  0.74680  0.52540  0.79370  1.0000 0.0900916824
H   H58       1.0  0.86560  0.65020  0.79180  1.0000 0.0900916824
H   H59       1.0  0.04110  0.34990  0.63430  1.0000 0.1329971546
H   H60       1.0  0.09940  0.42260  0.71300  1.0000 0.1329971546
H   H61       1.0  0.80040  0.34040  0.06350  1.0000 0.1399998705
H   H62       1.0  0.90160  0.40040  0.99360  1.0000 0.1077710504
H   H63       1.0  0.35330  0.62550  0.29910  1.0000 0.0900916824
H   H64       1.0  0.47020  0.62300  0.29000  1.0000 0.1077710504
H   H65       1.0  0.99150  0.15310  0.30180  1.0000 0.0970878272
H   H66       1.0  0.99860  0.26980  0.31580  1.0000 0.0970878272
H   H67       1.0  0.04330  0.08010  0.39320  1.0000 0.1399998705
H   H68       1.0  0.05380  0.19780  0.40760  1.0000 0.1485963234
H   H69       1.0  0.93420  0.09300  0.02870  1.0000 0.1173841351
H   H70       1.0  0.83450  0.02470  0.10000  1.0000 0.1399998705
H   H71       1.0  0.42120  0.58980  0.39240  1.0000 0.1399998705
H   H72       1.0  0.53920  0.59140  0.38250  1.0000 0.1485963234
H   H73       1.0  0.75860  0.23780  0.24010  1.0000 0.1173841351
H   H74       1.0  0.50450  0.20810  0.38840  1.0000 0.1485963234
H   H75       1.0  0.38280  0.08640  0.38520  1.0000 0.1329971546
H   H76       1.0  0.83380  0.30460  0.16190  1.0000 0.1485963234
H   H77       1.0  0.47460  0.25320  0.29370  1.0000 0.0900916824
H   H78       1.0  0.34980  0.13440  0.29180  1.0000 0.0900916824
H   H79       1.0  0.65010  0.95890  0.13430  1.0000 0.1329971546
H   H80       1.0  0.57740  0.90060  0.21300  1.0000 0.1329971546
C   C1        1.0  0.24630  0.86150  0.86017  1.0000 0.1173841351
C   C2        1.0  0.17160  0.71100  0.94229  1.0000 -0.1719959235
C   C3        1.0  0.47690  0.92270  0.63459  1.0000 0.6504768425
C   C4        1.0  0.19100  0.82280  0.90872  1.0000 0.1077710504
C   C5        1.0  0.11080  0.67540  0.98437  1.0000 0.1077710504
C   C6        1.0  0.45500  0.23720  0.63363  1.0000 0.6599124962
C   C7        1.0  0.12450  0.92230  0.61450  1.0000 0.6599124962
C   C8        1.0  0.58810  0.41010  0.68599  1.0000 -0.0307304725
C   C9        1.0  0.96700  0.78960  0.67330  1.0000 -0.0238461594
C   C10       1.0  0.98950  0.85910  0.61730  1.0000 -0.339715541
C   C11       1.0  0.09160  0.85600  0.96360  1.0000 0.0970878272
C   C12       1.0  0.15170  0.89790  0.92070  1.0000 -0.1719959235
C   C13       1.0  0.52040  0.37440  0.63180  1.0000 -0.339715541
C   C14       1.0  0.26250  0.81910  0.78120  1.0000 0.1077710504
C   C15       1.0  0.58840  0.60560  0.68429  1.0000 0.5389443332
C   C16       1.0  0.77940  0.79480  0.68016  1.0000 0.5389443332
C   C17       1.0  0.54790  0.85650  0.63253  1.0000 -0.3590940541
C   C18       1.0  0.21660  0.77820  0.82810  1.0000 -0.1645688048
C   C19       1.0  0.59420  0.80060  0.68780  1.0000 -0.0307304725
C   C20       1.0  0.77390  0.60070  0.67373  1.0000 0.5389443332
C   C21       1.0  0.32590  0.98330  0.84440  1.0000 -0.1818114338
C   C22       1.0  0.36900  0.01780  0.79720  1.0000 0.0805568056
C   C23       1.0  0.13850  0.75370  0.36017  1.0000 0.1173841351
C   C24       1.0  0.28900  0.82840  0.44229  1.0000 -0.1719959235
C   C25       1.0  0.07730  0.52310  0.13459  1.0000 0.6504768425
C   C26       1.0  0.17720  0.80900  0.40872  1.0000 0.1077710504
C   C27       1.0  0.32460  0.88920  0.48437  1.0000 0.1077710504
C   C28       1.0  0.76280  0.54500  0.13363  1.0000 0.6599124962
C   C29       1.0  0.07770  0.87550  0.11450  1.0000 0.6599124962
C   C30       1.0  0.58990  0.41190  0.18599  1.0000 -0.0307304725
C   C31       1.0  0.21040  0.03300  0.17330  1.0000 -0.0238461594
C   C32       1.0  0.14090  0.01050  0.11730  1.0000 -0.339715541
C   C33       1.0  0.14400  0.90840  0.46360  1.0000 0.0970878272
C   C34       1.0  0.10210  0.84830  0.42070  1.0000 -0.1719959235
C   C35       1.0  0.62560  0.47960  0.13180  1.0000 -0.339715541
C   C36       1.0  0.18090  0.73750  0.28120  1.0000 0.1077710504
C   C37       1.0  0.39440  0.41160  0.18429  1.0000 0.5389443332
C   C38       1.0  0.20520  0.22060  0.18016  1.0000 0.5389443332
C   C39       1.0  0.14350  0.45210  0.13253  1.0000 -0.3590940541
C   C40       1.0  0.22180  0.78340  0.32810  1.0000 -0.1645688048
C   C41       1.0  0.19940  0.40580  0.18780  1.0000 -0.0307304725
C   C42       1.0  0.39930  0.22610  0.17373  1.0000 0.5389443332
C   C43       1.0  0.01670  0.67410  0.34440  1.0000 -0.1818114338
C   C44       1.0  0.98220  0.63100  0.29720  1.0000 0.0805568056
C   C45       1.0  0.86150  0.24630  0.63983  1.0000 0.1173841351
C   C46       1.0  0.71100  0.17160  0.55771  1.0000 -0.1719959235
C   C47       1.0  0.92270  0.47690  0.86541  1.0000 0.6504768425
C   C48       1.0  0.82280  0.19100  0.59128  1.0000 0.1077710504
C   C49       1.0  0.67540  0.11080  0.51563  1.0000 0.1077710504
C   C50       1.0  0.23720  0.45500  0.86637  1.0000 0.6599124962
C   C51       1.0  0.92230  0.12450  0.88550  1.0000 0.6599124962
C   C52       1.0  0.41010  0.58810  0.81401  1.0000 -0.0307304725
C   C53       1.0  0.78960  0.96700  0.82670  1.0000 -0.0238461594
C   C54       1.0  0.85910  0.98950  0.88270  1.0000 -0.339715541
C   C55       1.0  0.85600  0.09160  0.53640  1.0000 0.0970878272
C   C56       1.0  0.89790  0.15170  0.57930  1.0000 -0.1719959235
C   C57       1.0  0.37440  0.52040  0.86820  1.0000 -0.339715541
C   C58       1.0  0.81910  0.26250  0.71880  1.0000 0.1077710504
C   C59       1.0  0.60560  0.58840  0.81571  1.0000 0.5389443332
C   C60       1.0  0.79480  0.77940  0.81984  1.0000 0.5389443332
C   C61       1.0  0.85650  0.54790  0.86747  1.0000 -0.3590940541
C   C62       1.0  0.77820  0.21660  0.67190  1.0000 -0.1645688048
C   C63       1.0  0.80060  0.59420  0.81220  1.0000 -0.0307304725
C   C64       1.0  0.60070  0.77390  0.82627  1.0000 0.5389443332
C   C65       1.0  0.98330  0.32590  0.65560  1.0000 -0.1818114338
C   C66       1.0  0.01780  0.36900  0.70280  1.0000 0.0805568056
C   C67       1.0  0.75370  0.13850  0.13983  1.0000 0.1173841351
C   C68       1.0  0.82840  0.28900  0.05771  1.0000 -0.1719959235
C   C69       1.0  0.52310  0.07730  0.36541  1.0000 0.6504768425
C   C70       1.0  0.80900  0.17720  0.09128  1.0000 0.1077710504
C   C71       1.0  0.88920  0.32460  0.01563  1.0000 0.1077710504
C   C72       1.0  0.54500  0.76280  0.36637  1.0000 0.6599124962
C   C73       1.0  0.87550  0.07770  0.38550  1.0000 0.6599124962
C   C74       1.0  0.41190  0.58990  0.31401  1.0000 -0.0307304725
C   C75       1.0  0.03300  0.21040  0.32670  1.0000 -0.0238461594
C   C76       1.0  0.01050  0.14090  0.38270  1.0000 -0.339715541
C   C77       1.0  0.90840  0.14400  0.03640  1.0000 0.0970878272
C   C78       1.0  0.84830  0.10210  0.07930  1.0000 -0.1719959235
C   C79       1.0  0.47960  0.62560  0.36820  1.0000 -0.339715541
C   C80       1.0  0.73750  0.18090  0.21880  1.0000 0.1077710504
C   C81       1.0  0.41160  0.39440  0.31571  1.0000 0.5389443332
C   C82       1.0  0.22060  0.20520  0.31984  1.0000 0.5389443332
C   C83       1.0  0.45210  0.14350  0.36747  1.0000 -0.3590940541
C   C84       1.0  0.78340  0.22180  0.17190  1.0000 -0.1645688048
C   C85       1.0  0.40580  0.19940  0.31220  1.0000 -0.0307304725
C   C86       1.0  0.22610  0.39930  0.32627  1.0000 0.5389443332
C   C87       1.0  0.67410  0.01670  0.15560  1.0000 -0.1818114338
C   C88       1.0  0.63100  0.98220  0.20280  1.0000 0.0805568056
N   N1        1.0  0.33550  0.93610  0.76508  1.0000 -0.2242020971
N   N2        1.0  0.06910  0.74570  0.99468  1.0000 -0.2290508604
N   N3        1.0  0.65339  0.54361  0.68218  1.0000 -0.2436649321
N   N4        1.0  0.83460  0.72540  0.67572  1.0000 -0.2516609306
N   N5        1.0  0.65730  0.73050  0.68522  1.0000 -0.2516609306
N   N6        1.0  0.76660  0.62340  0.96745  1.0000 0.6999667281
N   N7        1.0  0.06390  0.66450  0.26508  1.0000 -0.2242020971
N   N8        1.0  0.25430  0.93090  0.49468  1.0000 -0.2290508604
N   N9        1.0  0.45639  0.34661  0.18218  1.0000 -0.2436649321
N   N10       1.0  0.27460  0.16540  0.17572  1.0000 -0.2516609306
N   N11       1.0  0.26950  0.34270  0.18522  1.0000 -0.2516609306
N   N12       1.0  0.37660  0.23340  0.46745  1.0000 0.6999667281
N   N13       1.0  0.93610  0.33550  0.73492  1.0000 -0.2242020971
N   N14       1.0  0.74570  0.06910  0.50532  1.0000 -0.2290508604
N   N15       1.0  0.54361  0.65339  0.81782  1.0000 -0.2436649321
N   N16       1.0  0.72540  0.83460  0.82428  1.0000 -0.2516609306
N   N17       1.0  0.73050  0.65730  0.81478  1.0000 -0.2516609306
N   N18       1.0  0.62340  0.76660  0.53255  1.0000 0.6999667281
N   N19       1.0  0.66450  0.06390  0.23492  1.0000 -0.2242020971
N   N20       1.0  0.93090  0.25430  0.00532  1.0000 -0.2290508604
N   N21       1.0  0.34661  0.45639  0.31782  1.0000 -0.2436649321
N   N22       1.0  0.16540  0.27460  0.32428  1.0000 -0.2516609306
N   N23       1.0  0.34270  0.26950  0.31478  1.0000 -0.2516609306
N   N24       1.0  0.23340  0.37660  0.03255  1.0000 0.6999667281
O   O1        1.0  0.43380  0.97260  0.59119  1.0000 -0.5842928594
O   O2        1.0  0.15523  0.97797  0.57034  1.0000 -0.5450675792
O   O3        1.0  0.45260  0.17040  0.67933  1.0000 -0.5692776894
O   O4        1.0  0.40780  0.20040  0.59034  1.0000 -0.5572875446
O   O5        1.0  0.48016  0.55404  0.68668  1.0000 -0.4633842862
O   O6        1.0  0.81720  0.72580  0.98267  1.0000 -0.4274485415
O   O7        1.0  0.46709  0.92571  0.67985  1.0000 -0.5434067673
O   O8        1.0  0.82250  0.54550  0.66667  1.0000 -0.4709675765
O   O9        1.0  0.83460  0.90360  0.67969  1.0000 -0.4633842862
O   O10       1.0  0.19680  0.91500  0.65765  1.0000 -0.5692776894
O   O11       1.0  0.67960  0.59960  0.93003  1.0000 -0.39872893
O   O12       1.0  0.81103  0.54637  0.99246  1.0000 -0.4485933191
O   O13       1.0  0.02740  0.56620  0.09119  1.0000 -0.5842928594
O   O14       1.0  0.02203  0.84477  0.07034  1.0000 -0.5450675792
O   O15       1.0  0.82960  0.54740  0.17933  1.0000 -0.5692776894
O   O16       1.0  0.79960  0.59220  0.09034  1.0000 -0.5572875446
O   O17       1.0  0.44596  0.51984  0.18668  1.0000 -0.4633842862
O   O18       1.0  0.27420  0.18280  0.48267  1.0000 -0.4274485415
O   O19       1.0  0.07429  0.53291  0.17985  1.0000 -0.5434067673
O   O20       1.0  0.45450  0.17750  0.16671  1.0000 -0.4709675765
O   O21       1.0  0.09640  0.16540  0.17969  1.0000 -0.4633842862
O   O22       1.0  0.08500  0.80320  0.15765  1.0000 -0.5692776894
O   O23       1.0  0.40040  0.32040  0.43003  1.0000 -0.39872893
O   O24       1.0  0.45363  0.18897  0.49246  1.0000 -0.4485933191
O   O25       1.0  0.97260  0.43380  0.90881  1.0000 -0.5842928594
O   O26       1.0  0.97797  0.15523  0.92966  1.0000 -0.5434067673
O   O27       1.0  0.17040  0.45260  0.82067  1.0000 -0.5692776894
O   O28       1.0  0.20040  0.40780  0.90966  1.0000 -0.5572875446
O   O29       1.0  0.55404  0.48016  0.81332  1.0000 -0.4633842862
O   O30       1.0  0.72580  0.81720  0.51733  1.0000 -0.4274485415
O   O31       1.0  0.92571  0.46709  0.82015  1.0000 -0.5434067673
O   O32       1.0  0.54550  0.82250  0.83329  1.0000 -0.4709675765
O   O33       1.0  0.90360  0.83460  0.82031  1.0000 -0.4633842862
O   O34       1.0  0.91500  0.19680  0.84235  1.0000 -0.5692776894
O   O35       1.0  0.59960  0.67960  0.56997  1.0000 -0.39872893
O   O36       1.0  0.54637  0.81103  0.50754  1.0000 -0.4485933191
O   O37       1.0  0.56620  0.02740  0.40881  1.0000 -0.5842928594
O   O38       1.0  0.84477  0.02203  0.42966  1.0000 -0.5450675792
O   O39       1.0  0.54740  0.82960  0.32067  1.0000 -0.5692776894
O   O40       1.0  0.59220  0.79960  0.40966  1.0000 -0.5572875446
O   O41       1.0  0.51984  0.44596  0.31332  1.0000 -0.4633842862
O   O42       1.0  0.18280  0.27420  0.01733  1.0000 -0.4274485415
O   O43       1.0  0.53291  0.07429  0.32015  1.0000 -0.5434067673
O   O44       1.0  0.17750  0.45450  0.33329  1.0000 -0.4709675765
O   O45       1.0  0.16540  0.09640  0.32031  1.0000 -0.4633842862
O   O46       1.0  0.80320  0.08500  0.34235  1.0000 -0.5692776894
O   O47       1.0  0.32040  0.40040  0.06997  1.0000 -0.39872893
O   O48       1.0  0.18897  0.45363  0.00754  1.0000 -0.4485933191
