# DDEC6 charges by PACMAN v1.1 (https://github.com/mtap-research/PACMAN-charge/)
data_2011[Zn][sod]3[FSR]1
_chemical_formula_sum              "Zn6 H60 C48 N24"
_cell_length_a       14.7101
_cell_length_b       14.7101
_cell_length_c       14.7101
_cell_angle_alpha    109.471
_cell_angle_beta     109.471
_cell_angle_gamma    109.471

_symmetry_space_group_name_H-M    "P 1"
_symmetry_Int_Tables_number       1

loop_
  _symmetry_equiv_pos_as_xyz
  'x, y, z'

loop_
  _atom_site_type_symbol
  _atom_site_label
  _atom_site_symmetry_multiplicity
  _atom_site_fract_x
  _atom_site_fract_y
  _atom_site_fract_z
  _atom_site_occupancy
  _atom_site_charge
Zn  Zn1       1.0  0.75000  0.25000  0.50000  1.0000 0.6439615945
Zn  Zn2       1.0  0.25000  0.75000  0.50000  1.0000 0.6439615945
Zn  Zn3       1.0  0.25000  0.50000  0.75000  1.0000 0.6439615945
Zn  Zn4       1.0  0.75000  0.50000  0.25000  1.0000 0.6439615945
Zn  Zn5       1.0  0.50000  0.25000  0.75000  1.0000 0.6439615945
Zn  Zn6       1.0  0.50000  0.75000  0.25000  1.0000 0.6439615945
H   H1        1.0  0.67850  0.43260  0.53310  1.0000 0.1144740955
H   H2        1.0  0.32150  0.85460  0.75410  1.0000 0.1144740955
H   H3        1.0  0.89950  0.14540  0.46690  1.0000 0.1144740955
H   H4        1.0  0.10050  0.56740  0.24590  1.0000 0.1144740955
H   H5        1.0  0.56740  0.10050  0.24590  1.0000 0.1144740955
H   H6        1.0  0.14540  0.89950  0.46690  1.0000 0.1144740955
H   H7        1.0  0.85460  0.32150  0.75410  1.0000 0.1144740955
H   H8        1.0  0.43260  0.67850  0.53310  1.0000 0.1144740955
H   H9        1.0  0.43260  0.53310  0.67850  1.0000 0.1144740955
H   H10       1.0  0.85460  0.75410  0.32150  1.0000 0.1144740955
H   H11       1.0  0.56740  0.24590  0.10050  1.0000 0.1144740955
H   H12       1.0  0.14540  0.46690  0.89950  1.0000 0.1144740955
H   H13       1.0  0.46690  0.14540  0.89950  1.0000 0.1144740955
H   H14       1.0  0.53310  0.43260  0.67850  1.0000 0.1144740955
H   H15       1.0  0.24590  0.56740  0.10050  1.0000 0.1144740955
H   H16       1.0  0.75410  0.85460  0.32150  1.0000 0.1144740955
H   H17       1.0  0.53310  0.67850  0.43260  1.0000 0.1144740955
H   H18       1.0  0.75410  0.32150  0.85460  1.0000 0.1144740955
H   H19       1.0  0.24590  0.10050  0.56740  1.0000 0.1144740955
H   H20       1.0  0.46690  0.89950  0.14540  1.0000 0.1144740955
H   H21       1.0  0.67850  0.53310  0.43260  1.0000 0.1144740955
H   H22       1.0  0.32150  0.75410  0.85460  1.0000 0.1144740955
H   H23       1.0  0.89950  0.46690  0.14540  1.0000 0.1144740955
H   H24       1.0  0.10050  0.24590  0.56740  1.0000 0.1144740955
H   H25       1.0  0.83820  0.34670  0.28290  1.0000 0.1488197605
H   H26       1.0  0.16180  0.44470  0.50850  1.0000 0.1488197605
H   H27       1.0  0.06380  0.55530  0.71710  1.0000 0.1488197605
H   H28       1.0  0.93620  0.65330  0.49150  1.0000 0.1488197605
H   H29       1.0  0.65330  0.93620  0.49150  1.0000 0.1488197605
H   H30       1.0  0.55530  0.06380  0.71710  1.0000 0.1488197605
H   H31       1.0  0.44470  0.16180  0.50850  1.0000 0.1488197605
H   H32       1.0  0.34670  0.83820  0.28290  1.0000 0.1488197605
H   H33       1.0  0.34670  0.28290  0.83820  1.0000 0.1488197605
H   H34       1.0  0.44470  0.50850  0.16180  1.0000 0.1488197605
H   H35       1.0  0.65330  0.49150  0.93620  1.0000 0.1488197605
H   H36       1.0  0.55530  0.71710  0.06380  1.0000 0.1488197605
H   H37       1.0  0.71710  0.55530  0.06380  1.0000 0.1488197605
H   H38       1.0  0.28290  0.34670  0.83820  1.0000 0.1488197605
H   H39       1.0  0.49150  0.65330  0.93620  1.0000 0.1488197605
H   H40       1.0  0.50850  0.44470  0.16180  1.0000 0.1488197605
H   H41       1.0  0.28290  0.83820  0.34670  1.0000 0.1488197605
H   H42       1.0  0.50850  0.16180  0.44470  1.0000 0.1488197605
H   H43       1.0  0.49150  0.93620  0.65330  1.0000 0.1488197605
H   H44       1.0  0.71710  0.06380  0.55530  1.0000 0.1488197605
H   H45       1.0  0.83820  0.28290  0.34670  1.0000 0.1488197605
H   H46       1.0  0.16180  0.50850  0.44470  1.0000 0.1488197605
H   H47       1.0  0.06380  0.71710  0.55530  1.0000 0.1488197605
H   H48       1.0  0.93620  0.49150  0.65330  1.0000 0.1488197605
H   H49       1.0  0.73020  0.23300  0.23300  1.0000 0.1488197605
H   H50       1.0  0.26980  0.50280  0.50280  1.0000 0.1488197605
H   H51       1.0  0.00000  0.49720  0.76700  1.0000 0.1488197605
H   H52       1.0  0.00000  0.76700  0.49720  1.0000 0.1488197605
H   H53       1.0  0.76700  0.00000  0.49720  1.0000 0.1488197605
H   H54       1.0  0.49720  0.00000  0.76700  1.0000 0.1488197605
H   H55       1.0  0.50280  0.26980  0.50280  1.0000 0.1488197605
H   H56       1.0  0.23300  0.73020  0.23300  1.0000 0.1488197605
H   H57       1.0  0.23300  0.23300  0.73020  1.0000 0.1488197605
H   H58       1.0  0.50280  0.50280  0.26980  1.0000 0.1488197605
H   H59       1.0  0.76700  0.49720  0.00000  1.0000 0.1488197605
H   H60       1.0  0.49720  0.76700  0.00000  1.0000 0.1488197605
C   C1        1.0  0.69766  0.42249  0.47775  1.0000 -0.0722782428
C   C2        1.0  0.30234  0.78009  0.72483  1.0000 -0.0722782428
C   C3        1.0  0.94474  0.21991  0.52225  1.0000 -0.0722782428
C   C4        1.0  0.05526  0.57751  0.27517  1.0000 -0.0722782428
C   C5        1.0  0.57751  0.05526  0.27517  1.0000 -0.0722782428
C   C6        1.0  0.21991  0.94474  0.52225  1.0000 -0.0722782428
C   C7        1.0  0.78009  0.30234  0.72483  1.0000 -0.0722782428
C   C8        1.0  0.42249  0.69766  0.47775  1.0000 -0.0722782428
C   C9        1.0  0.42249  0.47775  0.69766  1.0000 -0.0722782428
C   C10       1.0  0.78009  0.72483  0.30234  1.0000 -0.0722782428
C   C11       1.0  0.57751  0.27517  0.05526  1.0000 -0.0722782428
C   C12       1.0  0.21991  0.52225  0.94474  1.0000 -0.0722782428
C   C13       1.0  0.52225  0.21991  0.94474  1.0000 -0.0722782428
C   C14       1.0  0.47775  0.42249  0.69766  1.0000 -0.0722782428
C   C15       1.0  0.27517  0.57751  0.05526  1.0000 -0.0722782428
C   C16       1.0  0.72483  0.78009  0.30234  1.0000 -0.0722782428
C   C17       1.0  0.47775  0.69766  0.42249  1.0000 -0.0722782428
C   C18       1.0  0.72483  0.30234  0.78009  1.0000 -0.0722782428
C   C19       1.0  0.27517  0.05526  0.57751  1.0000 -0.0722782428
C   C20       1.0  0.52225  0.94474  0.21991  1.0000 -0.0722782428
C   C21       1.0  0.69766  0.47775  0.42249  1.0000 -0.0722782428
C   C22       1.0  0.30234  0.72483  0.78009  1.0000 -0.0722782428
C   C23       1.0  0.94474  0.52225  0.21991  1.0000 -0.0722782428
C   C24       1.0  0.05526  0.27517  0.57751  1.0000 -0.0722782428
C   C25       1.0  0.75099  0.36240  0.36240  1.0000 0.3677031929
C   C26       1.0  0.24901  0.61140  0.61140  1.0000 0.3677031929
C   C27       1.0  0.00000  0.38860  0.63760  1.0000 0.3677031929
C   C28       1.0  0.00000  0.63760  0.38860  1.0000 0.3677031929
C   C29       1.0  0.63760  0.00000  0.38860  1.0000 0.3677031929
C   C30       1.0  0.38860  0.00000  0.63760  1.0000 0.3677031929
C   C31       1.0  0.61140  0.24901  0.61140  1.0000 0.3677031929
C   C32       1.0  0.36240  0.75099  0.36240  1.0000 0.3677031929
C   C33       1.0  0.36240  0.36240  0.75099  1.0000 0.3677031929
C   C34       1.0  0.61140  0.61140  0.24901  1.0000 0.3677031929
C   C35       1.0  0.63760  0.38860  0.00000  1.0000 0.3677031929
C   C36       1.0  0.38860  0.63760  0.00000  1.0000 0.3677031929
C   C37       1.0  0.79140  0.29990  0.29990  1.0000 -0.5347097059
C   C38       1.0  0.20860  0.50850  0.50850  1.0000 -0.5347097059
C   C39       1.0  1.00000  0.49150  0.70010  1.0000 -0.5347097059
C   C40       1.0  0.00000  0.70010  0.49150  1.0000 -0.5347097059
C   C41       1.0  0.70010  0.00000  0.49150  1.0000 -0.5347097059
C   C42       1.0  0.49150  0.00000  0.70010  1.0000 -0.5347097059
C   C43       1.0  0.50850  0.20860  0.50850  1.0000 -0.5347097059
C   C44       1.0  0.29990  0.79140  0.29990  1.0000 -0.5347097059
C   C45       1.0  0.29990  0.29990  0.79140  1.0000 -0.5347097059
C   C46       1.0  0.50850  0.50850  0.20860  1.0000 -0.5347097059
C   C47       1.0  0.70010  0.49150  0.00000  1.0000 -0.5347097059
C   C48       1.0  0.49150  0.70010  0.00000  1.0000 -0.5347097059
N   N1        1.0  0.73025  0.34883  0.43978  1.0000 -0.3429126357
N   N2        1.0  0.26975  0.70953  0.61858  1.0000 -0.3429126357
N   N3        1.0  0.90905  0.29047  0.56022  1.0000 -0.3429126357
N   N4        1.0  0.09095  0.65117  0.38142  1.0000 -0.3429126357
N   N5        1.0  0.65117  0.09095  0.38142  1.0000 -0.3429126357
N   N6        1.0  0.29047  0.90905  0.56022  1.0000 -0.3429126357
N   N7        1.0  0.70953  0.26975  0.61858  1.0000 -0.3429126357
N   N8        1.0  0.34883  0.73025  0.43978  1.0000 -0.3429126357
N   N9        1.0  0.34883  0.43978  0.73025  1.0000 -0.3429126357
N   N10       1.0  0.70953  0.61858  0.26975  1.0000 -0.3429126357
N   N11       1.0  0.65117  0.38142  0.09095  1.0000 -0.3429126357
N   N12       1.0  0.29047  0.56022  0.90905  1.0000 -0.3429126357
N   N13       1.0  0.56022  0.29047  0.90905  1.0000 -0.3429126357
N   N14       1.0  0.43978  0.34883  0.73025  1.0000 -0.3429126357
N   N15       1.0  0.38142  0.65117  0.09095  1.0000 -0.3429126357
N   N16       1.0  0.61858  0.70953  0.26975  1.0000 -0.3429126357
N   N17       1.0  0.43978  0.73025  0.34883  1.0000 -0.3429126357
N   N18       1.0  0.61858  0.26975  0.70953  1.0000 -0.3429126357
N   N19       1.0  0.38142  0.09095  0.65117  1.0000 -0.3429126357
N   N20       1.0  0.56022  0.90905  0.29047  1.0000 -0.3429126357
N   N21       1.0  0.73025  0.43978  0.34883  1.0000 -0.3429126357
N   N22       1.0  0.26975  0.61858  0.70953  1.0000 -0.3429126357
N   N23       1.0  0.90905  0.56022  0.29047  1.0000 -0.3429126357
N   N24       1.0  0.09095  0.38142  0.65117  1.0000 -0.3429126357
