# DDEC6 charges by PACMAN v1.1 (https://github.com/mtap-research/PACMAN-charge/)
data_2011[Cd][flu]3[FSR]1
_chemical_formula_sum              "Cd6 H24 C68 O36"
_cell_length_a       14.1264
_cell_length_b       14.1264
_cell_length_c       20.4233
_cell_angle_alpha    90
_cell_angle_beta     90
_cell_angle_gamma    146.662

_symmetry_space_group_name_H-M    "P 1"
_symmetry_Int_Tables_number       1

loop_
  _symmetry_equiv_pos_as_xyz
  'x, y, z'

loop_
  _atom_site_type_symbol
  _atom_site_label
  _atom_site_symmetry_multiplicity
  _atom_site_fract_x
  _atom_site_fract_y
  _atom_site_fract_z
  _atom_site_occupancy
  _atom_site_charge
Cd  Cd1       1.0  0.50000  0.50000  0.00000  1.0000 1.0139911784
Cd  Cd2       1.0  0.00000  0.00000  0.50000  1.0000 1.0139911784
Cd  Cd3       1.0  0.00000  0.00000  0.70070  1.0000 1.0797800435
Cd  Cd4       1.0  0.00000  0.00000  0.29930  1.0000 1.0797800435
Cd  Cd5       1.0  0.50000  0.50000  0.79930  1.0000 1.0797800435
Cd  Cd6       1.0  0.50000  0.50000  0.20070  1.0000 1.0797800435
H   H1        1.0  0.00250  0.68710  0.74600  1.0000 0.1366224078
H   H2        1.0  0.99750  0.31290  0.74600  1.0000 0.1366224078
H   H3        1.0  0.31290  0.99750  0.25400  1.0000 0.1366224078
H   H4        1.0  0.68710  0.00250  0.25400  1.0000 0.1366224078
H   H5        1.0  0.49750  0.81290  0.75400  1.0000 0.1366224078
H   H6        1.0  0.50250  0.18710  0.75400  1.0000 0.1366224078
H   H7        1.0  0.18710  0.50250  0.24600  1.0000 0.1366224078
H   H8        1.0  0.81290  0.49750  0.24600  1.0000 0.1366224078
H   H9        1.0  0.68120  0.35460  0.93010  1.0000 0.1366224078
H   H10       1.0  0.31880  0.64540  0.93010  1.0000 0.1366224078
H   H11       1.0  0.64540  0.31880  0.06990  1.0000 0.1366224078
H   H12       1.0  0.35460  0.68120  0.06990  1.0000 0.1366224078
H   H13       1.0  0.81880  0.14540  0.56990  1.0000 0.1366224078
H   H14       1.0  0.18120  0.85460  0.56990  1.0000 0.1366224078
H   H15       1.0  0.85460  0.18120  0.43010  1.0000 0.1366224078
H   H16       1.0  0.14540  0.81880  0.43010  1.0000 0.1366224078
H   H17       1.0  0.82060  0.35000  0.87570  1.0000 0.1247029392
H   H18       1.0  0.17940  0.65000  0.87570  1.0000 0.1247029392
H   H19       1.0  0.65000  0.17940  0.12430  1.0000 0.1247029392
H   H20       1.0  0.35000  0.82060  0.12430  1.0000 0.1247029392
H   H21       1.0  0.67940  0.15000  0.62430  1.0000 0.1247029392
H   H22       1.0  0.32060  0.85000  0.62430  1.0000 0.1247029392
H   H23       1.0  0.85000  0.32060  0.37570  1.0000 0.1247029392
H   H24       1.0  0.15000  0.67940  0.37570  1.0000 0.1247029392
C   C1        1.0  0.92130  0.51430  0.80440  1.0000 -0.0048396481
C   C2        1.0  0.07870  0.48570  0.80440  1.0000 -0.0048396481
C   C3        1.0  0.48570  0.07870  0.19560  1.0000 -0.0048396481
C   C4        1.0  0.51430  0.92130  0.19560  1.0000 -0.0048396481
C   C5        1.0  0.57870  0.98570  0.69560  1.0000 -0.0048396481
C   C6        1.0  0.42130  0.01430  0.69560  1.0000 -0.0048396481
C   C7        1.0  0.01430  0.42130  0.30440  1.0000 -0.0048396481
C   C8        1.0  0.98570  0.57870  0.30440  1.0000 -0.0048396481
C   C9        1.0  0.93850  0.62110  0.78350  1.0000 -0.090299076
C   C10       1.0  0.06150  0.37890  0.78350  1.0000 -0.090299076
C   C11       1.0  0.37890  0.06150  0.21650  1.0000 -0.090299076
C   C12       1.0  0.62110  0.93850  0.21650  1.0000 -0.090299076
C   C13       1.0  0.56150  0.87890  0.71650  1.0000 -0.090299076
C   C14       1.0  0.43850  0.12110  0.71650  1.0000 -0.090299076
C   C15       1.0  0.12110  0.43850  0.28350  1.0000 -0.090299076
C   C16       1.0  0.87890  0.56150  0.28350  1.0000 -0.090299076
C   C17       1.0  0.86200  0.63220  0.81740  1.0000 -0.0335502481
C   C18       1.0  0.13800  0.36780  0.81740  1.0000 -0.0335502481
C   C19       1.0  0.36780  0.13800  0.18260  1.0000 -0.0335502481
C   C20       1.0  0.63220  0.86200  0.18260  1.0000 -0.0335502481
C   C21       1.0  0.63800  0.86780  0.68260  1.0000 -0.0335502481
C   C22       1.0  0.36200  0.13220  0.68260  1.0000 -0.0335502481
C   C23       1.0  0.13220  0.36200  0.31740  1.0000 -0.0335502481
C   C24       1.0  0.86780  0.63800  0.31740  1.0000 -0.0335502481
C   C25       1.0  0.76460  0.53080  0.87230  1.0000 0.0065732281
C   C26       1.0  0.23540  0.46920  0.87230  1.0000 0.0065732281
C   C27       1.0  0.46920  0.23540  0.12770  1.0000 0.0065732281
C   C28       1.0  0.53080  0.76460  0.12770  1.0000 0.0065732281
C   C29       1.0  0.73540  0.96920  0.62770  1.0000 0.0065732281
C   C30       1.0  0.26460  0.03080  0.62770  1.0000 0.0065732281
C   C31       1.0  0.03080  0.26460  0.37230  1.0000 0.0065732281
C   C32       1.0  0.96920  0.73540  0.37230  1.0000 0.0065732281
C   C33       1.0  0.74770  0.42350  0.89340  1.0000 -0.090299076
C   C34       1.0  0.25230  0.57650  0.89340  1.0000 -0.090299076
C   C35       1.0  0.57650  0.25230  0.10660  1.0000 -0.090299076
C   C36       1.0  0.42350  0.74770  0.10660  1.0000 -0.090299076
C   C37       1.0  0.75230  0.07650  0.60660  1.0000 -0.090299076
C   C38       1.0  0.24770  0.92350  0.60660  1.0000 -0.090299076
C   C39       1.0  0.92350  0.24770  0.39340  1.0000 -0.090299076
C   C40       1.0  0.07650  0.75230  0.39340  1.0000 -0.090299076
C   C41       1.0  0.82880  0.41860  0.86020  1.0000 -0.1113365801
C   C42       1.0  0.17120  0.58140  0.86020  1.0000 -0.1113365801
C   C43       1.0  0.58140  0.17120  0.13980  1.0000 -0.1113365801
C   C44       1.0  0.41860  0.82880  0.13980  1.0000 -0.1113365801
C   C45       1.0  0.67120  0.08140  0.63980  1.0000 -0.1113365801
C   C46       1.0  0.32880  0.91860  0.63980  1.0000 -0.1113365801
C   C47       1.0  0.91860  0.32880  0.36020  1.0000 -0.1113365801
C   C48       1.0  0.08140  0.67120  0.36020  1.0000 -0.1113365801
C   C49       1.0  0.88570  0.75190  0.79360  1.0000 0.6009165658
C   C50       1.0  0.11430  0.24810  0.79360  1.0000 0.6009165658
C   C51       1.0  0.24810  0.11430  0.20640  1.0000 0.6009165658
C   C52       1.0  0.75190  0.88570  0.20640  1.0000 0.6009165658
C   C53       1.0  0.61430  0.74810  0.70640  1.0000 0.6009165658
C   C54       1.0  0.38570  0.25190  0.70640  1.0000 0.6009165658
C   C55       1.0  0.25190  0.38570  0.29360  1.0000 0.6009165658
C   C56       1.0  0.74810  0.61430  0.29360  1.0000 0.6009165658
C   C57       1.0  0.66930  0.52490  0.91200  1.0000 0.5836579217
C   C58       1.0  0.33070  0.47510  0.91200  1.0000 0.5836579217
C   C59       1.0  0.47510  0.33070  0.08800  1.0000 0.5836579217
C   C60       1.0  0.52490  0.66930  0.08800  1.0000 0.5836579217
C   C61       1.0  0.83070  0.97510  0.58800  1.0000 0.5836579217
C   C62       1.0  0.16930  0.02490  0.58800  1.0000 0.5836579217
C   C63       1.0  0.02490  0.16930  0.41200  1.0000 0.5836579217
C   C64       1.0  0.97510  0.83070  0.41200  1.0000 0.5836579217
C   C65       1.0  0.00000  0.50000  0.76700  1.0000 0.3737664832
C   C66       1.0  0.50000  0.00000  0.23300  1.0000 0.3737664832
C   C67       1.0  0.50000  0.00000  0.73300  1.0000 0.3737664832
C   C68       1.0  0.00000  0.50000  0.26700  1.0000 0.3737664832
O   O1        1.0  0.00356  0.86524  0.75230  1.0000 -0.521894096
O   O2        1.0  0.99644  0.13476  0.75230  1.0000 -0.521894096
O   O3        1.0  0.13476  0.99644  0.24770  1.0000 -0.521894096
O   O4        1.0  0.86524  0.00356  0.24770  1.0000 -0.521894096
O   O5        1.0  0.49644  0.63476  0.74770  1.0000 -0.521894096
O   O6        1.0  0.50356  0.36524  0.74770  1.0000 -0.521894096
O   O7        1.0  0.36524  0.50356  0.25230  1.0000 -0.521894096
O   O8        1.0  0.63476  0.49644  0.25230  1.0000 -0.521894096
O   O9        1.0  0.79033  0.73627  0.81577  1.0000 -0.5377711492
O   O10       1.0  0.20967  0.26373  0.81577  1.0000 -0.5377711492
O   O11       1.0  0.26373  0.20967  0.18423  1.0000 -0.5377711492
O   O12       1.0  0.73627  0.79033  0.18423  1.0000 -0.5377711492
O   O13       1.0  0.70967  0.76373  0.68423  1.0000 -0.5377711492
O   O14       1.0  0.29033  0.23627  0.68423  1.0000 -0.5377711492
O   O15       1.0  0.23627  0.29033  0.31577  1.0000 -0.5377711492
O   O16       1.0  0.76373  0.70967  0.31577  1.0000 -0.5377711492
O   O17       1.0  0.51380  0.41120  0.89610  1.0000 -0.5287049102
O   O18       1.0  0.48620  0.58880  0.89610  1.0000 -0.5287049102
O   O19       1.0  0.58880  0.48620  0.10390  1.0000 -0.5287049102
O   O20       1.0  0.41120  0.51380  0.10390  1.0000 -0.5287049102
O   O21       1.0  0.98620  0.08880  0.60390  1.0000 -0.5287049102
O   O22       1.0  0.01380  0.91120  0.60390  1.0000 -0.5287049102
O   O23       1.0  0.91120  0.01380  0.39610  1.0000 -0.5287049102
O   O24       1.0  0.08880  0.98620  0.39610  1.0000 -0.5287049102
O   O25       1.0  0.73823  0.61757  0.96080  1.0000 -0.4668219076
O   O26       1.0  0.26177  0.38243  0.96080  1.0000 -0.4668219076
O   O27       1.0  0.38243  0.26177  0.03920  1.0000 -0.4668219076
O   O28       1.0  0.61757  0.73823  0.03920  1.0000 -0.4668219076
O   O29       1.0  0.76177  0.88243  0.53920  1.0000 -0.4668219076
O   O30       1.0  0.23823  0.11757  0.53920  1.0000 -0.4668219076
O   O31       1.0  0.11757  0.23823  0.46080  1.0000 -0.4668219076
O   O32       1.0  0.88243  0.76177  0.46080  1.0000 -0.4668219076
O   O33       1.0  0.00000  0.50000  0.70730  1.0000 -0.367699674
O   O34       1.0  0.50000  0.00000  0.29270  1.0000 -0.367699674
O   O35       1.0  0.50000  0.00000  0.79270  1.0000 -0.367699674
O   O36       1.0  0.00000  0.50000  0.20730  1.0000 -0.367699674
