# DDEC6 charges by PACMAN v1.1 (https://github.com/mtap-research/PACMAN-charge/)
data_2011[Co][cds]3[FSR]1
_chemical_formula_sum              "Co4 H80 C120 S4 N8 O24"
_cell_length_a       15.6167
_cell_length_b       15.6167
_cell_length_c       16.7178
_cell_angle_alpha    79.1653
_cell_angle_beta     100.835
_cell_angle_gamma    60.0946

_symmetry_space_group_name_H-M    "P 1"
_symmetry_Int_Tables_number       1

loop_
  _symmetry_equiv_pos_as_xyz
  'x, y, z'

loop_
  _atom_site_type_symbol
  _atom_site_label
  _atom_site_symmetry_multiplicity
  _atom_site_fract_x
  _atom_site_fract_y
  _atom_site_fract_z
  _atom_site_occupancy
  _atom_site_charge
Co  Co1       1.0  0.06877  0.49505  0.62081  1.0000 0.8272226582
Co  Co2       1.0  0.49505  0.06877  0.87919  1.0000 0.8272226582
Co  Co3       1.0  0.93123  0.50495  0.37919  1.0000 0.8272226582
Co  Co4       1.0  0.50495  0.93123  0.12081  1.0000 0.8272226582
H   H1        1.0  0.30440  0.33720  0.65390  1.0000 0.109718182
H   H2        1.0  0.33720  0.30440  0.84610  1.0000 0.109718182
H   H3        1.0  0.69560  0.66280  0.34610  1.0000 0.109718182
H   H4        1.0  0.66280  0.69560  0.15390  1.0000 0.109718182
H   H5        1.0  0.45270  0.33170  0.65760  1.0000 0.1291154087
H   H6        1.0  0.33170  0.45270  0.84240  1.0000 0.1291154087
H   H7        1.0  0.54730  0.66830  0.34240  1.0000 0.1291154087
H   H8        1.0  0.66830  0.54730  0.15760  1.0000 0.1291154087
H   H9        1.0  0.28540  0.64280  0.57980  1.0000 0.1366040985
H   H10       1.0  0.64280  0.28540  0.92020  1.0000 0.1366040985
H   H11       1.0  0.71460  0.35720  0.42020  1.0000 0.1366040985
H   H12       1.0  0.35720  0.71460  0.07980  1.0000 0.1366040985
H   H13       1.0  0.13930  0.64070  0.57520  1.0000 0.109718182
H   H14       1.0  0.64070  0.13930  0.92480  1.0000 0.109718182
H   H15       1.0  0.86070  0.35930  0.42480  1.0000 0.109718182
H   H16       1.0  0.35930  0.86070  0.07520  1.0000 0.109718182
H   H17       1.0  0.56630  0.35010  0.60110  1.0000 0.109718182
H   H18       1.0  0.35010  0.56630  0.89890  1.0000 0.109718182
H   H19       1.0  0.43370  0.64990  0.39890  1.0000 0.109718182
H   H20       1.0  0.64990  0.43370  0.10110  1.0000 0.109718182
H   H21       1.0  0.71190  0.35270  0.60350  1.0000 0.109718182
H   H22       1.0  0.35270  0.71190  0.89650  1.0000 0.109718182
H   H23       1.0  0.28810  0.64730  0.39650  1.0000 0.109718182
H   H24       1.0  0.64730  0.28810  0.10350  1.0000 0.109718182
H   H25       1.0  0.57910  0.62570  0.64610  1.0000 0.1223368997
H   H26       1.0  0.62570  0.57910  0.85390  1.0000 0.1223368997
H   H27       1.0  0.42090  0.37430  0.35390  1.0000 0.1223368997
H   H28       1.0  0.37430  0.42090  0.14610  1.0000 0.1223368997
H   H29       1.0  0.43400  0.62140  0.64680  1.0000 0.1223368997
H   H30       1.0  0.62140  0.43400  0.85320  1.0000 0.1223368997
H   H31       1.0  0.56600  0.37860  0.35320  1.0000 0.1223368997
H   H32       1.0  0.37860  0.56600  0.14680  1.0000 0.1223368997
H   H33       1.0  0.86360  0.33680  0.67780  1.0000 0.1291154087
H   H34       1.0  0.33680  0.86360  0.82220  1.0000 0.1291154087
H   H35       1.0  0.13640  0.66320  0.32220  1.0000 0.1291154087
H   H36       1.0  0.66320  0.13640  0.17780  1.0000 0.1291154087
H   H37       1.0  0.00530  0.34470  0.67950  1.0000 0.109718182
H   H38       1.0  0.34470  0.00530  0.82050  1.0000 0.109718182
H   H39       1.0  0.99470  0.65530  0.32050  1.0000 0.109718182
H   H40       1.0  0.65530  0.99470  0.17950  1.0000 0.109718182
H   H41       1.0  0.83050  0.64670  0.58050  1.0000 0.1033953334
H   H42       1.0  0.64670  0.83050  0.91950  1.0000 0.1033953334
H   H43       1.0  0.16950  0.35330  0.41950  1.0000 0.1033953334
H   H44       1.0  0.35330  0.16950  0.08050  1.0000 0.1033953334
H   H45       1.0  0.68380  0.64760  0.57550  1.0000 0.1291154087
H   H46       1.0  0.64760  0.68380  0.92450  1.0000 0.1291154087
H   H47       1.0  0.31620  0.35240  0.42450  1.0000 0.1291154087
H   H48       1.0  0.35240  0.31620  0.07550  1.0000 0.1291154087
H   H49       1.0  0.04580  0.22440  0.46310  1.0000 0.1291154087
H   H50       1.0  0.22440  0.04580  0.03690  1.0000 0.1291154087
H   H51       1.0  0.95420  0.77560  0.53690  1.0000 0.1291154087
H   H52       1.0  0.77560  0.95420  0.96310  1.0000 0.1291154087
H   H53       1.0  0.13560  0.05060  0.47410  1.0000 0.1291154087
H   H54       1.0  0.05060  0.13560  0.02590  1.0000 0.1291154087
H   H55       1.0  0.86440  0.94940  0.52590  1.0000 0.1291154087
H   H56       1.0  0.94940  0.86440  0.97410  1.0000 0.1291154087
H   H57       1.0  0.37690  0.99170  0.66210  1.0000 0.1223368997
H   H58       1.0  0.99170  0.37690  0.83790  1.0000 0.1223368997
H   H59       1.0  0.62310  0.00830  0.33790  1.0000 0.1223368997
H   H60       1.0  0.00830  0.62310  0.16210  1.0000 0.1223368997
H   H61       1.0  0.28380  0.16480  0.65640  1.0000 0.1366040985
H   H62       1.0  0.16480  0.28380  0.84360  1.0000 0.1366040985
H   H63       1.0  0.71620  0.83520  0.34360  1.0000 0.1366040985
H   H64       1.0  0.83520  0.71620  0.15640  1.0000 0.1366040985
H   H65       1.0  0.24980  0.89360  0.40250  1.0000 0.1223368997
H   H66       1.0  0.89360  0.24980  0.09750  1.0000 0.1223368997
H   H67       1.0  0.75020  0.10640  0.59750  1.0000 0.1223368997
H   H68       1.0  0.10640  0.75020  0.90250  1.0000 0.1223368997
H   H69       1.0  0.29540  0.91340  0.28070  1.0000 0.1291154087
H   H70       1.0  0.91340  0.29540  0.21930  1.0000 0.1291154087
H   H71       1.0  0.70460  0.08660  0.71930  1.0000 0.1291154087
H   H72       1.0  0.08660  0.70460  0.78070  1.0000 0.1291154087
H   H73       1.0  0.55820  0.87240  0.41960  1.0000 0.1223368997
H   H74       1.0  0.87240  0.55820  0.08040  1.0000 0.1223368997
H   H75       1.0  0.44180  0.12760  0.58040  1.0000 0.1223368997
H   H76       1.0  0.12760  0.44180  0.91960  1.0000 0.1223368997
H   H77       1.0  0.51180  0.85760  0.54060  1.0000 0.1291154087
H   H78       1.0  0.85760  0.51180  0.95940  1.0000 0.1291154087
H   H79       1.0  0.48820  0.14240  0.45940  1.0000 0.1291154087
H   H80       1.0  0.14240  0.48820  0.04060  1.0000 0.1291154087
C   C1        1.0  0.30005  0.40005  0.63860  1.0000 0.0811401735
C   C2        1.0  0.40005  0.30005  0.86140  1.0000 0.0811401735
C   C3        1.0  0.69995  0.59995  0.36140  1.0000 0.0811401735
C   C4        1.0  0.59995  0.69995  0.13860  1.0000 0.0811401735
C   C5        1.0  0.38971  0.39611  0.64110  1.0000 -0.1972922255
C   C6        1.0  0.39611  0.38971  0.85890  1.0000 -0.1972922255
C   C7        1.0  0.61029  0.60389  0.35890  1.0000 -0.1972922255
C   C8        1.0  0.60389  0.61029  0.14110  1.0000 -0.1972922255
C   C9        1.0  0.38778  0.48718  0.61950  1.0000 0.109718182
C   C10       1.0  0.48718  0.38778  0.88050  1.0000 0.109718182
C   C11       1.0  0.61222  0.51282  0.38050  1.0000 0.109718182
C   C12       1.0  0.51282  0.61222  0.11950  1.0000 0.109718182
C   C13       1.0  0.29151  0.57911  0.59500  1.0000 -0.1933472624
C   C14       1.0  0.57911  0.29151  0.90500  1.0000 -0.1933472624
C   C15       1.0  0.70849  0.42089  0.40500  1.0000 -0.1933472624
C   C16       1.0  0.42089  0.70849  0.09500  1.0000 -0.1933472624
C   C17       1.0  0.20370  0.57710  0.59300  1.0000 0.0892291657
C   C18       1.0  0.57710  0.20370  0.90700  1.0000 0.0892291657
C   C19       1.0  0.79630  0.42290  0.40700  1.0000 0.0892291657
C   C20       1.0  0.42290  0.79630  0.09300  1.0000 0.0892291657
C   C21       1.0  0.48301  0.48681  0.62250  1.0000 0.0581563282
C   C22       1.0  0.48681  0.48301  0.87750  1.0000 0.0581563282
C   C23       1.0  0.51699  0.51319  0.37750  1.0000 0.0581563282
C   C24       1.0  0.51319  0.51699  0.12250  1.0000 0.0581563282
C   C25       1.0  0.56839  0.40599  0.61030  1.0000 -0.1357486733
C   C26       1.0  0.40599  0.56839  0.88970  1.0000 -0.1357486733
C   C27       1.0  0.43161  0.59401  0.38970  1.0000 -0.1357486733
C   C28       1.0  0.59401  0.43161  0.11030  1.0000 -0.1357486733
C   C29       1.0  0.65565  0.40765  0.61170  1.0000 -0.1357486733
C   C30       1.0  0.40765  0.65565  0.88830  1.0000 -0.1357486733
C   C31       1.0  0.34435  0.59235  0.38830  1.0000 -0.1357486733
C   C32       1.0  0.59235  0.34435  0.11170  1.0000 -0.1357486733
C   C33       1.0  0.66138  0.48958  0.62510  1.0000 0.0581563282
C   C34       1.0  0.48958  0.66138  0.87490  1.0000 0.0581563282
C   C35       1.0  0.33862  0.51042  0.37490  1.0000 0.0581563282
C   C36       1.0  0.51042  0.33862  0.12510  1.0000 0.0581563282
C   C37       1.0  0.57713  0.56953  0.63740  1.0000 -0.1207689365
C   C38       1.0  0.56953  0.57713  0.86260  1.0000 -0.1207689365
C   C39       1.0  0.42287  0.43047  0.36260  1.0000 -0.1207689365
C   C40       1.0  0.43047  0.42287  0.13740  1.0000 -0.1207689365
C   C41       1.0  0.48952  0.56732  0.63700  1.0000 -0.1256055554
C   C42       1.0  0.56732  0.48952  0.86300  1.0000 -0.1256055554
C   C43       1.0  0.51048  0.43268  0.36300  1.0000 -0.1256055554
C   C44       1.0  0.43268  0.51048  0.13700  1.0000 -0.1256055554
C   C45       1.0  0.75520  0.49140  0.62610  1.0000 0.1223368997
C   C46       1.0  0.49140  0.75520  0.87390  1.0000 0.1223368997
C   C47       1.0  0.24480  0.50860  0.37390  1.0000 0.1223368997
C   C48       1.0  0.50860  0.24480  0.12610  1.0000 0.1223368997
C   C49       1.0  0.85429  0.40149  0.65710  1.0000 -0.1840873567
C   C50       1.0  0.40149  0.85429  0.84290  1.0000 -0.1840873567
C   C51       1.0  0.14571  0.59851  0.34290  1.0000 -0.1840873567
C   C52       1.0  0.59851  0.14571  0.15710  1.0000 -0.1840873567
C   C53       1.0  0.93942  0.40682  0.65760  1.0000 0.0892291657
C   C54       1.0  0.40682  0.93942  0.84240  1.0000 0.0892291657
C   C55       1.0  0.06058  0.59318  0.34240  1.0000 0.0892291657
C   C56       1.0  0.59318  0.06058  0.15760  1.0000 0.0892291657
C   C57       1.0  0.83741  0.58301  0.59980  1.0000 0.0892291657
C   C58       1.0  0.58301  0.83741  0.90020  1.0000 0.0892291657
C   C59       1.0  0.16259  0.41699  0.40020  1.0000 0.0892291657
C   C60       1.0  0.41699  0.16259  0.09980  1.0000 0.0892291657
C   C61       1.0  0.74867  0.58427  0.59700  1.0000 -0.1972922255
C   C62       1.0  0.58427  0.74867  0.90300  1.0000 -0.1972922255
C   C63       1.0  0.25133  0.41573  0.40300  1.0000 -0.1972922255
C   C64       1.0  0.41573  0.25133  0.09700  1.0000 -0.1972922255
C   C65       1.0  0.09615  0.32555  0.55260  1.0000 0.5497995148
C   C66       1.0  0.32555  0.09615  0.94740  1.0000 0.5497995148
C   C67       1.0  0.90385  0.67445  0.44740  1.0000 0.5497995148
C   C68       1.0  0.67445  0.90385  0.05260  1.0000 0.5497995148
C   C69       1.0  0.15518  0.21178  0.55959  1.0000 -0.0239521881
C   C70       1.0  0.21178  0.15518  0.94041  1.0000 -0.0239521881
C   C71       1.0  0.84482  0.78822  0.44041  1.0000 -0.0239521881
C   C72       1.0  0.78822  0.84482  0.05959  1.0000 -0.0239521881
C   C73       1.0  0.11184  0.17724  0.50430  1.0000 -0.0916192403
C   C74       1.0  0.17724  0.11184  0.99570  1.0000 -0.0916192403
C   C75       1.0  0.88816  0.82276  0.49570  1.0000 -0.0916192403
C   C76       1.0  0.82276  0.88816  0.00430  1.0000 -0.0916192403
C   C77       1.0  0.16545  0.07445  0.51000  1.0000 -0.1008889037
C   C78       1.0  0.07445  0.16545  0.99000  1.0000 -0.1008889037
C   C79       1.0  0.83455  0.92555  0.49000  1.0000 -0.1008889037
C   C80       1.0  0.92555  0.83455  0.01000  1.0000 -0.1008889037
C   C81       1.0  0.26480  0.00620  0.56970  1.0000 -0.0784629417
C   C82       1.0  0.00620  0.26480  0.93030  1.0000 -0.0784629417
C   C83       1.0  0.73520  0.99380  0.43030  1.0000 -0.0784629417
C   C84       1.0  0.99380  0.73520  0.06970  1.0000 -0.0784629417
C   C85       1.0  0.30950  0.03870  0.62310  1.0000 -0.1109469965
C   C86       1.0  0.03870  0.30950  0.87690  1.0000 -0.1109469965
C   C87       1.0  0.69050  0.96130  0.37690  1.0000 -0.1109469965
C   C88       1.0  0.96130  0.69050  0.12310  1.0000 -0.1109469965
C   C89       1.0  0.25428  0.14208  0.61910  1.0000 -0.1008889037
C   C90       1.0  0.14208  0.25428  0.88090  1.0000 -0.1008889037
C   C91       1.0  0.74572  0.85792  0.38090  1.0000 -0.1008889037
C   C92       1.0  0.85792  0.74572  0.11910  1.0000 -0.1008889037
C   C93       1.0  0.37596  0.87636  0.48350  1.0000 -0.1008889037
C   C94       1.0  0.87636  0.37596  0.01650  1.0000 -0.1008889037
C   C95       1.0  0.62404  0.12364  0.51650  1.0000 -0.1008889037
C   C96       1.0  0.12364  0.62404  0.98350  1.0000 -0.1008889037
C   C97       1.0  0.31108  0.89108  0.40550  1.0000 -0.1109469965
C   C98       1.0  0.89108  0.31108  0.09450  1.0000 -0.1109469965
C   C99       1.0  0.68892  0.10892  0.59450  1.0000 -0.1109469965
C   C100      1.0  0.10892  0.68892  0.90550  1.0000 -0.1109469965
C   C101      1.0  0.33902  0.90202  0.33333  1.0000 -0.1109469965
C   C102      1.0  0.90202  0.33902  0.16667  1.0000 -0.1109469965
C   C103      1.0  0.66098  0.09798  0.66667  1.0000 -0.1109469965
C   C104      1.0  0.09798  0.66098  0.83333  1.0000 -0.1109469965
C   C105      1.0  0.43037  0.89637  0.33720  1.0000 -0.0006873511
C   C106      1.0  0.89637  0.43037  0.16280  1.0000 -0.0006873511
C   C107      1.0  0.56963  0.10363  0.66280  1.0000 -0.0006873511
C   C108      1.0  0.10363  0.56963  0.83720  1.0000 -0.0006873511
C   C109      1.0  0.49529  0.87829  0.41600  1.0000 -0.1109469965
C   C110      1.0  0.87829  0.49529  0.08400  1.0000 -0.1109469965
C   C111      1.0  0.50471  0.12171  0.58400  1.0000 -0.1109469965
C   C112      1.0  0.12171  0.50471  0.91600  1.0000 -0.1109469965
C   C113      1.0  0.46796  0.86896  0.48810  1.0000 -0.1207689365
C   C114      1.0  0.86896  0.46796  0.01190  1.0000 -0.1109469965
C   C115      1.0  0.53204  0.13104  0.51190  1.0000 -0.1109469965
C   C116      1.0  0.13104  0.53204  0.98810  1.0000 -0.1109469965
C   C117      1.0  0.45829  0.91149  0.25660  1.0000 0.5189897547
C   C118      1.0  0.91149  0.45829  0.24340  1.0000 0.5189897547
C   C119      1.0  0.54171  0.08851  0.74340  1.0000 0.5189897547
C   C120      1.0  0.08851  0.54171  0.75660  1.0000 0.5189897547
S   S1        1.0  0.33602  0.87248  0.57537  1.0000 0.967577828
S   S2        1.0  0.87248  0.33602  0.92463  1.0000 0.967577828
S   S3        1.0  0.66398  0.12752  0.42463  1.0000 0.967577828
S   S4        1.0  0.12752  0.66398  0.07537  1.0000 0.967577828
N   N1        1.0  0.20631  0.48919  0.61525  1.0000 -0.2435127684
N   N2        1.0  0.48919  0.20631  0.88475  1.0000 -0.2435127684
N   N3        1.0  0.79369  0.51081  0.38475  1.0000 -0.2435127684
N   N4        1.0  0.51081  0.79369  0.11525  1.0000 -0.2435127684
N   N5        1.0  0.93287  0.49637  0.62840  1.0000 -0.2435127684
N   N6        1.0  0.49637  0.93287  0.87160  1.0000 -0.2435127684
N   N7        1.0  0.06713  0.50363  0.37160  1.0000 -0.2435127684
N   N8        1.0  0.50363  0.06713  0.12840  1.0000 -0.2435127684
O   O1        1.0  0.01164  0.38614  0.49248  1.0000 -0.5549100508
O   O2        1.0  0.38614  0.01164  0.00752  1.0000 -0.5549100508
O   O3        1.0  0.98836  0.61386  0.50752  1.0000 -0.5549100508
O   O4        1.0  0.61386  0.98836  0.99248  1.0000 -0.5549100508
O   O5        1.0  0.13577  0.35051  0.60859  1.0000 -0.5371838456
O   O6        1.0  0.35051  0.13577  0.89141  1.0000 -0.5371838456
O   O7        1.0  0.86423  0.64949  0.39141  1.0000 -0.5371838456
O   O8        1.0  0.64949  0.86423  0.10859  1.0000 -0.5371838456
O   O9        1.0  0.26623  0.83943  0.56500  1.0000 -0.5109799226
O   O10       1.0  0.83943  0.26623  0.93500  1.0000 -0.5109799226
O   O11       1.0  0.73377  0.16057  0.43500  1.0000 -0.5109799226
O   O12       1.0  0.16057  0.73377  0.06500  1.0000 -0.5109799226
O   O13       1.0  0.42710  0.81510  0.65020  1.0000 -0.5109799226
O   O14       1.0  0.81510  0.42710  0.84980  1.0000 -0.5109799226
O   O15       1.0  0.57290  0.18490  0.34980  1.0000 -0.5109799226
O   O16       1.0  0.18490  0.57290  0.15020  1.0000 -0.5109799226
O   O17       1.0  0.38708  0.96454  0.18633  1.0000 -0.5187390318
O   O18       1.0  0.96454  0.38708  0.31367  1.0000 -0.5187390318
O   O19       1.0  0.61292  0.03546  0.81367  1.0000 -0.5187390318
O   O20       1.0  0.03546  0.61292  0.68633  1.0000 -0.5187390318
O   O21       1.0  0.55259  0.87081  0.26163  1.0000 -0.5371838456
O   O22       1.0  0.87081  0.55259  0.23837  1.0000 -0.5371838456
O   O23       1.0  0.44741  0.12919  0.73837  1.0000 -0.5371838456
O   O24       1.0  0.12919  0.44741  0.76163  1.0000 -0.5371838456
