# DDEC6 charges by PACMAN v1.1 (https://github.com/mtap-research/PACMAN-charge/)
data_2011[MoMn][nan]3[FSR]1
_chemical_formula_sum              "Mn2 Mo10 H20 C24 N20 O32"
_cell_length_a       16.5533
_cell_length_b       16.5533
_cell_length_c       7.4916
_cell_angle_alpha    87.3316
_cell_angle_beta     92.6684
_cell_angle_gamma    140.091

_symmetry_space_group_name_H-M    "P 1"
_symmetry_Int_Tables_number       1

loop_
  _symmetry_equiv_pos_as_xyz
  'x, y, z'

loop_
  _atom_site_type_symbol
  _atom_site_label
  _atom_site_symmetry_multiplicity
  _atom_site_fract_x
  _atom_site_fract_y
  _atom_site_fract_z
  _atom_site_occupancy
  _atom_site_charge
Mn  Mn1       1.0  0.50000  0.00000  0.50000  1.0000 1.0511857091
Mn  Mn2       1.0  0.00000  0.50000  0.00000  1.0000 1.0511857091
Mo  Mo1       1.0  0.72183  0.30817  0.67171  1.0000 2.1317601322
Mo  Mo2       1.0  0.30817  0.72183  0.82829  1.0000 2.1317601322
Mo  Mo3       1.0  0.27817  0.69183  0.32829  1.0000 2.1317601322
Mo  Mo4       1.0  0.69183  0.27817  0.17171  1.0000 2.1317601322
Mo  Mo5       1.0  0.61183  0.43285  0.73011  1.0000 2.1317601322
Mo  Mo6       1.0  0.43285  0.61183  0.76989  1.0000 2.1317601322
Mo  Mo7       1.0  0.38817  0.56715  0.26989  1.0000 2.1317601322
Mo  Mo8       1.0  0.56715  0.38817  0.23011  1.0000 2.1317601322
Mo  Mo9       1.0  0.33067  0.33067  0.75000  1.0000 2.043138486
Mo  Mo10      1.0  0.66933  0.66933  0.25000  1.0000 2.043138486
H   H1        1.0  0.29020  0.12440  0.62350  1.0000 0.2888887269
H   H2        1.0  0.12440  0.29020  0.87650  1.0000 0.2888887269
H   H3        1.0  0.70980  0.87560  0.37650  1.0000 0.2888887269
H   H4        1.0  0.87560  0.70980  0.12350  1.0000 0.2888887269
H   H5        1.0  0.10900  0.95260  0.50240  1.0000 0.1195943305
H   H6        1.0  0.95260  0.10900  0.99760  1.0000 0.1195943305
H   H7        1.0  0.89100  0.04740  0.49760  1.0000 0.1195943305
H   H8        1.0  0.04740  0.89100  0.00240  1.0000 0.1195943305
H   H9        1.0  0.85290  0.58070  0.49670  1.0000 0.1141490905
H   H10       1.0  0.58070  0.85290  0.00330  1.0000 0.1141490905
H   H11       1.0  0.14710  0.41930  0.50330  1.0000 0.1141490905
H   H12       1.0  0.41930  0.14710  0.99670  1.0000 0.1141490905
H   H13       1.0  0.00930  0.60490  0.55160  1.0000 0.1578693359
H   H14       1.0  0.60490  0.00930  0.94840  1.0000 0.1578693359
H   H15       1.0  0.99070  0.39510  0.44840  1.0000 0.1578693359
H   H16       1.0  0.39510  0.99070  0.05160  1.0000 0.1578693359
H   H17       1.0  0.21780  0.80600  0.58010  1.0000 0.1305539725
H   H18       1.0  0.80600  0.21780  0.91990  1.0000 0.1305539725
H   H19       1.0  0.78220  0.19400  0.41990  1.0000 0.1305539725
H   H20       1.0  0.19400  0.78220  0.08010  1.0000 0.1305539725
C   C1        1.0  0.18400  0.89900  0.54360  1.0000 -0.0174804156
C   C2        1.0  0.89900  0.18400  0.95640  1.0000 -0.0174804156
C   C3        1.0  0.81600  0.10100  0.45640  1.0000 -0.0174804156
C   C4        1.0  0.10100  0.81600  0.04360  1.0000 -0.0174804156
C   C5        1.0  0.08980  0.88300  0.51270  1.0000 0.017128701
C   C6        1.0  0.88300  0.08980  0.98730  1.0000 0.017128701
C   C7        1.0  0.91020  0.11700  0.48730  1.0000 0.017128701
C   C8        1.0  0.11700  0.91020  0.01270  1.0000 0.017128701
C   C9        1.0  0.93640  0.66080  0.50960  1.0000 0.0849267064
C   C10       1.0  0.66080  0.93640  0.99040  1.0000 0.0849267064
C   C11       1.0  0.06360  0.33920  0.49040  1.0000 0.0849267064
C   C12       1.0  0.33920  0.06360  0.00960  1.0000 0.0849267064
C   C13       1.0  0.02960  0.67520  0.54150  1.0000 -0.1151991499
C   C14       1.0  0.67520  0.02960  0.95850  1.0000 -0.1151991499
C   C15       1.0  0.97040  0.32480  0.45850  1.0000 -0.1151991499
C   C16       1.0  0.32480  0.97040  0.04150  1.0000 -0.1151991499
C   C17       1.0  0.15450  0.79550  0.55860  1.0000 -0.0622551179
C   C18       1.0  0.79550  0.15450  0.94140  1.0000 -0.0622551179
C   C19       1.0  0.84550  0.20450  0.44140  1.0000 -0.0622551179
C   C20       1.0  0.20450  0.84550  0.05860  1.0000 -0.0622551179
C   C21       1.0  0.31400  0.02720  0.56740  1.0000 0.2690829454
C   C22       1.0  0.02720  0.31400  0.93260  1.0000 0.2690829454
C   C23       1.0  0.68600  0.97280  0.43260  1.0000 0.2690829454
C   C24       1.0  0.97280  0.68600  0.06740  1.0000 0.2690829454
N   N1        1.0  0.96670  0.76310  0.49720  1.0000 -0.177616767
N   N2        1.0  0.76310  0.96670  0.00280  1.0000 -0.177616767
N   N3        1.0  0.03330  0.23690  0.50280  1.0000 -0.177616767
N   N4        1.0  0.23690  0.03330  0.99720  1.0000 -0.177616767
N   N5        1.0  0.41680  0.06000  0.56700  1.0000 -0.2454235436
N   N6        1.0  0.06000  0.41680  0.93300  1.0000 -0.2454235436
N   N7        1.0  0.58320  0.94000  0.43300  1.0000 -0.2454235436
N   N8        1.0  0.94000  0.58320  0.06700  1.0000 -0.2454235436
N   N9        1.0  0.51070  0.18230  0.61230  1.0000 -0.1083821947
N   N10       1.0  0.18230  0.51070  0.88770  1.0000 -0.1083821947
N   N11       1.0  0.48930  0.81770  0.38770  1.0000 -0.1083821947
N   N12       1.0  0.81770  0.48930  0.11230  1.0000 -0.1083821947
N   N13       1.0  0.46500  0.21940  0.63640  1.0000 -0.0622551179
N   N14       1.0  0.21940  0.46500  0.86360  1.0000 -0.0622551179
N   N15       1.0  0.53500  0.78060  0.36360  1.0000 -0.0622551179
N   N16       1.0  0.78060  0.53500  0.13640  1.0000 -0.0622551179
N   N17       1.0  0.34170  0.12450  0.61260  1.0000 -0.1320578338
N   N18       1.0  0.12450  0.34170  0.88740  1.0000 -0.1320578338
N   N19       1.0  0.65830  0.87550  0.38740  1.0000 -0.1320578338
N   N20       1.0  0.87550  0.65830  0.11260  1.0000 -0.1320578338
O   O1        1.0  0.65390  0.15970  0.65900  1.0000 -0.7641966822
O   O2        1.0  0.15970  0.65390  0.84100  1.0000 -0.7641966822
O   O3        1.0  0.34610  0.84030  0.34100  1.0000 -0.7641966822
O   O4        1.0  0.84030  0.34610  0.15900  1.0000 -0.7641966822
O   O5        1.0  0.86840  0.40240  0.77350  1.0000 -0.7418681415
O   O6        1.0  0.40240  0.86840  0.72650  1.0000 -0.7418681415
O   O7        1.0  0.13160  0.59760  0.22650  1.0000 -0.7418681415
O   O8        1.0  0.59760  0.13160  0.27350  1.0000 -0.7418681415
O   O9        1.0  0.64430  0.24490  0.94630  1.0000 -0.7971044065
O   O10       1.0  0.24490  0.64430  0.55370  1.0000 -0.7971044065
O   O11       1.0  0.35570  0.75510  0.05370  1.0000 -0.7971044065
O   O12       1.0  0.75510  0.35570  0.44630  1.0000 -0.7971044065
O   O13       1.0  0.71010  0.41790  0.72390  1.0000 -0.8320542754
O   O14       1.0  0.41790  0.71010  0.77610  1.0000 -0.8320542754
O   O15       1.0  0.28990  0.58210  0.27610  1.0000 -0.8320542754
O   O16       1.0  0.58210  0.28990  0.22390  1.0000 -0.8320542754
O   O17       1.0  0.72080  0.58860  0.75550  1.0000 -0.5571603359
O   O18       1.0  0.58860  0.72080  0.74450  1.0000 -0.5571603359
O   O19       1.0  0.27920  0.41140  0.24450  1.0000 -0.5571603359
O   O20       1.0  0.41140  0.27920  0.25550  1.0000 -0.5571603359
O   O21       1.0  0.54830  0.36930  0.94740  1.0000 -0.8320542754
O   O22       1.0  0.36930  0.54830  0.55260  1.0000 -0.8320542754
O   O23       1.0  0.45170  0.63070  0.05260  1.0000 -0.8320542754
O   O24       1.0  0.63070  0.45170  0.44740  1.0000 -0.8320542754
O   O25       1.0  0.46270  0.38550  0.64510  1.0000 -0.8524267258
O   O26       1.0  0.38550  0.46270  0.85490  1.0000 -0.8524267258
O   O27       1.0  0.53730  0.61450  0.35490  1.0000 -0.8524267258
O   O28       1.0  0.61450  0.53730  0.14510  1.0000 -0.8524267258
O   O29       1.0  0.21620  0.26680  0.59120  1.0000 -0.6953411879
O   O30       1.0  0.26680  0.21620  0.90880  1.0000 -0.6953411879
O   O31       1.0  0.78380  0.73320  0.40880  1.0000 -0.6953411879
O   O32       1.0  0.73320  0.78380  0.09120  1.0000 -0.6953411879
