# DDEC6 charges by PACMAN v1.1 (https://github.com/mtap-research/PACMAN-charge/)
data_2011[Sc][nan]3[FSR]1
_chemical_formula_sum              "Sc12 H48 C96 O60"
_cell_length_a       25.0378
_cell_length_b       25.0378
_cell_length_c       25.0378
_cell_angle_alpha    151.361
_cell_angle_beta     144.294
_cell_angle_gamma    46.3952

_symmetry_space_group_name_H-M    "P 1"
_symmetry_Int_Tables_number       1

loop_
  _symmetry_equiv_pos_as_xyz
  'x, y, z'

loop_
  _atom_site_type_symbol
  _atom_site_label
  _atom_site_symmetry_multiplicity
  _atom_site_fract_x
  _atom_site_fract_y
  _atom_site_fract_z
  _atom_site_occupancy
  _atom_site_charge
Sc  Sc1       1.0  0.33315  0.52066  0.56235  1.0000 1.8323332243
Sc  Sc2       1.0  0.45831  0.77080  0.93765  1.0000 1.8323332243
Sc  Sc3       1.0  0.04169  0.97934  0.31249  1.0000 1.8323332243
Sc  Sc4       1.0  0.16685  0.72920  0.18751  1.0000 1.8323332243
Sc  Sc5       1.0  0.37494  0.31255  0.31235  1.0000 1.8323332243
Sc  Sc6       1.0  0.50020  0.06259  0.18765  1.0000 1.8323332243
Sc  Sc7       1.0  0.99980  0.18745  0.56239  1.0000 1.8323332243
Sc  Sc8       1.0  0.12506  0.43741  0.93761  1.0000 1.8323332243
Sc  Sc9       1.0  0.83355  0.39588  0.18761  1.0000 1.8323332243
Sc  Sc10      1.0  0.70827  0.64594  0.31239  1.0000 1.8323332243
Sc  Sc11      1.0  0.79173  0.10412  0.93767  1.0000 1.8323332243
Sc  Sc12      1.0  0.66645  0.85406  0.56233  1.0000 1.8323332243
H   H1        1.0  0.47010  0.43100  0.55910  1.0000 0.4087706181
H   H2        1.0  0.37190  0.91100  0.94090  1.0000 0.4087706181
H   H3        1.0  0.12810  0.06900  0.53910  1.0000 0.4087706181
H   H4        1.0  0.02990  0.58900  0.96090  1.0000 0.4087706181
H   H5        1.0  0.39940  0.14940  0.25000  1.0000 0.4087706181
H   H6        1.0  0.10060  0.35060  0.75000  1.0000 0.4087706181
H   H7        1.0  0.43390  0.68390  0.75000  1.0000 0.4087706181
H   H8        1.0  0.06610  0.81610  0.25000  1.0000 0.4087706181
H   H9        1.0  0.73280  0.48280  0.25000  1.0000 0.4087706181
H   H10       1.0  0.76720  0.01720  0.75000  1.0000 0.4087706181
H   H11       1.0  0.69800  0.25000  0.94800  1.0000 0.4087706181
H   H12       1.0  0.80200  0.75000  0.55200  1.0000 0.4087706181
H   H13       1.0  0.18340  0.07570  0.01470  1.0000 0.1175601337
H   H14       1.0  0.56100  0.16870  0.48530  1.0000 0.1175601337
H   H15       1.0  0.93900  0.42430  0.60770  1.0000 0.1175601337
H   H16       1.0  0.31660  0.33130  0.89230  1.0000 0.1175601337
H   H17       1.0  0.22100  0.89880  0.91320  1.0000 0.1175601337
H   H18       1.0  0.48560  0.30780  0.58680  1.0000 0.1175601337
H   H19       1.0  0.01440  0.60120  0.82220  1.0000 0.1175601337
H   H20       1.0  0.27900  0.19220  0.67780  1.0000 0.1175601337
H   H21       1.0  0.08310  0.59500  0.51170  1.0000 0.1399526271
H   H22       1.0  0.58330  0.57140  0.98830  1.0000 0.1399526271
H   H23       1.0  0.91670  0.90500  0.98810  1.0000 0.1399526271
H   H24       1.0  0.41690  0.92860  0.51190  1.0000 0.1399526271
H   H25       1.0  0.94510  0.85790  0.67760  1.0000 0.1175601337
H   H26       1.0  0.68030  0.26750  0.82240  1.0000 0.1175601337
H   H27       1.0  0.81970  0.64210  0.58720  1.0000 0.1175601337
H   H28       1.0  0.55490  0.23250  0.91280  1.0000 0.1175601337
H   H29       1.0  0.98400  0.99840  0.89420  1.0000 0.1175601337
H   H30       1.0  0.60420  0.08980  0.60580  1.0000 0.1175601337
H   H31       1.0  0.89580  0.50160  0.48560  1.0000 0.1175601337
H   H32       1.0  0.51600  0.41020  0.01440  1.0000 0.1175601337
H   H33       1.0  0.08422  0.32162  0.23920  1.0000 0.1399526271
H   H34       1.0  0.58242  0.84502  0.26080  1.0000 0.1399526271
H   H35       1.0  0.91758  0.17838  0.26260  1.0000 0.1399526271
H   H36       1.0  0.41578  0.65498  0.23740  1.0000 0.1399526271
H   H37       1.0  0.25000  0.51240  0.26240  1.0000 0.1399526271
H   H38       1.0  0.75000  0.98760  0.23760  1.0000 0.1399526271
H   H39       1.0  0.27060  0.75760  0.60560  1.0000 0.1175601337
H   H40       1.0  0.65200  0.66500  0.89440  1.0000 0.1175601337
H   H41       1.0  0.84800  0.74240  0.01300  1.0000 0.1175601337
H   H42       1.0  0.22940  0.83500  0.48700  1.0000 0.1175601337
H   H43       1.0  0.34670  0.93390  0.81980  1.0000 0.1175601337
H   H44       1.0  0.61410  0.52690  0.68020  1.0000 0.1175601337
H   H45       1.0  0.88590  0.56610  0.91280  1.0000 0.1175601337
H   H46       1.0  0.15330  0.97310  0.58720  1.0000 0.1175601337
H   H47       1.0  0.25000  0.23860  0.98860  1.0000 0.1399526271
H   H48       1.0  0.75000  0.26140  0.51140  1.0000 0.1399526271
C   C1        1.0  0.21240  0.29540  0.24840  1.0000 0.6385546498
C   C2        1.0  0.54700  0.96400  0.25160  1.0000 0.6385546498
C   C3        1.0  0.95300  0.20460  0.41700  1.0000 0.6385546498
C   C4        1.0  0.28760  0.53600  0.08300  1.0000 0.6385546498
C   C5        1.0  0.14370  0.21070  0.14200  1.0000 -0.0284100801
C   C6        1.0  0.56870  0.00170  0.35800  1.0000 -0.0284100801
C   C7        1.0  0.93130  0.28930  0.43300  1.0000 -0.0284100801
C   C8        1.0  0.35630  0.49830  0.06700  1.0000 -0.0284100801
C   C9        1.0  0.14290  0.09820  0.02830  1.0000 -0.136813015
C   C10       1.0  0.56990  0.11460  0.47170  1.0000 -0.136813015
C   C11       1.0  0.93010  0.40180  0.54470  1.0000 -0.136813015
C   C12       1.0  0.35710  0.38540  0.95530  1.0000 -0.136813015
C   C13       1.0  0.08270  0.01920  0.93510  1.0000 0.0710264462
C   C14       1.0  0.58410  0.14760  0.56490  1.0000 0.0710264462
C   C15       1.0  0.91590  0.48080  0.56350  1.0000 0.0710264462
C   C16       1.0  0.41730  0.35240  0.93650  1.0000 0.0710264462
C   C17       1.0  0.08270  0.89790  0.81380  1.0000 0.0710264462
C   C18       1.0  0.58410  0.26890  0.68620  1.0000 0.0710264462
C   C19       1.0  0.91590  0.60210  0.68480  1.0000 0.0710264462
C   C20       1.0  0.41730  0.23110  0.81520  1.0000 0.0710264462
C   C21       1.0  0.16480  0.85280  0.82680  1.0000 -0.136813015
C   C22       1.0  0.52600  0.33800  0.67320  1.0000 -0.136813015
C   C23       1.0  0.97400  0.64720  0.81200  1.0000 -0.136813015
C   C24       1.0  0.33520  0.16200  0.68800  1.0000 -0.136813015
C   C25       1.0  0.16400  0.74020  0.71240  1.0000 -0.0381209428
C   C26       1.0  0.52780  0.45160  0.78760  1.0000 -0.0381209428
C   C27       1.0  0.97220  0.75980  0.92380  1.0000 -0.0381209428
C   C28       1.0  0.33600  0.04840  0.57620  1.0000 -0.0381209428
C   C29       1.0  0.24950  0.69580  0.72410  1.0000 0.6385546498
C   C30       1.0  0.47170  0.52540  0.77590  1.0000 0.6385546498
C   C31       1.0  0.02830  0.80420  0.05370  1.0000 0.6385546498
C   C32       1.0  0.25050  0.97460  0.44630  1.0000 0.6385546498
C   C33       1.0  0.08322  0.67182  0.58840  1.0000 -0.0904404231
C   C34       1.0  0.58342  0.49482  0.91160  1.0000 -0.0904404231
C   C35       1.0  0.91658  0.82818  0.91140  1.0000 -0.0904404231
C   C36       1.0  0.41678  0.00518  0.58860  1.0000 -0.0904404231
C   C37       1.0  0.00210  0.71560  0.57610  1.0000 -0.0381209428
C   C38       1.0  0.63950  0.42600  0.92390  1.0000 -0.0381209428
C   C39       1.0  0.86050  0.78440  0.78650  1.0000 -0.0381209428
C   C40       1.0  0.49790  0.07400  0.71350  1.0000 -0.0381209428
C   C41       1.0  0.91700  0.64110  0.44670  1.0000 0.6385546498
C   C42       1.0  0.69440  0.47030  0.05330  1.0000 0.6385546498
C   C43       1.0  0.80560  0.85890  0.77590  1.0000 0.6385546498
C   C44       1.0  0.58300  0.02970  0.72410  1.0000 0.6385546498
C   C45       1.0  0.00120  0.82840  0.68760  1.0000 -0.136813015
C   C46       1.0  0.64080  0.31360  0.81240  1.0000 -0.136813015
C   C47       1.0  0.85920  0.67160  0.67280  1.0000 -0.136813015
C   C48       1.0  0.49880  0.18640  0.82720  1.0000 -0.136813015
C   C49       1.0  0.02350  0.05260  0.95570  1.0000 -0.136813015
C   C50       1.0  0.59690  0.06780  0.54430  1.0000 -0.136813015
C   C51       1.0  0.90310  0.44740  0.47090  1.0000 -0.136813015
C   C52       1.0  0.47650  0.43220  0.02910  1.0000 -0.136813015
C   C53       1.0  0.02210  0.16580  0.06690  1.0000 -0.0381209428
C   C54       1.0  0.59890  0.95520  0.43310  1.0000 -0.0381209428
C   C55       1.0  0.90110  0.33420  0.35630  1.0000 -0.0381209428
C   C56       1.0  0.47790  0.54480  0.14370  1.0000 -0.0381209428
C   C57       1.0  0.08360  0.24500  0.16180  1.0000 -0.0984219768
C   C58       1.0  0.58320  0.92180  0.33820  1.0000 -0.0984219768
C   C59       1.0  0.91680  0.25500  0.33860  1.0000 -0.0984219768
C   C60       1.0  0.41640  0.57820  0.16140  1.0000 -0.0984219768
C   C61       1.0  0.95510  0.20320  0.08430  1.0000 0.6385546498
C   C62       1.0  0.61890  0.87080  0.41570  1.0000 0.6385546498
C   C63       1.0  0.88110  0.29680  0.25190  1.0000 0.6385546498
C   C64       1.0  0.54490  0.62920  0.24810  1.0000 0.6385546498
C   C65       1.0  0.28780  0.53900  0.41980  1.0000 0.6385546498
C   C66       1.0  0.61920  0.86800  0.08020  1.0000 0.6385546498
C   C67       1.0  0.88080  0.96100  0.24880  1.0000 0.6385546498
C   C68       1.0  0.21220  0.63200  0.25120  1.0000 0.6385546498
C   C69       1.0  0.26450  0.62100  0.43130  1.0000 -0.0284100801
C   C70       1.0  0.68970  0.83320  0.06870  1.0000 -0.0284100801
C   C71       1.0  0.81030  0.87900  0.14350  1.0000 -0.0284100801
C   C72       1.0  0.23550  0.66680  0.35650  1.0000 -0.0284100801
C   C73       1.0  0.25000  0.58910  0.33910  1.0000 -0.0904404231
C   C74       1.0  0.75000  0.91090  0.16090  1.0000 -0.0904404231
C   C75       1.0  0.26280  0.73510  0.54330  1.0000 -0.136813015
C   C76       1.0  0.69180  0.71950  0.95670  1.0000 -0.136813015
C   C77       1.0  0.80820  0.76490  0.02770  1.0000 -0.136813015
C   C78       1.0  0.23720  0.78050  0.47230  1.0000 -0.136813015
C   C79       1.0  0.25000  0.81410  0.56410  1.0000 0.0710264462
C   C80       1.0  0.75000  0.68590  0.93590  1.0000 0.0710264462
C   C81       1.0  0.25000  0.93630  0.68630  1.0000 0.0750405612
C   C82       1.0  0.75000  0.56370  0.81370  1.0000 0.0750405612
C   C83       1.0  0.30650  0.98040  0.81030  1.0000 -0.136813015
C   C84       1.0  0.67010  0.49620  0.68970  1.0000 -0.136813015
C   C85       1.0  0.82990  0.51960  0.82610  1.0000 -0.136813015
C   C86       1.0  0.19350  0.00380  0.67390  1.0000 -0.136813015
C   C87       1.0  0.30640  0.09320  0.92440  1.0000 -0.0284100801
C   C88       1.0  0.66880  0.38200  0.57560  1.0000 -0.0284100801
C   C89       1.0  0.83120  0.40680  0.71320  1.0000 -0.0284100801
C   C90       1.0  0.19360  0.11800  0.78680  1.0000 -0.0284100801
C   C91       1.0  0.25000  0.16190  0.91190  1.0000 -0.0904404231
C   C92       1.0  0.75000  0.33810  0.58810  1.0000 -0.0904404231
C   C93       1.0  0.36120  0.13760  0.05400  1.0000 0.6385546498
C   C94       1.0  0.58360  0.30720  0.44600  1.0000 0.6385546498
C   C95       1.0  0.91640  0.36240  0.72360  1.0000 0.6385546498
C   C96       1.0  0.13880  0.19280  0.77640  1.0000 0.6385546498
O   O1        1.0  0.24837  0.27087  0.21190  1.0000 -0.6409523415
O   O2        1.0  0.55897  0.03647  0.28810  1.0000 -0.6409523415
O   O3        1.0  0.94103  0.22913  0.47750  1.0000 -0.6409523415
O   O4        1.0  0.25163  0.46353  0.02250  1.0000 -0.6409523415
O   O5        1.0  0.23053  0.38483  0.36710  1.0000 -0.6049834815
O   O6        1.0  0.51773  0.86343  0.13290  1.0000 -0.6049834815
O   O7        1.0  0.98227  0.11517  0.34570  1.0000 -0.6049834815
O   O8        1.0  0.26947  0.63657  0.15430  1.0000 -0.6049834815
O   O9        1.0  0.93561  0.30371  0.15450  1.0000 -0.6120620099
O   O10       1.0  0.64921  0.78111  0.34550  1.0000 -0.6120620099
O   O11       1.0  0.85079  0.19629  0.13190  1.0000 -0.6120620099
O   O12       1.0  0.56439  0.71889  0.36810  1.0000 -0.6120620099
O   O13       1.0  0.91852  0.13002  0.02270  1.0000 -0.6451397863
O   O14       1.0  0.60732  0.89582  0.47730  1.0000 -0.6451397863
O   O15       1.0  0.89268  0.36998  0.28850  1.0000 -0.6451397863
O   O16       1.0  0.58148  0.60418  0.21150  1.0000 -0.6451397863
O   O17       1.0  0.84098  0.68448  0.42170  1.0000 -0.6333246854
O   O18       1.0  0.76278  0.41928  0.07830  1.0000 -0.6333246854
O   O19       1.0  0.73722  0.81552  0.65650  1.0000 -0.6333246854
O   O20       1.0  0.65902  0.08072  0.84350  1.0000 -0.6333246854
O   O21       1.0  0.92520  0.53670  0.36630  1.0000 -0.6197119271
O   O22       1.0  0.67040  0.55890  0.13370  1.0000 -0.6197119271
O   O23       1.0  0.82960  0.96330  0.88850  1.0000 -0.6197119271
O   O24       1.0  0.57480  0.94110  0.61150  1.0000 -0.6197119271
O   O25       1.0  0.24132  0.60772  0.61120  1.0000 -0.6197119271
O   O26       1.0  0.49652  0.63012  0.88880  1.0000 -0.6197119271
O   O27       1.0  0.00348  0.89228  0.13360  1.0000 -0.6197119271
O   O28       1.0  0.25868  0.86988  0.36640  1.0000 -0.6197119271
O   O29       1.0  0.32599  0.74689  0.84330  1.0000 -0.6333246854
O   O30       1.0  0.40359  0.48269  0.65670  1.0000 -0.6333246854
O   O31       1.0  0.09641  0.75311  0.07910  1.0000 -0.6333246854
O   O32       1.0  0.17401  0.01731  0.42090  1.0000 -0.6333246854
O   O33       1.0  0.31616  0.44806  0.34590  1.0000 -0.6197119271
O   O34       1.0  0.60216  0.97026  0.15410  1.0000 -0.6197119271
O   O35       1.0  0.89784  0.05194  0.36810  1.0000 -0.6197119271
O   O36       1.0  0.18384  0.52974  0.13190  1.0000 -0.6197119271
O   O37       1.0  0.27432  0.56192  0.47760  1.0000 -0.6409523415
O   O38       1.0  0.58432  0.79672  0.02240  1.0000 -0.6409523415
O   O39       1.0  0.91568  0.93808  0.21240  1.0000 -0.6409523415
O   O40       1.0  0.22568  0.70328  0.28760  1.0000 -0.6409523415
O   O41       1.0  0.43010  0.08640  0.07930  1.0000 -0.6409523415
O   O42       1.0  0.50710  0.35080  0.42070  1.0000 -0.6409523415
O   O43       1.0  0.99290  0.41360  0.84370  1.0000 -0.6409523415
O   O44       1.0  0.06990  0.14920  0.65630  1.0000 -0.6409523415
O   O45       1.0  0.33710  0.22600  0.13430  1.0000 -0.6197119271
O   O46       1.0  0.59170  0.20280  0.36570  1.0000 -0.6197119271
O   O47       1.0  0.90830  0.27400  0.61110  1.0000 -0.6197119271
O   O48       1.0  0.16290  0.29720  0.88890  1.0000 -0.6197119271
O   O49       1.0  0.41382  0.41632  0.49730  1.0000 -1.0212091858
O   O50       1.0  0.41902  0.91652  0.00270  1.0000 -1.0212091858
O   O51       1.0  0.08098  0.08368  0.49750  1.0000 -1.0212091858
O   O52       1.0  0.08618  0.58348  0.00250  1.0000 -1.0212091858
O   O53       1.0  0.41751  0.16751  0.25000  1.0000 -1.0212091858
O   O54       1.0  0.08249  0.33249  0.75000  1.0000 -1.0212091858
O   O55       1.0  0.41580  0.66580  0.75000  1.0000 -1.0212091858
O   O56       1.0  0.08420  0.83420  0.25000  1.0000 -1.0252235261
O   O57       1.0  0.75090  0.50090  0.25000  1.0000 -1.0212091858
O   O58       1.0  0.74910  0.99910  0.75000  1.0000 -1.0212091858
O   O59       1.0  0.75240  0.25000  0.00240  1.0000 -1.0212091858
O   O60       1.0  0.74760  0.75000  0.49760  1.0000 -1.0212091858
