# DDEC6 charges by PACMAN v1.1 (https://github.com/mtap-research/PACMAN-charge/)
data_2011[Ni][nan]3[FSR]5
_chemical_formula_sum              "Ni4 H56 C80 N8 O18"
_cell_length_a       19.9489
_cell_length_b       17.9178
_cell_length_c       14.0243
_cell_angle_alpha    76.213
_cell_angle_beta     60.7276
_cell_angle_gamma    43.0594

_symmetry_space_group_name_H-M    "P 1"
_symmetry_Int_Tables_number       1

loop_
  _symmetry_equiv_pos_as_xyz
  'x, y, z'

loop_
  _atom_site_type_symbol
  _atom_site_label
  _atom_site_symmetry_multiplicity
  _atom_site_fract_x
  _atom_site_fract_y
  _atom_site_fract_z
  _atom_site_occupancy
  _atom_site_charge
Ni  Ni1       1.0  0.80082  0.00412  0.21810  1.0000 0.8169440801
Ni  Ni2       1.0  0.00412  0.80082  0.97696  1.0000 0.8169440801
Ni  Ni3       1.0  0.03190  0.27304  0.44918  1.0000 0.8169440801
Ni  Ni4       1.0  0.27304  0.03190  0.24588  1.0000 0.8169440801
H   H1        1.0  0.97620  0.78140  0.27560  1.0000 0.1169901388
H   H2        1.0  0.78140  0.97620  0.96680  1.0000 0.1169901388
H   H3        1.0  0.97440  0.28320  0.27380  1.0000 0.1169901388
H   H4        1.0  0.28320  0.97440  0.46860  1.0000 0.1169901388
H   H5        1.0  0.98950  0.69910  0.42490  1.0000 0.1389537032
H   H6        1.0  0.69910  0.98950  0.88650  1.0000 0.1389537032
H   H7        1.0  0.82510  0.36350  0.26050  1.0000 0.1389537032
H   H8        1.0  0.36350  0.82510  0.55090  1.0000 0.1389537032
H   H9        1.0  0.66940  0.97480  0.61920  1.0000 0.1305662121
H   H10       1.0  0.97480  0.66940  0.73660  1.0000 0.1305662121
H   H11       1.0  0.63080  0.51340  0.58060  1.0000 0.1305662121
H   H12       1.0  0.51340  0.63080  0.27520  1.0000 0.1305662121
H   H13       1.0  0.66350  0.05430  0.46630  1.0000 0.1018863137
H   H14       1.0  0.05430  0.66350  0.81590  1.0000 0.1018863137
H   H15       1.0  0.78370  0.43410  0.58650  1.0000 0.1018863137
H   H16       1.0  0.43410  0.78370  0.19570  1.0000 0.1018863137
H   H17       1.0  0.91290  0.70010  0.62010  1.0000 0.1018863137
H   H18       1.0  0.70010  0.91290  0.76690  1.0000 0.1018863137
H   H19       1.0  0.62990  0.48310  0.33710  1.0000 0.1018863137
H   H20       1.0  0.48310  0.62990  0.54990  1.0000 0.1018863137
H   H21       1.0  0.69750  0.80350  0.68030  1.0000 0.1018863137
H   H22       1.0  0.80350  0.69750  0.81870  1.0000 0.1018863137
H   H23       1.0  0.56970  0.43130  0.55250  1.0000 0.1018863137
H   H24       1.0  0.43130  0.56970  0.44650  1.0000 0.1018863137
H   H25       1.0  0.81910  0.67630  0.48930  1.0000 0.1475769343
H   H26       1.0  0.67630  0.81910  0.01530  1.0000 0.1475769343
H   H27       1.0  0.76070  0.23470  0.43090  1.0000 0.1475769343
H   H28       1.0  0.23470  0.76070  0.57370  1.0000 0.1475769343
H   H29       1.0  0.92290  0.50370  0.40550  1.0000 0.1169901388
H   H30       1.0  0.50370  0.92290  0.16790  1.0000 0.1169901388
H   H31       1.0  0.84450  0.08210  0.32710  1.0000 0.1169901388
H   H32       1.0  0.08210  0.84450  0.74630  1.0000 0.1169901388
H   H33       1.0  0.95350  0.37830  0.66770  1.0000 0.1169901388
H   H34       1.0  0.37830  0.95350  0.00050  1.0000 0.1169901388
H   H35       1.0  0.58230  0.24950  0.29650  1.0000 0.1169901388
H   H36       1.0  0.24950  0.58230  0.87170  1.0000 0.1169901388
H   H37       1.0  0.85510  0.54730  0.76030  1.0000 0.1305662121
H   H38       1.0  0.54730  0.85510  0.83730  1.0000 0.1305662121
H   H39       1.0  0.48970  0.41270  0.39490  1.0000 0.1305662121
H   H40       1.0  0.41270  0.48970  0.70270  1.0000 0.1305662121
H   H41       1.0  0.68480  0.26500  0.04760  1.0000 0.1169901388
H   H42       1.0  0.26500  0.68480  0.00260  1.0000 0.1169901388
H   H43       1.0  0.20240  0.24740  0.56520  1.0000 0.1169901388
H   H44       1.0  0.24740  0.20240  0.98500  1.0000 0.1169901388
H   H45       1.0  0.64860  0.40760  0.95300  1.0000 0.1086502634
H   H46       1.0  0.40760  0.64860  0.99080  1.0000 0.1086502634
H   H47       1.0  0.29700  0.25920  0.60140  1.0000 0.1086502634
H   H48       1.0  0.25920  0.29700  0.84240  1.0000 0.1086502634
H   H49       1.0  0.78240  0.36500  0.77320  1.0000 0.1018863137
H   H50       1.0  0.36500  0.78240  0.07940  1.0000 0.1018863137
H   H51       1.0  0.47680  0.17060  0.46760  1.0000 0.1018863137
H   H52       1.0  0.17060  0.47680  0.88500  1.0000 0.1018863137
H   H53       1.0  0.98890  0.03710  0.78230  1.0000 0.1169901388
H   H54       1.0  0.03710  0.98890  0.19170  1.0000 0.1169901388
H   H55       1.0  0.46770  0.05830  0.26110  1.0000 0.1169901388
H   H56       1.0  0.05830  0.46770  0.21290  1.0000 0.1169901388
C   C1        1.0  0.91290  0.82190  0.34630  1.0000 0.1086502634
C   C2        1.0  0.82190  0.91290  0.91890  1.0000 0.1086502634
C   C3        1.0  0.90370  0.33110  0.33710  1.0000 0.1086502634
C   C4        1.0  0.33110  0.90370  0.42810  1.0000 0.1086502634
C   C5        1.0  0.92090  0.77190  0.43530  1.0000 -0.2086269508
C   C6        1.0  0.77190  0.92090  0.87190  1.0000 -0.2086269508
C   C7        1.0  0.81470  0.37810  0.32910  1.0000 -0.2086269508
C   C8        1.0  0.37810  0.81470  0.47810  1.0000 -0.2086269508
C   C9        1.0  0.82880  0.82660  0.54180  1.0000 0.1305662121
C   C10       1.0  0.82660  0.82880  0.80280  1.0000 0.1305662121
C   C11       1.0  0.70820  0.44720  0.42120  1.0000 0.1305662121
C   C12       1.0  0.44720  0.70820  0.42340  1.0000 0.1305662121
C   C13       1.0  0.73380  0.93320  0.54940  1.0000 -0.2086269508
C   C14       1.0  0.93320  0.73380  0.78360  1.0000 -0.2086269508
C   C15       1.0  0.70060  0.46640  0.51620  1.0000 -0.2086269508
C   C16       1.0  0.46640  0.70060  0.31680  1.0000 -0.2086269508
C   C17       1.0  0.73070  0.98070  0.45710  1.0000 0.0823172728
C   C18       1.0  0.98070  0.73070  0.83150  1.0000 0.0823172728
C   C19       1.0  0.79290  0.41850  0.51930  1.0000 0.0823172728
C   C20       1.0  0.41850  0.79290  0.26930  1.0000 0.0823172728
C   C21       1.0  0.83420  0.76900  0.63880  1.0000 -0.102720232
C   C22       1.0  0.76900  0.83420  0.75800  1.0000 -0.102720232
C   C23       1.0  0.61120  0.49200  0.41580  1.0000 -0.102720232
C   C24       1.0  0.49200  0.61120  0.48100  1.0000 -0.102720232
C   C25       1.0  0.76710  0.74310  0.68610  1.0000 -0.1119860391
C   C26       1.0  0.74310  0.76710  0.80370  1.0000 -0.1119860391
C   C27       1.0  0.56390  0.44630  0.48290  1.0000 -0.1119860391
C   C28       1.0  0.44630  0.56390  0.50690  1.0000 -0.1119860391
C   C29       1.0  0.82540  0.63280  0.63640  1.0000 0.1475769343
C   C30       1.0  0.63280  0.82540  0.90540  1.0000 0.1475769343
C   C31       1.0  0.61360  0.34460  0.42460  1.0000 0.1475769343
C   C32       1.0  0.34460  0.61360  0.61720  1.0000 0.1475769343
C   C33       1.0  0.84640  0.61700  0.52760  1.0000 -0.2086269508
C   C34       1.0  0.61700  0.84640  0.00900  1.0000 -0.2086269508
C   C35       1.0  0.72240  0.24100  0.40360  1.0000 -0.2086269508
C   C36       1.0  0.24100  0.72240  0.63300  1.0000 -0.2086269508
C   C37       1.0  0.90710  0.51390  0.47910  1.0000 0.1018863137
C   C38       1.0  0.51390  0.90710  0.09990  1.0000 0.1018863137
C   C39       1.0  0.77090  0.15010  0.34290  1.0000 0.1018863137
C   C40       1.0  0.15010  0.77090  0.73610  1.0000 0.1018863137
C   C41       1.0  0.92630  0.43930  0.63170  1.0000 0.1086502634
C   C42       1.0  0.43930  0.92630  0.00270  1.0000 0.1086502634
C   C43       1.0  0.61830  0.24730  0.32370  1.0000 0.1086502634
C   C44       1.0  0.24730  0.61830  0.81070  1.0000 0.1086502634
C   C45       1.0  0.86690  0.54110  0.68770  1.0000 -0.2216263649
C   C46       1.0  0.54110  0.86690  0.90430  1.0000 -0.2216263649
C   C47       1.0  0.56230  0.34570  0.38310  1.0000 -0.2216263649
C   C48       1.0  0.34570  0.56230  0.70890  1.0000 -0.2216263649
C   C49       1.0  0.84040  0.13740  0.92400  1.0000 -0.018463751
C   C50       1.0  0.13740  0.84040  0.09820  1.0000 -0.018463751
C   C51       1.0  0.32600  0.15180  0.40960  1.0000 -0.018463751
C   C52       1.0  0.15180  0.32600  0.11260  1.0000 -0.018463751
C   C53       1.0  0.73880  0.24780  0.97500  1.0000 -0.102720232
C   C54       1.0  0.24780  0.73880  0.03840  1.0000 -0.102720232
C   C55       1.0  0.27500  0.21160  0.51120  1.0000 -0.102720232
C   C56       1.0  0.21160  0.27500  0.00220  1.0000 -0.102720232
C   C57       1.0  0.71720  0.33280  0.91860  1.0000 -0.1119860391
C   C58       1.0  0.33280  0.71720  0.03140  1.0000 -0.1119860391
C   C59       1.0  0.33140  0.21860  0.53280  1.0000 -0.1119860391
C   C60       1.0  0.21860  0.33140  0.91720  1.0000 -0.1119860391
C   C61       1.0  0.79700  0.30740  0.81140  1.0000 -0.1119860391
C   C62       1.0  0.30740  0.79700  0.08420  1.0000 -0.1119860391
C   C63       1.0  0.43860  0.16580  0.45300  1.0000 -0.1119860391
C   C64       1.0  0.16580  0.43860  0.94260  1.0000 -0.1119860391
C   C65       1.0  0.89870  0.19690  0.76030  1.0000 -0.018463751
C   C66       1.0  0.19690  0.89870  0.14410  1.0000 -0.018463751
C   C67       1.0  0.48970  0.10590  0.35130  1.0000 -0.018463751
C   C68       1.0  0.10590  0.48970  0.05310  1.0000 -0.018463751
C   C69       1.0  0.92030  0.11190  0.81670  1.0000 -0.1119860391
C   C70       1.0  0.11190  0.92030  0.15110  1.0000 -0.1119860391
C   C71       1.0  0.43330  0.09890  0.32970  1.0000 -0.1119860391
C   C72       1.0  0.09890  0.43330  0.13810  1.0000 -0.1119860391
C   C73       1.0  0.85940  0.04800  0.98860  1.0000 0.560008722
C   C74       1.0  0.04800  0.85940  0.10400  1.0000 0.560008722
C   C75       1.0  0.26140  0.14600  0.39060  1.0000 0.560008722
C   C76       1.0  0.14600  0.26140  0.20200  1.0000 0.560008722
C   C77       1.0  0.97970  0.17390  0.64150  1.0000 0.560008722
C   C78       1.0  0.17390  0.97970  0.20490  1.0000 0.560008722
C   C79       1.0  0.60850  0.04510  0.27030  1.0000 0.560008722
C   C80       1.0  0.04510  0.60850  0.07610  1.0000 0.560008722
N   N1        1.0  0.81890  0.92690  0.35430  1.0000 -0.2216263649
N   N2        1.0  0.92690  0.81890  0.89990  1.0000 -0.2216263649
N   N3        1.0  0.89570  0.35010  0.43110  1.0000 -0.2216263649
N   N4        1.0  0.35010  0.89570  0.32310  1.0000 -0.2216263649
N   N5        1.0  0.94511  0.42691  0.52929  1.0000 -0.2216263649
N   N6        1.0  0.42691  0.94511  0.09869  1.0000 -0.2216263649
N   N7        1.0  0.72071  0.15131  0.30489  1.0000 -0.2216263649
N   N8        1.0  0.15131  0.72071  0.82309  1.0000 -0.2216263649
O   O1        1.0  0.78290  0.07990  0.08470  1.0000 -0.5166166921
O   O2        1.0  0.07990  0.78290  0.05250  1.0000 -0.5166166921
O   O3        1.0  0.16530  0.19750  0.46710  1.0000 -0.5166166921
O   O4        1.0  0.19750  0.16530  0.17010  1.0000 -0.5166166921
O   O5        1.0  0.94975  0.94935  0.93805  1.0000 -0.5435507124
O   O6        1.0  0.94935  0.94975  0.16285  1.0000 -0.5435507124
O   O7        1.0  0.31195  0.08715  0.30025  1.0000 -0.5435507124
O   O8        1.0  0.08715  0.31195  0.30065  1.0000 -0.5435507124
O   O9        1.0  0.06363  0.07423  0.58697  1.0000 -0.5166166921
O   O10       1.0  0.07423  0.06363  0.27517  1.0000 -0.5166166921
O   O11       1.0  0.66303  0.97483  0.18637  1.0000 -0.5166166921
O   O12       1.0  0.97483  0.66303  0.17577  1.0000 -0.5166166921
O   O13       1.0  0.95670  0.25830  0.60590  1.0000 -0.5644198482
O   O14       1.0  0.25830  0.95670  0.17910  1.0000 -0.5644198482
O   O15       1.0  0.64410  0.07090  0.29330  1.0000 -0.5644198482
O   O16       1.0  0.07090  0.64410  0.99170  1.0000 -0.5644198482
O   O17       1.0  0.86590  0.86590  0.13410  1.0000 -0.2862840866
O   O18       1.0  0.11590  0.11590  0.38410  1.0000 -0.2862840866
