# DDEC6 charges by PACMAN v1.1 (https://github.com/mtap-research/PACMAN-charge/)
data_2011[Co][xbe]3[FSR]1
_chemical_formula_sum              "Co3 H16 C20 N12 O12"
_cell_length_a       8.2152
_cell_length_b       8.9387
_cell_length_c       12.5829
_cell_angle_alpha    67.918
_cell_angle_beta     75.5225
_cell_angle_gamma    73.275

_symmetry_space_group_name_H-M    "P 1"
_symmetry_Int_Tables_number       1

loop_
  _symmetry_equiv_pos_as_xyz
  'x, y, z'

loop_
  _atom_site_type_symbol
  _atom_site_label
  _atom_site_symmetry_multiplicity
  _atom_site_fract_x
  _atom_site_fract_y
  _atom_site_fract_z
  _atom_site_occupancy
  _atom_site_charge
Co  Co1       1.0  0.50000  0.00000  0.50000  1.0000 0.8691667418
Co  Co2       1.0  0.96792  0.87662  0.17923  1.0000 0.8103889326
Co  Co3       1.0  0.03208  0.12338  0.82077  1.0000 0.8103889326
H   H1        1.0  0.73460  0.10020  0.25870  1.0000 0.3986122708
H   H2        1.0  0.26540  0.89980  0.74130  1.0000 0.3986122708
H   H3        1.0  0.77830  0.17020  0.13370  1.0000 0.3746402363
H   H4        1.0  0.22170  0.82980  0.86630  1.0000 0.3753521542
H   H5        1.0  0.20040  0.60470  0.21100  1.0000 0.4067730407
H   H6        1.0  0.79960  0.39530  0.78900  1.0000 0.4067730407
H   H7        1.0  0.21980  0.69370  0.08720  1.0000 0.3875121574
H   H8        1.0  0.78020  0.30630  0.91280  1.0000 0.3875121574
H   H9        1.0  0.02900  0.77500  0.44900  1.0000 0.1292886188
H   H10       1.0  0.97100  0.22500  0.55100  1.0000 0.1292886188
H   H11       1.0  0.19600  0.83170  0.54440  1.0000 0.1192910324
H   H12       1.0  0.80400  0.16830  0.45560  1.0000 0.1192910324
H   H13       1.0  0.42270  0.08780  0.24770  1.0000 0.1292886188
H   H14       1.0  0.57730  0.91220  0.75230  1.0000 0.1292886188
H   H15       1.0  0.62190  0.56100  0.30620  1.0000 0.1292886188
H   H16       1.0  0.37810  0.43900  0.69380  1.0000 0.1292886188
C   C1        1.0  0.24160  0.06310  0.10680  1.0000 0.2123416315
C   C2        1.0  0.75840  0.93690  0.89320  1.0000 0.2123416315
C   C3        1.0  0.23770  0.99430  0.23250  1.0000 0.1388917665
C   C4        1.0  0.76230  0.00570  0.76750  1.0000 0.1388917665
C   C5        1.0  0.10820  0.84060  0.40620  1.0000 0.0540743048
C   C6        1.0  0.89180  0.15940  0.59380  1.0000 0.0540743048
C   C7        1.0  0.21010  0.87360  0.46380  1.0000 0.0221977351
C   C8        1.0  0.78990  0.12640  0.53620  1.0000 0.0221977351
C   C9        1.0  0.34150  0.02440  0.29040  1.0000 0.0221977351
C   C10       1.0  0.65850  0.97560  0.70960  1.0000 0.0221977351
C   C11       1.0  0.46690  0.42350  0.43120  1.0000 -0.0521250585
C   C12       1.0  0.53310  0.57650  0.56880  1.0000 -0.0521250585
C   C13       1.0  0.39200  0.38650  0.54860  1.0000 -0.0590515466
C   C14       1.0  0.60800  0.61350  0.45140  1.0000 -0.0590515466
C   C15       1.0  0.57300  0.53640  0.38420  1.0000 -0.1534320315
C   C16       1.0  0.42700  0.46360  0.61580  1.0000 -0.1534320315
C   C17       1.0  0.44830  0.33890  0.35280  1.0000 0.5729601483
C   C18       1.0  0.55170  0.66110  0.64720  1.0000 0.5729601483
C   C19       1.0  0.27500  0.26590  0.60620  1.0000 0.581650267
C   C20       1.0  0.72500  0.73410  0.39380  1.0000 0.581650267
N   N1        1.0  0.13400  0.03314  0.05806  1.0000 -0.296587353
N   N2        1.0  0.86600  0.96686  0.94194  1.0000 -0.296587353
N   N3        1.0  0.16660  0.11838  0.94512  1.0000 -0.066726792
N   N4        1.0  0.83340  0.88162  0.05488  1.0000 -0.066726792
N   N5        1.0  0.29040  0.19540  0.92680  1.0000 -0.066726792
N   N6        1.0  0.70960  0.80460  0.07320  1.0000 -0.066726792
N   N7        1.0  0.34000  0.16210  0.02850  1.0000 -0.2532721063
N   N8        1.0  0.66000  0.83790  0.97150  1.0000 -0.2532721063
N   N9        1.0  0.12090  0.90056  0.29104  1.0000 -0.2269597327
N   N10       1.0  0.87910  0.09944  0.70896  1.0000 -0.2269597327
N   N11       1.0  0.32800  0.96426  0.40614  1.0000 -0.1945804705
N   N12       1.0  0.67200  0.03574  0.59386  1.0000 -0.1952259739
O   O1        1.0  0.34400  0.40830  0.28520  1.0000 -0.50885879
O   O2        1.0  0.65600  0.59170  0.71480  1.0000 -0.50885879
O   O3        1.0  0.54820  0.19885  0.35965  1.0000 -0.5882217785
O   O4        1.0  0.45180  0.80115  0.64035  1.0000 -0.5882217785
O   O5        1.0  0.29350  0.14732  0.57058  1.0000 -0.5742429396
O   O6        1.0  0.70650  0.85268  0.42942  1.0000 -0.5742429396
O   O7        1.0  0.16170  0.29170  0.68900  1.0000 -0.5245586534
O   O8        1.0  0.83830  0.70830  0.31100  1.0000 -0.5245586534
O   O9        1.0  0.79910  0.09171  0.19599  1.0000 -0.6878928145
O   O10       1.0  0.20090  0.90829  0.80401  1.0000 -0.6878928145
O   O11       1.0  0.15580  0.67673  0.15327  1.0000 -0.6707768341
O   O12       1.0  0.84420  0.32327  0.84673  1.0000 -0.6707768341
