# DDEC6 charges by PACMAN v1.1 (https://github.com/mtap-research/PACMAN-charge/)
data_2011[Zn][nan]3[FSR]18
_chemical_formula_sum              "Zn4 H24 C48 S8 N8 O16"
_cell_length_a       12.8365
_cell_length_b       12.8365
_cell_length_c       11.174
_cell_angle_alpha    83.8803
_cell_angle_beta     96.1197
_cell_angle_gamma    117.852

_symmetry_space_group_name_H-M    "P 1"
_symmetry_Int_Tables_number       1

loop_
  _symmetry_equiv_pos_as_xyz
  'x, y, z'

loop_
  _atom_site_type_symbol
  _atom_site_label
  _atom_site_symmetry_multiplicity
  _atom_site_fract_x
  _atom_site_fract_y
  _atom_site_fract_z
  _atom_site_occupancy
  _atom_site_charge
Zn  Zn1       1.0  0.50159  0.02679  0.86561  1.0000 0.855794037
Zn  Zn2       1.0  0.02679  0.50159  0.63439  1.0000 0.855794037
Zn  Zn3       1.0  0.49841  0.97321  0.13439  1.0000 0.855794037
Zn  Zn4       1.0  0.97321  0.49841  0.36561  1.0000 0.855794037
H   H1        1.0  0.20330  0.69050  0.76510  1.0000 0.121020729
H   H2        1.0  0.69050  0.20330  0.73490  1.0000 0.121020729
H   H3        1.0  0.79670  0.30950  0.23490  1.0000 0.121020729
H   H4        1.0  0.30950  0.79670  0.26510  1.0000 0.121020729
H   H5        1.0  0.25380  0.60220  0.11090  1.0000 0.1334850213
H   H6        1.0  0.60220  0.25380  0.38910  1.0000 0.1334850213
H   H7        1.0  0.74620  0.39780  0.88910  1.0000 0.1334850213
H   H8        1.0  0.39780  0.74620  0.61090  1.0000 0.1334850213
H   H9        1.0  0.11080  0.41100  0.08110  1.0000 0.1334850213
H   H10       1.0  0.41100  0.11080  0.41890  1.0000 0.1334850213
H   H11       1.0  0.88920  0.58900  0.91890  1.0000 0.1334850213
H   H12       1.0  0.58900  0.88920  0.58110  1.0000 0.1334850213
H   H13       1.0  0.19640  0.03840  0.18070  1.0000 0.1062253009
H   H14       1.0  0.03840  0.19640  0.31930  1.0000 0.1062253009
H   H15       1.0  0.80360  0.96160  0.81930  1.0000 0.1062253009
H   H16       1.0  0.96160  0.80360  0.68070  1.0000 0.1062253009
H   H17       1.0  0.25920  0.17260  0.84670  1.0000 0.121020729
H   H18       1.0  0.17260  0.25920  0.65330  1.0000 0.121020729
H   H19       1.0  0.74080  0.82740  0.15330  1.0000 0.121020729
H   H20       1.0  0.82740  0.74080  0.34670  1.0000 0.121020729
H   H21       1.0  0.12020  0.23620  0.85030  1.0000 0.121020729
H   H22       1.0  0.23620  0.12020  0.64970  1.0000 0.121020729
H   H23       1.0  0.87980  0.76380  0.14970  1.0000 0.121020729
H   H24       1.0  0.76380  0.87980  0.35030  1.0000 0.121020729
C   C1        1.0  0.33940  0.79000  0.95480  1.0000 0.5886817447
C   C2        1.0  0.79000  0.33940  0.54520  1.0000 0.5886817447
C   C3        1.0  0.66060  0.21000  0.04520  1.0000 0.5886817447
C   C4        1.0  0.21000  0.66060  0.45480  1.0000 0.5886817447
C   C5        1.0  0.24510  0.66667  0.94000  1.0000 -0.0924442315
C   C6        1.0  0.66667  0.24510  0.56000  1.0000 -0.0924442315
C   C7        1.0  0.75490  0.33333  0.06000  1.0000 -0.0924442315
C   C8        1.0  0.33333  0.75490  0.44000  1.0000 -0.0924442315
C   C9        1.0  0.18410  0.63410  0.82970  1.0000 0.0752333368
C   C10       1.0  0.63410  0.18410  0.67030  1.0000 0.0752333368
C   C11       1.0  0.81590  0.36590  0.17030  1.0000 0.0752333368
C   C12       1.0  0.36590  0.81590  0.32970  1.0000 0.0752333368
C   C13       1.0  0.21550  0.58230  0.03510  1.0000 -0.0311763358
C   C14       1.0  0.58230  0.21550  0.46490  1.0000 -0.0311763358
C   C15       1.0  0.78450  0.41770  0.96490  1.0000 -0.0311763358
C   C16       1.0  0.41770  0.78450  0.53510  1.0000 -0.0311763358
C   C17       1.0  0.13000  0.46880  0.01800  1.0000 -0.1811496072
C   C18       1.0  0.46880  0.13000  0.48200  1.0000 -0.1811496072
C   C19       1.0  0.87000  0.53120  0.98200  1.0000 -0.1811496072
C   C20       1.0  0.53120  0.87000  0.51800  1.0000 -0.1811496072
C   C21       1.0  0.07270  0.44250  0.90470  1.0000 0.1839562899
C   C22       1.0  0.44250  0.07270  0.59530  1.0000 0.1839562899
C   C23       1.0  0.92730  0.55750  0.09530  1.0000 0.1839562899
C   C24       1.0  0.55750  0.92730  0.40470  1.0000 0.1839562899
C   C25       1.0  0.07250  0.16470  0.01200  1.0000 0.1923926196
C   C26       1.0  0.16470  0.07250  0.48800  1.0000 0.1923926196
C   C27       1.0  0.92750  0.83530  0.98800  1.0000 0.1923926196
C   C28       1.0  0.83530  0.92750  0.51200  1.0000 0.1923926196
C   C29       1.0  0.18190  0.07830  0.11180  1.0000 0.0472040943
C   C30       1.0  0.07830  0.18190  0.38820  1.0000 0.0472040943
C   C31       1.0  0.81810  0.92170  0.88820  1.0000 0.0472040943
C   C32       1.0  0.92170  0.81810  0.61180  1.0000 0.0472040943
C   C33       1.0  0.24790  0.10150  0.01360  1.0000 -0.0988162437
C   C34       1.0  0.10150  0.24790  0.48640  1.0000 -0.0988162437
C   C35       1.0  0.75210  0.89850  0.98640  1.0000 -0.0988162437
C   C36       1.0  0.89850  0.75210  0.51360  1.0000 -0.0988162437
C   C37       1.0  0.21940  0.15760  0.91640  1.0000 -0.0403592267
C   C38       1.0  0.15760  0.21940  0.58360  1.0000 -0.0403592267
C   C39       1.0  0.78060  0.84240  0.08360  1.0000 -0.0403592267
C   C40       1.0  0.84240  0.78060  0.41640  1.0000 -0.0403592267
C   C41       1.0  0.34010  0.06370  0.01420  1.0000 0.5886817447
C   C42       1.0  0.06370  0.34010  0.48580  1.0000 0.5886817447
C   C43       1.0  0.65990  0.93630  0.98580  1.0000 0.5886817447
C   C44       1.0  0.93630  0.65990  0.51420  1.0000 0.5886817447
C   C45       1.0  0.13420  0.19300  0.91650  1.0000 -0.1882140056
C   C46       1.0  0.19300  0.13420  0.58350  1.0000 -0.1882140056
C   C47       1.0  0.86580  0.80700  0.08350  1.0000 -0.1882140056
C   C48       1.0  0.80700  0.86580  0.41650  1.0000 -0.1882140056
S   S1        1.0  0.95369  0.19843  0.02025  1.0000 0.0157840944
S   S2        1.0  0.19843  0.95369  0.47975  1.0000 0.0157840944
S   S3        1.0  0.04631  0.80157  0.97975  1.0000 0.0157840944
S   S4        1.0  0.80157  0.04631  0.52025  1.0000 0.0157840944
S   S5        1.0  0.95949  0.30013  0.86831  1.0000 0.0389794319
S   S6        1.0  0.30013  0.95949  0.63169  1.0000 0.0389794319
S   S7        1.0  0.04051  0.69987  0.13169  1.0000 0.0389794319
S   S8        1.0  0.69987  0.04051  0.36831  1.0000 0.0389794319
N   N1        1.0  0.09510  0.11250  0.11030  1.0000 -0.2630427334
N   N2        1.0  0.11250  0.09510  0.38970  1.0000 -0.2630427334
N   N3        1.0  0.90490  0.88750  0.88970  1.0000 -0.2650237137
N   N4        1.0  0.88750  0.90490  0.61030  1.0000 -0.2650237137
N   N5        1.0  0.09770  0.52390  0.81170  1.0000 -0.2630427334
N   N6        1.0  0.52390  0.09770  0.68830  1.0000 -0.2630427334
N   N7        1.0  0.90230  0.47610  0.18830  1.0000 -0.2630427334
N   N8        1.0  0.47610  0.90230  0.31170  1.0000 -0.2630427334
O   O1        1.0  0.37260  0.02700  0.11340  1.0000 -0.533020293
O   O2        1.0  0.02700  0.37260  0.38660  1.0000 -0.533020293
O   O3        1.0  0.62740  0.97300  0.88660  1.0000 -0.533020293
O   O4        1.0  0.97300  0.62740  0.61340  1.0000 -0.533020293
O   O5        1.0  0.37990  0.07030  0.91420  1.0000 -0.5475627833
O   O6        1.0  0.07030  0.37990  0.58580  1.0000 -0.5475627833
O   O7        1.0  0.62010  0.92970  0.08580  1.0000 -0.5475627833
O   O8        1.0  0.92970  0.62010  0.41420  1.0000 -0.5475627833
O   O9        1.0  0.37440  0.81860  0.06090  1.0000 -0.5475627833
O   O10       1.0  0.81860  0.37440  0.43910  1.0000 -0.5475627833
O   O11       1.0  0.62560  0.18140  0.93910  1.0000 -0.5475627833
O   O12       1.0  0.18140  0.62560  0.56090  1.0000 -0.5475627833
O   O13       1.0  0.37780  0.85620  0.86170  1.0000 -0.5355834567
O   O14       1.0  0.85620  0.37780  0.63830  1.0000 -0.5355834567
O   O15       1.0  0.62220  0.14380  0.13830  1.0000 -0.5355834567
O   O16       1.0  0.14380  0.62220  0.36170  1.0000 -0.5355834567
