# DDEC6 charges by PACMAN v1.1 (https://github.com/mtap-research/PACMAN-charge/)
data_2011[Cu][nbo]3[FSR]1
_chemical_formula_sum              "Cu3 H48 C54 N6 O12"
_cell_length_a       15.6408
_cell_length_b       15.6408
_cell_length_c       15.6408
_cell_angle_alpha    117.324
_cell_angle_beta     117.324
_cell_angle_gamma    117.324

_symmetry_space_group_name_H-M    "P 1"
_symmetry_Int_Tables_number       1

loop_
  _symmetry_equiv_pos_as_xyz
  'x, y, z'

loop_
  _atom_site_type_symbol
  _atom_site_label
  _atom_site_symmetry_multiplicity
  _atom_site_fract_x
  _atom_site_fract_y
  _atom_site_fract_z
  _atom_site_occupancy
  _atom_site_charge
Cu  Cu1       1.0  0.50000  0.00000  0.50000  1.0000 0.7928964277
Cu  Cu2       1.0  0.00000  0.50000  0.50000  1.0000 0.7928964277
Cu  Cu3       1.0  0.50000  0.50000  0.00000  1.0000 0.7928964277
H   H1        1.0  0.45982  0.13200  0.18960  1.0000 0.1532249033
H   H2        1.0  0.13200  0.18960  0.45982  1.0000 0.1532249033
H   H3        1.0  0.18960  0.45982  0.13200  1.0000 0.1532249033
H   H4        1.0  0.54018  0.86800  0.81040  1.0000 0.1532249033
H   H5        1.0  0.86800  0.81040  0.54018  1.0000 0.1532249033
H   H6        1.0  0.81040  0.54018  0.86800  1.0000 0.1532249033
H   H7        1.0  0.53642  0.24710  0.35970  1.0000 0.1532249033
H   H8        1.0  0.24710  0.35970  0.53642  1.0000 0.1532249033
H   H9        1.0  0.35970  0.53642  0.24710  1.0000 0.1532249033
H   H10       1.0  0.46358  0.75290  0.64030  1.0000 0.1532249033
H   H11       1.0  0.75290  0.64030  0.46358  1.0000 0.1532249033
H   H12       1.0  0.64030  0.46358  0.75290  1.0000 0.1532249033
H   H13       1.0  0.54782  0.30910  0.30490  1.0000 0.156487669
H   H14       1.0  0.30910  0.30490  0.54782  1.0000 0.156487669
H   H15       1.0  0.30490  0.54782  0.30910  1.0000 0.156487669
H   H16       1.0  0.45218  0.69090  0.69510  1.0000 0.156487669
H   H17       1.0  0.69090  0.69510  0.45218  1.0000 0.156487669
H   H18       1.0  0.69510  0.45218  0.69090  1.0000 0.156487669
H   H19       1.0  0.79362  0.39890  0.59600  1.0000 0.156487669
H   H20       1.0  0.39890  0.59600  0.79362  1.0000 0.156487669
H   H21       1.0  0.59600  0.79362  0.39890  1.0000 0.156487669
H   H22       1.0  0.20638  0.60110  0.40400  1.0000 0.156487669
H   H23       1.0  0.60110  0.40400  0.20638  1.0000 0.156487669
H   H24       1.0  0.40400  0.20638  0.60110  1.0000 0.156487669
H   H25       1.0  0.93222  0.47590  0.80610  1.0000 0.1428882658
H   H26       1.0  0.47590  0.80610  0.93222  1.0000 0.1428882658
H   H27       1.0  0.80610  0.93222  0.47590  1.0000 0.1428882658
H   H28       1.0  0.06778  0.52410  0.19390  1.0000 0.1428882658
H   H29       1.0  0.52410  0.19390  0.06778  1.0000 0.1428882658
H   H30       1.0  0.19390  0.06778  0.52410  1.0000 0.1428882658
H   H31       1.0  0.38082  0.86120  0.04530  1.0000 0.131482013
H   H32       1.0  0.86120  0.04530  0.38082  1.0000 0.131482013
H   H33       1.0  0.04530  0.38082  0.86120  1.0000 0.131482013
H   H34       1.0  0.61918  0.13880  0.95470  1.0000 0.131482013
H   H35       1.0  0.13880  0.95470  0.61918  1.0000 0.131482013
H   H36       1.0  0.95470  0.61918  0.13880  1.0000 0.131482013
H   H37       1.0  0.54732  0.01640  0.31520  1.0000 0.1091226344
H   H38       1.0  0.01640  0.31520  0.54732  1.0000 0.1091226344
H   H39       1.0  0.31520  0.54732  0.01640  1.0000 0.1091226344
H   H40       1.0  0.45268  0.98360  0.68480  1.0000 0.1091226344
H   H41       1.0  0.98360  0.68480  0.45268  1.0000 0.1091226344
H   H42       1.0  0.68480  0.45268  0.98360  1.0000 0.1091226344
H   H43       1.0  0.11352  0.64390  0.08320  1.0000 0.1091226344
H   H44       1.0  0.64390  0.08320  0.11352  1.0000 0.1091226344
H   H45       1.0  0.08320  0.11352  0.64390  1.0000 0.1091226344
H   H46       1.0  0.88648  0.35610  0.91680  1.0000 0.1091226344
H   H47       1.0  0.35610  0.91680  0.88648  1.0000 0.1091226344
H   H48       1.0  0.91680  0.88648  0.35610  1.0000 0.1091226344
C   C1        1.0  0.55352  0.25280  0.30990  1.0000 -0.5216325939
C   C2        1.0  0.25280  0.30990  0.55352  1.0000 -0.5216325939
C   C3        1.0  0.30990  0.55352  0.25280  1.0000 -0.5216325939
C   C4        1.0  0.44648  0.74720  0.69010  1.0000 -0.5216325939
C   C5        1.0  0.74720  0.69010  0.44648  1.0000 -0.5216325939
C   C6        1.0  0.69010  0.44648  0.74720  1.0000 -0.5216325939
C   C7        1.0  0.73564  0.36220  0.42788  1.0000 0.4877484321
C   C8        1.0  0.36220  0.42788  0.73564  1.0000 0.4877484321
C   C9        1.0  0.42788  0.73564  0.36220  1.0000 0.4877484321
C   C10       1.0  0.26436  0.63780  0.57212  1.0000 0.4877484321
C   C11       1.0  0.63780  0.57212  0.26436  1.0000 0.4877484321
C   C12       1.0  0.57212  0.26436  0.63780  1.0000 0.4877484321
C   C13       1.0  0.84546  0.43517  0.58259  1.0000 -0.4833570441
C   C14       1.0  0.43517  0.58259  0.84546  1.0000 -0.4833570441
C   C15       1.0  0.58259  0.84546  0.43517  1.0000 -0.4833570441
C   C16       1.0  0.15454  0.56483  0.41741  1.0000 -0.4833570441
C   C17       1.0  0.56483  0.41741  0.15454  1.0000 -0.4833570441
C   C18       1.0  0.41741  0.15454  0.56483  1.0000 -0.4833570441
C   C19       1.0  0.02448  0.55662  0.71742  1.0000 0.3532364944
C   C20       1.0  0.55662  0.71742  0.02448  1.0000 0.3532364944
C   C21       1.0  0.71742  0.02448  0.55662  1.0000 0.3532364944
C   C22       1.0  0.97552  0.44338  0.28258  1.0000 0.3532364944
C   C23       1.0  0.44338  0.28258  0.97552  1.0000 0.3532364944
C   C24       1.0  0.28258  0.97552  0.44338  1.0000 0.3532364944
C   C25       1.0  0.13400  0.65081  0.89171  1.0000 0.0605503344
C   C26       1.0  0.65081  0.89171  0.13400  1.0000 0.0605503344
C   C27       1.0  0.89171  0.13400  0.65081  1.0000 0.0605503344
C   C28       1.0  0.86600  0.34919  0.10829  1.0000 0.0605503344
C   C29       1.0  0.34919  0.10829  0.86600  1.0000 0.0605503344
C   C30       1.0  0.10829  0.86600  0.34919  1.0000 0.0605503344
C   C31       1.0  0.05766  0.58707  0.90789  1.0000 -0.1842544795
C   C32       1.0  0.58707  0.90789  0.05766  1.0000 -0.1842544795
C   C33       1.0  0.90789  0.05766  0.58707  1.0000 -0.1842544795
C   C34       1.0  0.94234  0.41293  0.09211  1.0000 -0.1842544795
C   C35       1.0  0.41293  0.09211  0.94234  1.0000 -0.1842544795
C   C36       1.0  0.09211  0.94234  0.41293  1.0000 -0.1842544795
C   C37       1.0  0.32189  0.81398  0.04915  1.0000 -0.174819392
C   C38       1.0  0.81398  0.04915  0.32189  1.0000 -0.174819392
C   C39       1.0  0.04915  0.32189  0.81398  1.0000 -0.174819392
C   C40       1.0  0.67811  0.18602  0.95085  1.0000 -0.174819392
C   C41       1.0  0.18602  0.95085  0.67811  1.0000 -0.174819392
C   C42       1.0  0.95085  0.67811  0.18602  1.0000 -0.174819392
C   C43       1.0  0.42136  0.90640  0.21126  1.0000 0.077856417
C   C44       1.0  0.90640  0.21126  0.42136  1.0000 0.077856417
C   C45       1.0  0.21126  0.42136  0.90640  1.0000 0.077856417
C   C46       1.0  0.57864  0.09360  0.78874  1.0000 0.077856417
C   C47       1.0  0.09360  0.78874  0.57864  1.0000 0.077856417
C   C48       1.0  0.78874  0.57864  0.09360  1.0000 0.077856417
C   C49       1.0  0.16848  0.68926  0.07558  1.0000 0.0702617049
C   C50       1.0  0.68926  0.07558  0.16848  1.0000 0.0702617049
C   C51       1.0  0.07558  0.16848  0.68926  1.0000 0.0702617049
C   C52       1.0  0.83152  0.31074  0.92442  1.0000 0.0702617049
C   C53       1.0  0.31074  0.92442  0.83152  1.0000 0.0702617049
C   C54       1.0  0.92442  0.83152  0.31074  1.0000 0.0702617049
N   N1        1.0  0.34817  0.84802  0.22793  1.0000 -0.2569410027
N   N2        1.0  0.84802  0.22793  0.34817  1.0000 -0.2569410027
N   N3        1.0  0.22793  0.34817  0.84802  1.0000 -0.2569410027
N   N4        1.0  0.65183  0.15198  0.77207  1.0000 -0.2569410027
N   N5        1.0  0.15198  0.77207  0.65183  1.0000 -0.2569410027
N   N6        1.0  0.77207  0.65183  0.15198  1.0000 -0.2569410027
O   O1        1.0  0.11016  0.60357  0.71169  1.0000 -0.4685688884
O   O2        1.0  0.60357  0.71169  0.11016  1.0000 -0.4685688884
O   O3        1.0  0.71169  0.11016  0.60357  1.0000 -0.4685688884
O   O4        1.0  0.88984  0.39643  0.28831  1.0000 -0.4685688884
O   O5        1.0  0.39643  0.28831  0.88984  1.0000 -0.4685688884
O   O6        1.0  0.28831  0.88984  0.39643  1.0000 -0.4685688884
O   O7        1.0  0.77770  0.38214  0.37968  1.0000 -0.4685688884
O   O8        1.0  0.38214  0.37968  0.77770  1.0000 -0.4685688884
O   O9        1.0  0.37968  0.77770  0.38214  1.0000 -0.4685688884
O   O10       1.0  0.22230  0.61786  0.62032  1.0000 -0.4685688884
O   O11       1.0  0.61786  0.62032  0.22230  1.0000 -0.4685688884
O   O12       1.0  0.62032  0.22230  0.61786  1.0000 -0.4685688884
