# DDEC6 charges by PACMAN v1.1 (https://github.com/mtap-research/PACMAN-charge/)
data_2011[V][sra]3[FSR]1
_chemical_formula_sum              "V4 P4 H16 C12 O24"
_cell_length_a       6.3846
_cell_length_b       16.7722
_cell_length_c       10.0778
_cell_angle_alpha    90
_cell_angle_beta     118.464
_cell_angle_gamma    90

_symmetry_space_group_name_H-M    "P 1"
_symmetry_Int_Tables_number       1

loop_
  _symmetry_equiv_pos_as_xyz
  'x, y, z'

loop_
  _atom_site_type_symbol
  _atom_site_label
  _atom_site_symmetry_multiplicity
  _atom_site_fract_x
  _atom_site_fract_y
  _atom_site_fract_z
  _atom_site_occupancy
  _atom_site_charge
V   V1        1.0  0.79353  0.09853  0.56626  1.0000 1.8285010688
V   V2        1.0  0.20647  0.59853  0.93374  1.0000 1.8285010688
V   V3        1.0  0.20647  0.90147  0.43374  1.0000 1.8285010688
V   V4        1.0  0.79353  0.40147  0.06626  1.0000 1.8285010688
P   P1        1.0  0.24721  0.40762  0.99621  1.0000 1.4289657108
P   P2        1.0  0.75279  0.90762  0.50379  1.0000 1.4289657108
P   P3        1.0  0.75279  0.59238  0.00379  1.0000 1.4289657108
P   P4        1.0  0.24721  0.09238  0.49621  1.0000 1.4289657108
H   H1        1.0  0.05080  0.24030  0.97690  1.0000 0.1707002118
H   H2        1.0  0.94920  0.74030  0.52310  1.0000 0.1707002118
H   H3        1.0  0.94920  0.75970  0.02310  1.0000 0.1707002118
H   H4        1.0  0.05080  0.25970  0.47690  1.0000 0.1707002118
H   H5        1.0  0.28820  0.22440  0.97210  1.0000 0.1707002118
H   H6        1.0  0.71180  0.72440  0.52790  1.0000 0.1707002118
H   H7        1.0  0.71180  0.77560  0.02790  1.0000 0.1707002118
H   H8        1.0  0.28820  0.27560  0.47210  1.0000 0.1707002118
H   H9        1.0  0.20820  0.33130  0.80200  1.0000 0.1707002118
H   H10       1.0  0.79180  0.83130  0.69800  1.0000 0.1707002118
H   H11       1.0  0.79180  0.66870  0.19800  1.0000 0.1707002118
H   H12       1.0  0.20820  0.16870  0.30200  1.0000 0.1707002118
H   H13       1.0  0.96060  0.34510  0.79320  1.0000 0.1751315154
H   H14       1.0  0.03940  0.84510  0.70680  1.0000 0.1751315154
H   H15       1.0  0.03940  0.65490  0.20680  1.0000 0.1751315154
H   H16       1.0  0.96060  0.15490  0.29320  1.0000 0.1751315154
C   C1        1.0  0.01490  0.18860  0.80420  1.0000 0.491761782
C   C2        1.0  0.98510  0.68860  0.69580  1.0000 0.491761782
C   C3        1.0  0.98510  0.81140  0.19580  1.0000 0.491761782
C   C4        1.0  0.01490  0.31140  0.30420  1.0000 0.491761782
C   C5        1.0  0.12400  0.24130  0.91180  1.0000 -0.2275222756
C   C6        1.0  0.87600  0.74130  0.58820  1.0000 -0.2275222756
C   C7        1.0  0.87600  0.75870  0.08820  1.0000 -0.2275222756
C   C8        1.0  0.12400  0.25870  0.41180  1.0000 -0.2275222756
C   C9        1.0  0.12480  0.33070  0.86110  1.0000 -0.3856883116
C   C10       1.0  0.87520  0.83070  0.63890  1.0000 -0.3844582208
C   C11       1.0  0.87520  0.66930  0.13890  1.0000 -0.3844582208
C   C12       1.0  0.12480  0.16930  0.36110  1.0000 -0.3856883116
O   O1        1.0  0.66300  0.11660  0.38760  1.0000 -0.5759603895
O   O2        1.0  0.33700  0.61660  0.11240  1.0000 -0.5759603895
O   O3        1.0  0.33700  0.88340  0.61240  1.0000 -0.5759603895
O   O4        1.0  0.66300  0.38340  0.88760  1.0000 -0.5759603895
O   O5        1.0  0.01620  0.11180  0.82580  1.0000 -0.4468268074
O   O6        1.0  0.98380  0.61180  0.67420  1.0000 -0.4468268074
O   O7        1.0  0.98380  0.88820  0.17420  1.0000 -0.4468268074
O   O8        1.0  0.01620  0.38820  0.32580  1.0000 -0.4468268074
O   O9        1.0  0.88560  0.20960  0.65860  1.0000 -0.5539159544
O   O10       1.0  0.11440  0.70960  0.84140  1.0000 -0.5539159544
O   O11       1.0  0.11440  0.79040  0.34140  1.0000 -0.5555235811
O   O12       1.0  0.88560  0.29040  0.15860  1.0000 -0.5555235811
O   O13       1.0  0.12820  0.40920  0.09530  1.0000 -0.7426031199
O   O14       1.0  0.87180  0.90920  0.40470  1.0000 -0.7426031199
O   O15       1.0  0.87180  0.59080  0.90470  1.0000 -0.7480113673
O   O16       1.0  0.12820  0.09080  0.59530  1.0000 -0.7426031199
O   O17       1.0  0.51170  0.39270  0.10020  1.0000 -0.7565184203
O   O18       1.0  0.48830  0.89270  0.39980  1.0000 -0.7480113673
O   O19       1.0  0.48830  0.60730  0.89980  1.0000 -0.7565184203
O   O20       1.0  0.51170  0.10730  0.60020  1.0000 -0.7565184203
O   O21       1.0  0.20020  0.48320  0.90180  1.0000 -0.7480113673
O   O22       1.0  0.79980  0.98320  0.59820  1.0000 -0.7480113673
O   O23       1.0  0.79980  0.51680  0.09820  1.0000 -0.7480113673
O   O24       1.0  0.20020  0.01680  0.40180  1.0000 -0.7480113673
