# DDEC6 charges by PACMAN v1.1 (https://github.com/mtap-research/PACMAN-charge/)
data_2011[Zn][sra]3[FSR]3
_chemical_formula_sum              "Zn4 H12 C36 O24"
_cell_length_a       9.506
_cell_length_b       15.482
_cell_length_c       15.0348
_cell_angle_alpha    90
_cell_angle_beta     124.089
_cell_angle_gamma    90

_symmetry_space_group_name_H-M    "P 1"
_symmetry_Int_Tables_number       1

loop_
  _symmetry_equiv_pos_as_xyz
  'x, y, z'

loop_
  _atom_site_type_symbol
  _atom_site_label
  _atom_site_symmetry_multiplicity
  _atom_site_fract_x
  _atom_site_fract_y
  _atom_site_fract_z
  _atom_site_occupancy
  _atom_site_charge
Zn  Zn1       1.0  0.68295  0.08367  0.54281  1.0000 0.9539181287
Zn  Zn2       1.0  0.31705  0.58367  0.95719  1.0000 0.9539181287
Zn  Zn3       1.0  0.31705  0.91633  0.45719  1.0000 0.9539181287
Zn  Zn4       1.0  0.68295  0.41633  0.04281  1.0000 0.9539181287
H   H1        1.0  0.81870  0.94430  0.38760  1.0000 0.13949722
H   H2        1.0  0.18130  0.44430  0.11240  1.0000 0.13949722
H   H3        1.0  0.18130  0.05570  0.61240  1.0000 0.13949722
H   H4        1.0  0.81870  0.55570  0.88760  1.0000 0.13949722
H   H5        1.0  0.73710  0.75780  0.17800  1.0000 0.1314076627
H   H6        1.0  0.26290  0.25780  0.32200  1.0000 0.1314076627
H   H7        1.0  0.26290  0.24220  0.82200  1.0000 0.1314076627
H   H8        1.0  0.73710  0.74220  0.67800  1.0000 0.1314076627
H   H9        1.0  0.37090  0.82040  0.22210  1.0000 0.1314076627
H   H10       1.0  0.62910  0.32040  0.27790  1.0000 0.1314076627
H   H11       1.0  0.62910  0.17960  0.77790  1.0000 0.1314076627
H   H12       1.0  0.37090  0.67960  0.72210  1.0000 0.1314076627
C   C1        1.0  0.58640  0.88980  0.31460  1.0000 -0.0215767718
C   C2        1.0  0.41360  0.38980  0.18540  1.0000 -0.0215767718
C   C3        1.0  0.41360  0.11020  0.68540  1.0000 -0.0215767718
C   C4        1.0  0.58640  0.61020  0.81460  1.0000 -0.0215767718
C   C5        1.0  0.74860  0.90210  0.33840  1.0000 -0.0920495092
C   C6        1.0  0.25140  0.40210  0.16160  1.0000 -0.0920495092
C   C7        1.0  0.25140  0.09790  0.66160  1.0000 -0.0920495092
C   C8        1.0  0.74860  0.59790  0.83840  1.0000 -0.0920495092
C   C9        1.0  0.80670  0.85140  0.28840  1.0000 -0.0089267964
C   C10       1.0  0.19330  0.35140  0.21160  1.0000 -0.0089267964
C   C11       1.0  0.19330  0.14860  0.71160  1.0000 -0.0089267964
C   C12       1.0  0.80670  0.64860  0.78840  1.0000 -0.0089267964
C   C13       1.0  0.69910  0.79090  0.21210  1.0000 -0.0920495092
C   C14       1.0  0.30090  0.29090  0.28790  1.0000 -0.0920495092
C   C15       1.0  0.30090  0.20910  0.78790  1.0000 -0.0920495092
C   C16       1.0  0.69910  0.70910  0.71210  1.0000 -0.0920495092
C   C17       1.0  0.53430  0.77910  0.18590  1.0000 -0.0017526486
C   C18       1.0  0.46570  0.27910  0.31410  1.0000 -0.0017526486
C   C19       1.0  0.46570  0.22090  0.81410  1.0000 -0.0017526486
C   C20       1.0  0.53430  0.72090  0.68590  1.0000 -0.0017526486
C   C21       1.0  0.47990  0.82840  0.23820  1.0000 -0.0920495092
C   C22       1.0  0.52010  0.32840  0.26180  1.0000 -0.0920495092
C   C23       1.0  0.52010  0.17160  0.76180  1.0000 -0.0920495092
C   C24       1.0  0.47990  0.67160  0.73820  1.0000 -0.0920495092
C   C25       1.0  0.53190  0.93600  0.37940  1.0000 0.5932023222
C   C26       1.0  0.46810  0.43600  0.12060  1.0000 0.5932023222
C   C27       1.0  0.46810  0.06400  0.62060  1.0000 0.5932023222
C   C28       1.0  0.53190  0.56400  0.87940  1.0000 0.5932023222
C   C29       1.0  0.99040  0.85850  0.32440  1.0000 0.5418839747
C   C30       1.0  0.00960  0.35850  0.17560  1.0000 0.5418839747
C   C31       1.0  0.00960  0.14150  0.67560  1.0000 0.5418839747
C   C32       1.0  0.99040  0.64150  0.82440  1.0000 0.5418839747
C   C33       1.0  0.41990  0.71030  0.10720  1.0000 0.532299071
C   C34       1.0  0.58010  0.21030  0.39280  1.0000 0.532299071
C   C35       1.0  0.58010  0.28970  0.89280  1.0000 0.532299071
C   C36       1.0  0.41990  0.78970  0.60720  1.0000 0.532299071
O   O1        1.0  0.64360  0.97960  0.45670  1.0000 -0.504783169
O   O2        1.0  0.35640  0.47960  0.04330  1.0000 -0.504783169
O   O3        1.0  0.35640  0.02040  0.54330  1.0000 -0.504783169
O   O4        1.0  0.64360  0.52040  0.95670  1.0000 -0.504783169
O   O5        1.0  0.38390  0.92380  0.35470  1.0000 -0.4779632134
O   O6        1.0  0.61610  0.42380  0.14530  1.0000 -0.4779632134
O   O7        1.0  0.61610  0.07620  0.64530  1.0000 -0.4779632134
O   O8        1.0  0.38390  0.57620  0.85470  1.0000 -0.4779632134
O   O9        1.0  0.29040  0.68940  0.10090  1.0000 -0.4084491437
O   O10       1.0  0.70960  0.18940  0.39910  1.0000 -0.4084491437
O   O11       1.0  0.70960  0.31060  0.89910  1.0000 -0.4084491437
O   O12       1.0  0.29040  0.81060  0.60090  1.0000 -0.4084491437
O   O13       1.0  0.46800  0.67580  0.05170  1.0000 -0.4779632134
O   O14       1.0  0.53200  0.17580  0.44830  1.0000 -0.4779632134
O   O15       1.0  0.53200  0.32420  0.94830  1.0000 -0.4779632134
O   O16       1.0  0.46800  0.82420  0.55170  1.0000 -0.4779632134
O   O17       1.0  0.05360  0.79960  0.30170  1.0000 -0.3948927825
O   O18       1.0  0.94640  0.29960  0.19830  1.0000 -0.3948927825
O   O19       1.0  0.94640  0.20040  0.69830  1.0000 -0.3948927825
O   O20       1.0  0.05360  0.70040  0.80170  1.0000 -0.3948927825
O   O21       1.0  0.07120  0.92290  0.38080  1.0000 -0.4511597758
O   O22       1.0  0.92880  0.42290  0.11920  1.0000 -0.4511597758
O   O23       1.0  0.92880  0.07710  0.61920  1.0000 -0.4511597758
O   O24       1.0  0.07120  0.57710  0.88080  1.0000 -0.4511597758
