# DDEC6 charges by PACMAN v1.1 (https://github.com/mtap-research/PACMAN-charge/)
data_2011[Zn][dia]3[FSR]9
_chemical_formula_sum              "Zn2 H40 C56 N4 O8"
_cell_length_a       14.0833
_cell_length_b       14.0833
_cell_length_c       8.666
_cell_angle_alpha    84.118
_cell_angle_beta     95.882
_cell_angle_gamma    55.8322

_symmetry_space_group_name_H-M    "P 1"
_symmetry_Int_Tables_number       1

loop_
  _symmetry_equiv_pos_as_xyz
  'x, y, z'

loop_
  _atom_site_type_symbol
  _atom_site_label
  _atom_site_symmetry_multiplicity
  _atom_site_fract_x
  _atom_site_fract_y
  _atom_site_fract_z
  _atom_site_occupancy
  _atom_site_charge
Zn  Zn1       1.0  0.07591  0.10049  0.79845  1.0000 0.7305894246
Zn  Zn2       1.0  0.89951  0.92409  0.29845  1.0000 0.7305894246
H   H1        1.0  0.42960  0.10040  0.06830  1.0000 0.1109134844
H   H2        1.0  0.89960  0.57040  0.56830  1.0000 0.1109134844
H   H3        1.0  0.55100  0.05320  0.31100  1.0000 0.1200574146
H   H4        1.0  0.94680  0.44900  0.81100  1.0000 0.1200574146
H   H5        1.0  0.35470  0.97950  0.53310  1.0000 0.1109134844
H   H6        1.0  0.02050  0.64530  0.03310  1.0000 0.1109134844
H   H7        1.0  0.24110  0.01610  0.28380  1.0000 0.1109134844
H   H8        1.0  0.98390  0.75890  0.78380  1.0000 0.1109134844
H   H9        1.0  0.49790  0.98210  0.68940  1.0000 0.1109134844
H   H10       1.0  0.01790  0.50210  0.18940  1.0000 0.1109134844
H   H11       1.0  0.65960  0.99260  0.54330  1.0000 0.1200574146
H   H12       1.0  0.00740  0.34040  0.04330  1.0000 0.1200574146
H   H13       1.0  0.80550  0.99790  0.70660  1.0000 0.1375323286
H   H14       1.0  0.00210  0.19450  0.20660  1.0000 0.1375323286
H   H15       1.0  0.90760  0.96880  0.96010  1.0000 0.0987468189
H   H16       1.0  0.03120  0.09240  0.46010  1.0000 0.0987468189
H   H17       1.0  0.71410  0.89710  0.16710  1.0000 0.1200574146
H   H18       1.0  0.10290  0.28590  0.66710  1.0000 0.1200574146
H   H19       1.0  0.60240  0.93220  0.92780  1.0000 0.1375323286
H   H20       1.0  0.06780  0.39760  0.42780  1.0000 0.1375323286
H   H21       1.0  0.81550  0.26530  0.44910  1.0000 0.1109134844
H   H22       1.0  0.73470  0.18450  0.94910  1.0000 0.1109134844
H   H23       1.0  0.69970  0.44190  0.53620  1.0000 0.1200574146
H   H24       1.0  0.55810  0.30030  0.03620  1.0000 0.1200574146
H   H25       1.0  0.43690  0.40290  0.50710  1.0000 0.1109134844
H   H26       1.0  0.59710  0.56310  0.00710  1.0000 0.1109134844
H   H27       1.0  0.54690  0.23050  0.42300  1.0000 0.1109134844
H   H28       1.0  0.76950  0.45310  0.92300  1.0000 0.1109134844
H   H29       1.0  0.52400  0.58940  0.60840  1.0000 0.1109134844
H   H30       1.0  0.41060  0.47600  0.10840  1.0000 0.1109134844
H   H31       1.0  0.34180  0.56460  0.58750  1.0000 0.1109134844
H   H32       1.0  0.43540  0.65820  0.08750  1.0000 0.1109134844
H   H33       1.0  0.43620  0.74000  0.71940  1.0000 0.1375323286
H   H34       1.0  0.26000  0.56380  0.21940  1.0000 0.1375323286
H   H35       1.0  0.31280  0.91660  0.79690  1.0000 0.1109134844
H   H36       1.0  0.08340  0.68720  0.29690  1.0000 0.1109134844
H   H37       1.0  0.03520  0.91820  0.67840  1.0000 0.1109134844
H   H38       1.0  0.08180  0.96480  0.17840  1.0000 0.1109134844
H   H39       1.0  0.15570  0.73250  0.61780  1.0000 0.1375323286
H   H40       1.0  0.26750  0.84430  0.11780  1.0000 0.1375323286
C   C1        1.0  0.25340  0.08160  0.00150  1.0000 0.5566901913
C   C2        1.0  0.91840  0.74660  0.50150  1.0000 0.5566901913
C   C3        1.0  0.32830  0.05750  0.15660  1.0000 -0.0225773739
C   C4        1.0  0.94250  0.67170  0.65660  1.0000 -0.0225773739
C   C5        1.0  0.41640  0.07300  0.16280  1.0000 -0.1013742207
C   C6        1.0  0.92700  0.58360  0.66280  1.0000 -0.1013742207
C   C7        1.0  0.48620  0.04840  0.30750  1.0000 -0.1297259429
C   C8        1.0  0.95160  0.51380  0.80750  1.0000 -0.1297259429
C   C9        1.0  0.46140  0.01680  0.44750  1.0000 0.125974988
C   C10       1.0  0.98320  0.53860  0.94750  1.0000 0.125974988
C   C11       1.0  0.37130  0.00330  0.43900  1.0000 -0.1562142024
C   C12       1.0  0.99670  0.62870  0.93900  1.0000 -0.1562142024
C   C13       1.0  0.30350  0.02470  0.28980  1.0000 -0.1091828222
C   C14       1.0  0.97530  0.69650  0.78980  1.0000 -0.1091828222
C   C15       1.0  0.52760  0.99320  0.60090  1.0000 -0.1297259429
C   C16       1.0  0.00680  0.47240  0.10090  1.0000 -0.1297259429
C   C17       1.0  0.62800  0.98520  0.63180  1.0000 -0.1482026191
C   C18       1.0  0.01480  0.37200  0.13180  1.0000 -0.1482026191
C   C19       1.0  0.69310  0.96610  0.78810  1.0000 0.1668495586
C   C20       1.0  0.03390  0.30690  0.28810  1.0000 0.1668495586
C   C21       1.0  0.78420  0.97840  0.79880  1.0000 -0.1981204624
C   C22       1.0  0.02160  0.21580  0.29880  1.0000 -0.1981204624
C   C23       1.0  0.84500  0.96060  0.95270  1.0000 0.0987468189
C   C24       1.0  0.03940  0.15500  0.45270  1.0000 0.0987468189
C   C25       1.0  0.73120  0.92000  0.07290  1.0000 0.0794809138
C   C26       1.0  0.08000  0.26880  0.57290  1.0000 0.0794809138
C   C27       1.0  0.66630  0.93830  0.93070  1.0000 -0.1880995469
C   C28       1.0  0.06170  0.33370  0.43070  1.0000 -0.1880995469
C   C29       1.0  0.76530  0.11610  0.37320  1.0000 0.5423350384
C   C30       1.0  0.88390  0.23470  0.87320  1.0000 0.5423350384
C   C31       1.0  0.69300  0.22980  0.42480  1.0000 -0.0324413689
C   C32       1.0  0.77020  0.30700  0.92480  1.0000 -0.0324413689
C   C33       1.0  0.73790  0.29350  0.46030  1.0000 -0.0928241858
C   C34       1.0  0.70650  0.26210  0.96030  1.0000 -0.0928241858
C   C35       1.0  0.66860  0.39900  0.51220  1.0000 -0.1482026191
C   C36       1.0  0.60100  0.33140  0.01220  1.0000 -0.1482026191
C   C37       1.0  0.55570  0.44150  0.52900  1.0000 0.1109134844
C   C38       1.0  0.55850  0.44430  0.02900  1.0000 0.1109134844
C   C39       1.0  0.51410  0.37510  0.49470  1.0000 -0.1482026191
C   C40       1.0  0.62490  0.48590  0.99470  1.0000 -0.1482026191
C   C41       1.0  0.57880  0.27300  0.44470  1.0000 -0.1013742207
C   C42       1.0  0.72700  0.42120  0.94470  1.0000 -0.1013742207
C   C43       1.0  0.48700  0.55180  0.58540  1.0000 -0.1242866466
C   C44       1.0  0.44820  0.51300  0.08540  1.0000 -0.1242866466
C   C45       1.0  0.37760  0.60380  0.60730  1.0000 -0.1482026191
C   C46       1.0  0.39620  0.62240  0.10730  1.0000 -0.1482026191
C   C47       1.0  0.30610  0.71690  0.65940  1.0000 0.1562759852
C   C48       1.0  0.28310  0.69390  0.15940  1.0000 0.1562759852
C   C49       1.0  0.35530  0.77290  0.71280  1.0000 -0.1981204624
C   C50       1.0  0.22710  0.64470  0.21280  1.0000 -0.1981204624
C   C51       1.0  0.28010  0.87890  0.75570  1.0000 0.0794809138
C   C52       1.0  0.12110  0.71990  0.25570  1.0000 0.0794809138
C   C53       1.0  0.11710  0.88070  0.69010  1.0000 0.0794809138
C   C54       1.0  0.11930  0.88290  0.19010  1.0000 0.0794809138
C   C55       1.0  0.18950  0.77110  0.65130  1.0000 -0.1880995469
C   C56       1.0  0.22890  0.81050  0.15130  1.0000 -0.1880995469
N   N1        1.0  0.82020  0.93380  0.08360  1.0000 -0.2377676764
N   N2        1.0  0.06620  0.17980  0.58360  1.0000 -0.2377676764
N   N3        1.0  0.16710  0.93170  0.74430  1.0000 -0.2298956016
N   N4        1.0  0.06830  0.83290  0.24430  1.0000 -0.2298956016
O   O1        1.0  0.17280  0.06700  0.00430  1.0000 -0.5481018076
O   O2        1.0  0.93300  0.82720  0.50430  1.0000 -0.5481018076
O   O3        1.0  0.27870  0.10850  0.87440  1.0000 -0.5919856081
O   O4        1.0  0.89150  0.72130  0.37440  1.0000 -0.5919856081
O   O5        1.0  0.86920  0.07560  0.35500  1.0000 -0.5481018076
O   O6        1.0  0.92440  0.13080  0.85500  1.0000 -0.5481018076
O   O7        1.0  0.71570  0.06770  0.33430  1.0000 -0.5551424274
O   O8        1.0  0.93230  0.28430  0.83430  1.0000 -0.5551424274
