# DDEC6 charges by PACMAN v1.1 (https://github.com/mtap-research/PACMAN-charge/)
data_2011[Er][ecu]3[FSR]2
_chemical_formula_sum              "Er8 H32 C32 O64"
_cell_length_a       8.5791
_cell_length_b       13.3611
_cell_length_c       18.1266
_cell_angle_alpha    90
_cell_angle_beta     90
_cell_angle_gamma    90

_symmetry_space_group_name_H-M    "P 1"
_symmetry_Int_Tables_number       1

loop_
  _symmetry_equiv_pos_as_xyz
  'x, y, z'

loop_
  _atom_site_type_symbol
  _atom_site_label
  _atom_site_symmetry_multiplicity
  _atom_site_fract_x
  _atom_site_fract_y
  _atom_site_fract_z
  _atom_site_occupancy
  _atom_site_charge
Er  Er1       1.0  0.25300  0.37468  0.60093  1.0000 2.018776478
Er  Er2       1.0  0.75300  0.62532  0.39907  1.0000 2.018776478
Er  Er3       1.0  0.25300  0.12532  0.10093  1.0000 2.018776478
Er  Er4       1.0  0.75300  0.87468  0.89907  1.0000 2.018776478
Er  Er5       1.0  0.75275  0.12462  0.39368  1.0000 2.018776478
Er  Er6       1.0  0.25275  0.87538  0.60632  1.0000 2.018776478
Er  Er7       1.0  0.75275  0.37538  0.89368  1.0000 2.018776478
Er  Er8       1.0  0.25275  0.62462  0.10632  1.0000 2.018776478
H   H1        1.0  0.44650  0.23910  0.47280  1.0000 0.1306544931
H   H2        1.0  0.94650  0.76090  0.52720  1.0000 0.1306544931
H   H3        1.0  0.44650  0.26090  0.97280  1.0000 0.1306544931
H   H4        1.0  0.94650  0.73910  0.02720  1.0000 0.1306544931
H   H5        1.0  0.25830  0.13140  0.56600  1.0000 0.0906982364
H   H6        1.0  0.75830  0.86860  0.43400  1.0000 0.0906982364
H   H7        1.0  0.25830  0.36860  0.06600  1.0000 0.0906982364
H   H8        1.0  0.75830  0.63140  0.93400  1.0000 0.0906982364
H   H9        1.0  0.58290  0.30380  0.71470  1.0000 0.1546132283
H   H10       1.0  0.08290  0.69620  0.28530  1.0000 0.1546132283
H   H11       1.0  0.58290  0.19620  0.21470  1.0000 0.1550440507
H   H12       1.0  0.08290  0.80380  0.78530  1.0000 0.1546132283
H   H13       1.0  0.90540  0.43940  0.70600  1.0000 0.1104454253
H   H14       1.0  0.40540  0.56060  0.29400  1.0000 0.1104454253
H   H15       1.0  0.90540  0.06060  0.20600  1.0000 0.1104454253
H   H16       1.0  0.40540  0.93940  0.79400  1.0000 0.1104454253
H   H17       1.0  0.18920  0.63060  0.56700  1.0000 0.0906982364
H   H18       1.0  0.68920  0.36940  0.43300  1.0000 0.0906982364
H   H19       1.0  0.18920  0.86940  0.06700  1.0000 0.0906982364
H   H20       1.0  0.68920  0.13060  0.93300  1.0000 0.0906982364
H   H21       1.0  0.54340  0.50220  0.52740  1.0000 0.1104454253
H   H22       1.0  0.04340  0.49780  0.47260  1.0000 0.1104454253
H   H23       1.0  0.54340  0.99780  0.02740  1.0000 0.1104454253
H   H24       1.0  0.04340  0.00220  0.97260  1.0000 0.1104454253
H   H25       1.0  0.94860  0.24550  0.52750  1.0000 0.1159586774
H   H26       1.0  0.44860  0.75450  0.47250  1.0000 0.1159586774
H   H27       1.0  0.94860  0.25450  0.02750  1.0000 0.1159586774
H   H28       1.0  0.44860  0.74550  0.97250  1.0000 0.1159586774
H   H29       1.0  0.05100  0.99880  0.47500  1.0000 0.1104454253
H   H30       1.0  0.55100  0.00120  0.52500  1.0000 0.1104454253
H   H31       1.0  0.05100  0.50120  0.97500  1.0000 0.1104454253
H   H32       1.0  0.55100  0.49880  0.02500  1.0000 0.1104454253
C   C1        1.0  0.52280  0.24840  0.50860  1.0000 0.4973554628
C   C2        1.0  0.02280  0.75160  0.49140  1.0000 0.4973554628
C   C3        1.0  0.52280  0.25160  0.00860  1.0000 0.4973554628
C   C4        1.0  0.02280  0.74840  0.99140  1.0000 0.4973554628
C   C5        1.0  0.26500  0.12940  0.61720  1.0000 0.5094687657
C   C6        1.0  0.76500  0.87060  0.38280  1.0000 0.5094687657
C   C7        1.0  0.26500  0.37060  0.11720  1.0000 0.5094687657
C   C8        1.0  0.76500  0.62940  0.88280  1.0000 0.5094687657
C   C9        1.0  0.52660  0.35610  0.73560  1.0000 0.5189119669
C   C10       1.0  0.02660  0.64390  0.26440  1.0000 0.5189119669
C   C11       1.0  0.52660  0.14390  0.23560  1.0000 0.5189119669
C   C12       1.0  0.02660  0.85610  0.76440  1.0000 0.5189119669
C   C13       1.0  0.96700  0.39470  0.73240  1.0000 0.5507536249
C   C14       1.0  0.46700  0.60530  0.26760  1.0000 0.5507536249
C   C15       1.0  0.96700  0.10530  0.23240  1.0000 0.5507536249
C   C16       1.0  0.46700  0.89470  0.76760  1.0000 0.5507536249
C   C17       1.0  0.21270  0.63000  0.61710  1.0000 0.5094687657
C   C18       1.0  0.71270  0.37000  0.38290  1.0000 0.5094687657
C   C19       1.0  0.21270  0.87000  0.11710  1.0000 0.5094687657
C   C20       1.0  0.71270  0.13000  0.88290  1.0000 0.5094687657
C   C21       1.0  0.46920  0.50810  0.49030  1.0000 0.5094687657
C   C22       1.0  0.96920  0.49190  0.50970  1.0000 0.5094687657
C   C23       1.0  0.46920  0.99190  0.99030  1.0000 0.5094687657
C   C24       1.0  0.96920  0.00810  0.00970  1.0000 0.5094687657
C   C25       1.0  0.02130  0.24630  0.48940  1.0000 0.5189119669
C   C26       1.0  0.52130  0.75370  0.51060  1.0000 0.5189119669
C   C27       1.0  0.02130  0.25370  0.98940  1.0000 0.5189119669
C   C28       1.0  0.52130  0.74630  0.01060  1.0000 0.5189119669
C   C29       1.0  0.97760  0.99990  0.51270  1.0000 0.5094687657
C   C30       1.0  0.47760  0.00010  0.48730  1.0000 0.5094687657
C   C31       1.0  0.97760  0.50010  0.01270  1.0000 0.5094687657
C   C32       1.0  0.47760  0.49990  0.98730  1.0000 0.5094687657
O   O1        1.0  0.47940  0.29920  0.56310  1.0000 -0.6294196976
O   O2        1.0  0.97940  0.70080  0.43690  1.0000 -0.6294196976
O   O3        1.0  0.47940  0.20080  0.06310  1.0000 -0.6294196976
O   O4        1.0  0.97940  0.79920  0.93690  1.0000 -0.6294196976
O   O5        1.0  0.64420  0.21010  0.49470  1.0000 -0.5612553938
O   O6        1.0  0.14420  0.78990  0.50530  1.0000 -0.5612553938
O   O7        1.0  0.64420  0.28990  0.99470  1.0000 -0.5612553938
O   O8        1.0  0.14420  0.71010  0.00530  1.0000 -0.5612553938
O   O9        1.0  0.24790  0.20450  0.64840  1.0000 -0.4719539417
O   O10       1.0  0.74790  0.79550  0.35160  1.0000 -0.4719539417
O   O11       1.0  0.24790  0.29550  0.14840  1.0000 -0.4719539417
O   O12       1.0  0.74790  0.70450  0.85160  1.0000 -0.4719539417
O   O13       1.0  0.29190  0.04050  0.64810  1.0000 -0.6483499689
O   O14       1.0  0.79190  0.95950  0.35190  1.0000 -0.6483499689
O   O15       1.0  0.29190  0.45950  0.14810  1.0000 -0.6483499689
O   O16       1.0  0.79190  0.54050  0.85190  1.0000 -0.6483499689
O   O17       1.0  0.42080  0.38580  0.70010  1.0000 -0.4719539417
O   O18       1.0  0.92080  0.61420  0.29990  1.0000 -0.4719539417
O   O19       1.0  0.42080  0.11420  0.20010  1.0000 -0.4719539417
O   O20       1.0  0.92080  0.88580  0.79990  1.0000 -0.4719539417
O   O21       1.0  0.56970  0.38260  0.79210  1.0000 -0.4570015801
O   O22       1.0  0.06970  0.61740  0.20790  1.0000 -0.4570015801
O   O23       1.0  0.56970  0.11740  0.29210  1.0000 -0.4570015801
O   O24       1.0  0.06970  0.88260  0.70790  1.0000 -0.4570015801
O   O25       1.0  0.08590  0.36520  0.70370  1.0000 -0.5392729177
O   O26       1.0  0.58590  0.63480  0.29630  1.0000 -0.5392729177
O   O27       1.0  0.08590  0.13480  0.20370  1.0000 -0.5392729177
O   O28       1.0  0.58590  0.86520  0.79630  1.0000 -0.5392729177
O   O29       1.0  0.92210  0.36950  0.79410  1.0000 -0.5690985305
O   O30       1.0  0.42210  0.63050  0.20590  1.0000 -0.5690985305
O   O31       1.0  0.92210  0.13050  0.29410  1.0000 -0.5690985305
O   O32       1.0  0.42210  0.86950  0.70590  1.0000 -0.5690985305
O   O33       1.0  0.24840  0.54050  0.64780  1.0000 -0.6483499689
O   O34       1.0  0.74840  0.45950  0.35220  1.0000 -0.6483499689
O   O35       1.0  0.24840  0.95950  0.14780  1.0000 -0.6483499689
O   O36       1.0  0.74840  0.04050  0.85220  1.0000 -0.6483499689
O   O37       1.0  0.20900  0.70580  0.64800  1.0000 -0.5012436046
O   O38       1.0  0.70900  0.29420  0.35200  1.0000 -0.5012436046
O   O39       1.0  0.20900  0.79420  0.14800  1.0000 -0.5012436046
O   O40       1.0  0.70900  0.20580  0.85200  1.0000 -0.5012436046
O   O41       1.0  0.33040  0.47010  0.50300  1.0000 -0.6705992801
O   O42       1.0  0.83040  0.52990  0.49700  1.0000 -0.6705992801
O   O43       1.0  0.33040  0.02990  0.00300  1.0000 -0.6705992801
O   O44       1.0  0.83040  0.97010  0.99700  1.0000 -0.6705992801
O   O45       1.0  0.50720  0.54910  0.43570  1.0000 -0.5392729177
O   O46       1.0  0.00720  0.45090  0.56430  1.0000 -0.5392729177
O   O47       1.0  0.50720  0.95090  0.93570  1.0000 -0.5392729177
O   O48       1.0  0.00720  0.04910  0.06430  1.0000 -0.5392729177
O   O49       1.0  0.14400  0.28050  0.50450  1.0000 -0.5690985305
O   O50       1.0  0.64400  0.71950  0.49550  1.0000 -0.5690985305
O   O51       1.0  0.14400  0.21950  0.00450  1.0000 -0.5690985305
O   O52       1.0  0.64400  0.78050  0.99550  1.0000 -0.5690985305
O   O53       1.0  0.97400  0.20980  0.42700  1.0000 -0.6294196976
O   O54       1.0  0.47400  0.79020  0.57300  1.0000 -0.6294196976
O   O55       1.0  0.97400  0.29020  0.92700  1.0000 -0.6294196976
O   O56       1.0  0.47400  0.70980  0.07300  1.0000 -0.6294196976
O   O57       1.0  0.84350  0.03750  0.49710  1.0000 -0.6483499689
O   O58       1.0  0.34350  0.96250  0.50290  1.0000 -0.6483499689
O   O59       1.0  0.84350  0.46250  0.99710  1.0000 -0.6483499689
O   O60       1.0  0.34350  0.53750  0.00290  1.0000 -0.6483499689
O   O61       1.0  0.01700  0.96660  0.57060  1.0000 -0.5207879527
O   O62       1.0  0.51700  0.03340  0.42940  1.0000 -0.5207879527
O   O63       1.0  0.01700  0.53340  0.07060  1.0000 -0.5207879527
O   O64       1.0  0.51700  0.46660  0.92940  1.0000 -0.5207879527
