# DDEC6 charges by PACMAN v1.1 (https://github.com/mtap-research/PACMAN-charge/)
data_2011[Co][nan]3[FSR]2
_chemical_formula_sum              "Co8 H80 C88 N16 O40"
_cell_length_a       11.314
_cell_length_b       11.314
_cell_length_c       25.2429
_cell_angle_alpha    90
_cell_angle_beta     90
_cell_angle_gamma    90

_symmetry_space_group_name_H-M    "P 1"
_symmetry_Int_Tables_number       1

loop_
  _symmetry_equiv_pos_as_xyz
  'x, y, z'

loop_
  _atom_site_type_symbol
  _atom_site_label
  _atom_site_symmetry_multiplicity
  _atom_site_fract_x
  _atom_site_fract_y
  _atom_site_fract_z
  _atom_site_occupancy
  _atom_site_charge
Co  Co1       1.0  0.90371  0.09629  0.12500  1.0000 1.0325303065
Co  Co2       1.0  0.09629  0.90371  0.62500  1.0000 1.0325303065
Co  Co3       1.0  0.90371  0.90371  0.37500  1.0000 1.0325303065
Co  Co4       1.0  0.09629  0.09629  0.87500  1.0000 1.0325303065
Co  Co5       1.0  0.00000  0.20330  0.00000  1.0000 1.0644227054
Co  Co6       1.0  0.00000  0.79670  0.50000  1.0000 1.0644227054
Co  Co7       1.0  0.79670  0.00000  0.25000  1.0000 1.0644227054
Co  Co8       1.0  0.20330  0.00000  0.75000  1.0000 1.065237342
H   H1        1.0  0.94030  0.92400  0.96080  1.0000 0.288402489
H   H2        1.0  0.05970  0.07600  0.46080  1.0000 0.288402489
H   H3        1.0  0.07600  0.94030  0.21080  1.0000 0.288402489
H   H4        1.0  0.92400  0.05970  0.71080  1.0000 0.288402489
H   H5        1.0  0.05970  0.92400  0.03920  1.0000 0.288402489
H   H6        1.0  0.94030  0.07600  0.53920  1.0000 0.288402489
H   H7        1.0  0.92400  0.94030  0.78920  1.0000 0.288402489
H   H8        1.0  0.07600  0.05970  0.28920  1.0000 0.288402489
H   H9        1.0  0.25580  0.08100  0.18890  1.0000 0.1108667874
H   H10       1.0  0.74420  0.91900  0.68890  1.0000 0.1108667874
H   H11       1.0  0.91900  0.25580  0.43890  1.0000 0.1108667874
H   H12       1.0  0.08100  0.74420  0.93890  1.0000 0.1108667874
H   H13       1.0  0.74420  0.08100  0.81110  1.0000 0.1108667874
H   H14       1.0  0.25580  0.91900  0.31110  1.0000 0.1108667874
H   H15       1.0  0.08100  0.25580  0.56110  1.0000 0.1108667874
H   H16       1.0  0.91900  0.74420  0.06110  1.0000 0.1108667874
H   H17       1.0  0.44970  0.06630  0.21320  1.0000 0.1188508681
H   H18       1.0  0.55030  0.93370  0.71320  1.0000 0.1188508681
H   H19       1.0  0.93370  0.44970  0.46320  1.0000 0.1188508681
H   H20       1.0  0.06630  0.55030  0.96320  1.0000 0.1188508681
H   H21       1.0  0.55030  0.06630  0.78680  1.0000 0.1188508681
H   H22       1.0  0.44970  0.93370  0.28680  1.0000 0.1188508681
H   H23       1.0  0.06630  0.44970  0.53680  1.0000 0.1188508681
H   H24       1.0  0.93370  0.55030  0.03680  1.0000 0.1188508681
H   H25       1.0  0.55220  0.17110  0.06900  1.0000 0.1188508681
H   H26       1.0  0.44780  0.82890  0.56900  1.0000 0.1188508681
H   H27       1.0  0.82890  0.55220  0.31900  1.0000 0.1188508681
H   H28       1.0  0.17110  0.44780  0.81900  1.0000 0.1188508681
H   H29       1.0  0.44780  0.17110  0.93100  1.0000 0.1188508681
H   H30       1.0  0.55220  0.82890  0.43100  1.0000 0.1188508681
H   H31       1.0  0.17110  0.55220  0.68100  1.0000 0.1188508681
H   H32       1.0  0.82890  0.44780  0.18100  1.0000 0.1188508681
H   H33       1.0  0.68810  0.00010  0.05390  1.0000 0.288402489
H   H34       1.0  0.31190  0.99990  0.55390  1.0000 0.288402489
H   H35       1.0  0.99990  0.68810  0.30390  1.0000 0.288402489
H   H36       1.0  0.00010  0.31190  0.80390  1.0000 0.288402489
H   H37       1.0  0.31190  0.00010  0.94610  1.0000 0.288402489
H   H38       1.0  0.68810  0.99990  0.44610  1.0000 0.288402489
H   H39       1.0  0.00010  0.68810  0.69610  1.0000 0.288402489
H   H40       1.0  0.99990  0.31190  0.19610  1.0000 0.288402489
H   H41       1.0  0.35780  0.19740  0.04600  1.0000 0.1188508681
H   H42       1.0  0.64220  0.80260  0.54600  1.0000 0.1188508681
H   H43       1.0  0.80260  0.35780  0.29600  1.0000 0.1188508681
H   H44       1.0  0.19740  0.64220  0.79600  1.0000 0.1188508681
H   H45       1.0  0.64220  0.19740  0.95400  1.0000 0.1188508681
H   H46       1.0  0.35780  0.80260  0.45400  1.0000 0.1188508681
H   H47       1.0  0.19740  0.35780  0.70400  1.0000 0.1188508681
H   H48       1.0  0.80260  0.64220  0.20400  1.0000 0.1188508681
H   H49       1.0  0.60170  0.88670  0.98360  1.0000 0.1001522137
H   H50       1.0  0.39830  0.11330  0.48360  1.0000 0.1001522137
H   H51       1.0  0.11330  0.60170  0.23360  1.0000 0.1001522137
H   H52       1.0  0.88670  0.39830  0.73360  1.0000 0.1001522137
H   H53       1.0  0.39830  0.88670  0.01640  1.0000 0.1001522137
H   H54       1.0  0.60170  0.11330  0.51640  1.0000 0.1001522137
H   H55       1.0  0.88670  0.60170  0.76640  1.0000 0.1001522137
H   H56       1.0  0.11330  0.39830  0.26640  1.0000 0.1001522137
H   H57       1.0  0.67450  0.79520  0.01800  1.0000 0.1108667874
H   H58       1.0  0.32550  0.20480  0.51800  1.0000 0.1108667874
H   H59       1.0  0.20480  0.67450  0.26800  1.0000 0.1108667874
H   H60       1.0  0.79520  0.32550  0.76800  1.0000 0.1108667874
H   H61       1.0  0.32550  0.79520  0.98200  1.0000 0.1108667874
H   H62       1.0  0.67450  0.20480  0.48200  1.0000 0.1108667874
H   H63       1.0  0.79520  0.67450  0.73200  1.0000 0.1108667874
H   H64       1.0  0.20480  0.32550  0.23200  1.0000 0.1108667874
H   H65       1.0  0.79330  0.77700  0.94740  1.0000 0.1108667874
H   H66       1.0  0.20670  0.22300  0.44740  1.0000 0.1108667874
H   H67       1.0  0.22300  0.79330  0.19740  1.0000 0.1108667874
H   H68       1.0  0.77700  0.20670  0.69740  1.0000 0.1108667874
H   H69       1.0  0.20670  0.77700  0.05260  1.0000 0.1108667874
H   H70       1.0  0.79330  0.22300  0.55260  1.0000 0.1108667874
H   H71       1.0  0.77700  0.79330  0.80260  1.0000 0.1108667874
H   H72       1.0  0.22300  0.20670  0.30260  1.0000 0.1108667874
H   H73       1.0  0.74160  0.89250  0.92090  1.0000 0.1108667874
H   H74       1.0  0.25840  0.10750  0.42090  1.0000 0.1108667874
H   H75       1.0  0.10750  0.74160  0.17090  1.0000 0.1108667874
H   H76       1.0  0.89250  0.25840  0.67090  1.0000 0.1108667874
H   H77       1.0  0.25840  0.89250  0.07910  1.0000 0.1108667874
H   H78       1.0  0.74160  0.10750  0.57910  1.0000 0.1108667874
H   H79       1.0  0.89250  0.74160  0.82910  1.0000 0.1108667874
H   H80       1.0  0.10750  0.25840  0.32910  1.0000 0.1108667874
C   C1        1.0  0.83660  0.99190  0.01560  1.0000 0.6108288305
C   C2        1.0  0.16340  0.00810  0.51560  1.0000 0.6108288305
C   C3        1.0  0.00810  0.83660  0.26560  1.0000 0.6108288305
C   C4        1.0  0.99190  0.16340  0.76560  1.0000 0.6108288305
C   C5        1.0  0.16340  0.99190  0.98440  1.0000 0.6108288305
C   C6        1.0  0.83660  0.00810  0.48440  1.0000 0.6108288305
C   C7        1.0  0.99190  0.83660  0.73440  1.0000 0.6108288305
C   C8        1.0  0.00810  0.16340  0.23440  1.0000 0.6108288305
C   C9        1.0  0.52080  0.11660  0.14450  1.0000 -0.0176731294
C   C10       1.0  0.47920  0.88340  0.64450  1.0000 -0.0176731294
C   C11       1.0  0.88340  0.52080  0.39450  1.0000 -0.0176731294
C   C12       1.0  0.11660  0.47920  0.89450  1.0000 -0.0176731294
C   C13       1.0  0.47920  0.11660  0.85550  1.0000 -0.0176731294
C   C14       1.0  0.52080  0.88340  0.35550  1.0000 -0.0176731294
C   C15       1.0  0.11660  0.52080  0.60550  1.0000 -0.0176731294
C   C16       1.0  0.88340  0.47920  0.10550  1.0000 -0.0176731294
C   C17       1.0  0.15740  0.14410  0.09650  1.0000 0.5686675297
C   C18       1.0  0.84260  0.85590  0.59650  1.0000 0.5686675297
C   C19       1.0  0.85590  0.15740  0.34650  1.0000 0.5686675297
C   C20       1.0  0.14410  0.84260  0.84650  1.0000 0.5686675297
C   C21       1.0  0.84260  0.14410  0.90350  1.0000 0.5686675297
C   C22       1.0  0.15740  0.85590  0.40350  1.0000 0.5686675297
C   C23       1.0  0.14410  0.15740  0.65350  1.0000 0.5686675297
C   C24       1.0  0.85590  0.84260  0.15350  1.0000 0.5686675297
C   C25       1.0  0.64770  0.09710  0.16040  1.0000 0.5895071016
C   C26       1.0  0.35230  0.90290  0.66040  1.0000 0.5895071016
C   C27       1.0  0.90290  0.64770  0.41040  1.0000 0.5895071016
C   C28       1.0  0.09710  0.35230  0.91040  1.0000 0.5895071016
C   C29       1.0  0.35230  0.09710  0.83960  1.0000 0.5895071016
C   C30       1.0  0.64770  0.90290  0.33960  1.0000 0.5895071016
C   C31       1.0  0.09710  0.64770  0.58960  1.0000 0.5895071016
C   C32       1.0  0.90290  0.35230  0.08960  1.0000 0.5895071016
C   C33       1.0  0.31510  0.10030  0.16490  1.0000 -0.1313736368
C   C34       1.0  0.68490  0.89970  0.66490  1.0000 -0.1313736368
C   C35       1.0  0.89970  0.31510  0.41490  1.0000 -0.1313736368
C   C36       1.0  0.10030  0.68490  0.91490  1.0000 -0.1313736368
C   C37       1.0  0.68490  0.10030  0.83510  1.0000 -0.1313736368
C   C38       1.0  0.31510  0.89970  0.33510  1.0000 -0.1313736368
C   C39       1.0  0.10030  0.31510  0.58510  1.0000 -0.1313736368
C   C40       1.0  0.89970  0.68490  0.08510  1.0000 -0.1313736368
C   C41       1.0  0.28600  0.13940  0.11360  1.0000 -0.0176731294
C   C42       1.0  0.71400  0.86060  0.61360  1.0000 -0.0176731294
C   C43       1.0  0.86060  0.28600  0.36360  1.0000 -0.0176731294
C   C44       1.0  0.13940  0.71400  0.86360  1.0000 -0.0176731294
C   C45       1.0  0.71400  0.13940  0.88640  1.0000 -0.0176731294
C   C46       1.0  0.28600  0.86060  0.38640  1.0000 -0.0176731294
C   C47       1.0  0.13940  0.28600  0.63640  1.0000 -0.0176731294
C   C48       1.0  0.86060  0.71400  0.13640  1.0000 -0.0176731294
C   C49       1.0  0.43100  0.09090  0.17910  1.0000 -0.1128800916
C   C50       1.0  0.56900  0.90910  0.67910  1.0000 -0.1128800916
C   C51       1.0  0.90910  0.43100  0.42910  1.0000 -0.1128800916
C   C52       1.0  0.09090  0.56900  0.92910  1.0000 -0.1128800916
C   C53       1.0  0.56900  0.09090  0.82090  1.0000 -0.1128800916
C   C54       1.0  0.43100  0.90910  0.32090  1.0000 -0.1128800916
C   C55       1.0  0.09090  0.43100  0.57090  1.0000 -0.1128800916
C   C56       1.0  0.90910  0.56900  0.07090  1.0000 -0.1128800916
C   C57       1.0  0.49260  0.15490  0.09330  1.0000 -0.1313736368
C   C58       1.0  0.50740  0.84510  0.59330  1.0000 -0.1313736368
C   C59       1.0  0.84510  0.49260  0.34330  1.0000 -0.1313736368
C   C60       1.0  0.15490  0.50740  0.84330  1.0000 -0.1313736368
C   C61       1.0  0.50740  0.15490  0.90670  1.0000 -0.1313736368
C   C62       1.0  0.49260  0.84510  0.40670  1.0000 -0.1313736368
C   C63       1.0  0.15490  0.49260  0.65670  1.0000 -0.1313736368
C   C64       1.0  0.84510  0.50740  0.15670  1.0000 -0.1313736368
C   C65       1.0  0.37630  0.16820  0.07950  1.0000 -0.1128800916
C   C66       1.0  0.62370  0.83180  0.57950  1.0000 -0.1128800916
C   C67       1.0  0.83180  0.37630  0.32950  1.0000 -0.1128800916
C   C68       1.0  0.16820  0.62370  0.82950  1.0000 -0.1128800916
C   C69       1.0  0.62370  0.16820  0.92050  1.0000 -0.1128800916
C   C70       1.0  0.37630  0.83180  0.42050  1.0000 -0.1128800916
C   C71       1.0  0.16820  0.37630  0.67050  1.0000 -0.1128800916
C   C72       1.0  0.83180  0.62370  0.17050  1.0000 -0.1128800916
C   C73       1.0  0.67920  0.86770  0.99760  1.0000 -0.0811698659
C   C74       1.0  0.32080  0.13230  0.49760  1.0000 -0.0811698659
C   C75       1.0  0.13230  0.67920  0.24760  1.0000 -0.0811698659
C   C76       1.0  0.86770  0.32080  0.74760  1.0000 -0.0811698659
C   C77       1.0  0.32080  0.86770  0.00240  1.0000 -0.0811698659
C   C78       1.0  0.67920  0.13230  0.50240  1.0000 -0.0811698659
C   C79       1.0  0.86770  0.67920  0.75240  1.0000 -0.0811698659
C   C80       1.0  0.13230  0.32080  0.25240  1.0000 -0.0811698659
C   C81       1.0  0.77120  0.85870  0.95370  1.0000 -0.0811698659
C   C82       1.0  0.22880  0.14130  0.45370  1.0000 -0.0811698659
C   C83       1.0  0.14130  0.77120  0.20370  1.0000 -0.0811698659
C   C84       1.0  0.85870  0.22880  0.70370  1.0000 -0.0811698659
C   C85       1.0  0.22880  0.85870  0.04630  1.0000 -0.0811698659
C   C86       1.0  0.77120  0.14130  0.54630  1.0000 -0.0811698659
C   C87       1.0  0.85870  0.77120  0.79630  1.0000 -0.0811698659
C   C88       1.0  0.14130  0.22880  0.29630  1.0000 -0.0811698659
N   N1        1.0  0.87000  0.92580  0.97370  1.0000 -0.3862140229
N   N2        1.0  0.13000  0.07420  0.47370  1.0000 -0.3862140229
N   N3        1.0  0.07420  0.87000  0.22370  1.0000 -0.3862140229
N   N4        1.0  0.92580  0.13000  0.72370  1.0000 -0.3862140229
N   N5        1.0  0.13000  0.92580  0.02630  1.0000 -0.3862140229
N   N6        1.0  0.87000  0.07420  0.52630  1.0000 -0.3862140229
N   N7        1.0  0.92580  0.87000  0.77630  1.0000 -0.3862140229
N   N8        1.0  0.07420  0.13000  0.27630  1.0000 -0.3862140229
N   N9        1.0  0.72680  0.96470  0.02930  1.0000 -0.3558474122
N   N10       1.0  0.27320  0.03530  0.52930  1.0000 -0.3558474122
N   N11       1.0  0.03530  0.72680  0.27930  1.0000 -0.3558474122
N   N12       1.0  0.96470  0.27320  0.77930  1.0000 -0.3558474122
N   N13       1.0  0.27320  0.96470  0.97070  1.0000 -0.3558474122
N   N14       1.0  0.72680  0.03530  0.47070  1.0000 -0.3558474122
N   N15       1.0  0.96470  0.72680  0.72070  1.0000 -0.3558474122
N   N16       1.0  0.03530  0.27320  0.22070  1.0000 -0.3558474122
O   O1        1.0  0.08550  0.08930  0.12500  1.0000 -0.5619941069
O   O2        1.0  0.91450  0.91070  0.62500  1.0000 -0.5619941069
O   O3        1.0  0.91070  0.08550  0.37500  1.0000 -0.5619941069
O   O4        1.0  0.08930  0.91450  0.87500  1.0000 -0.5619941069
O   O5        1.0  0.91450  0.08930  0.87500  1.0000 -0.5619941069
O   O6        1.0  0.08550  0.91070  0.37500  1.0000 -0.5619941069
O   O7        1.0  0.08930  0.08550  0.62500  1.0000 -0.5619941069
O   O8        1.0  0.91070  0.91450  0.12500  1.0000 -0.5619941069
O   O9        1.0  0.72420  0.09510  0.12470  1.0000 -0.5680041103
O   O10       1.0  0.27580  0.90490  0.62470  1.0000 -0.5680041103
O   O11       1.0  0.90490  0.72420  0.37470  1.0000 -0.5680041103
O   O12       1.0  0.09510  0.27580  0.87470  1.0000 -0.5680041103
O   O13       1.0  0.27580  0.09510  0.87530  1.0000 -0.5680041103
O   O14       1.0  0.72420  0.90490  0.37530  1.0000 -0.5680041103
O   O15       1.0  0.09510  0.72420  0.62530  1.0000 -0.5680041103
O   O16       1.0  0.90490  0.27580  0.12530  1.0000 -0.5680041103
O   O17       1.0  0.66630  0.08860  0.20970  1.0000 -0.5398251949
O   O18       1.0  0.33370  0.91140  0.70970  1.0000 -0.5398251949
O   O19       1.0  0.91140  0.66630  0.45970  1.0000 -0.5398251949
O   O20       1.0  0.08860  0.33370  0.95970  1.0000 -0.5398251949
O   O21       1.0  0.33370  0.08860  0.79030  1.0000 -0.5398251949
O   O22       1.0  0.66630  0.91140  0.29030  1.0000 -0.5398251949
O   O23       1.0  0.08860  0.66630  0.54030  1.0000 -0.5398251949
O   O24       1.0  0.91140  0.33370  0.04030  1.0000 -0.5398251949
O   O25       1.0  0.13570  0.20150  0.05500  1.0000 -0.5680041103
O   O26       1.0  0.86430  0.79850  0.55500  1.0000 -0.5680041103
O   O27       1.0  0.79850  0.13570  0.30500  1.0000 -0.5680041103
O   O28       1.0  0.20150  0.86430  0.80500  1.0000 -0.5680041103
O   O29       1.0  0.86430  0.20150  0.94500  1.0000 -0.5680041103
O   O30       1.0  0.13570  0.79850  0.44500  1.0000 -0.5680041103
O   O31       1.0  0.20150  0.13570  0.69500  1.0000 -0.5680041103
O   O32       1.0  0.79850  0.86430  0.19500  1.0000 -0.5680041103
O   O33       1.0  0.90280  0.06610  0.03870  1.0000 -0.6284763379
O   O34       1.0  0.09720  0.93390  0.53870  1.0000 -0.6284763379
O   O35       1.0  0.93390  0.90280  0.28870  1.0000 -0.6284763379
O   O36       1.0  0.06610  0.09720  0.78870  1.0000 -0.6284763379
O   O37       1.0  0.09720  0.06610  0.96130  1.0000 -0.6284763379
O   O38       1.0  0.90280  0.93390  0.46130  1.0000 -0.6284763379
O   O39       1.0  0.06610  0.90280  0.71130  1.0000 -0.6284763379
O   O40       1.0  0.93390  0.09720  0.21130  1.0000 -0.6284763379
