# DDEC6 charges by PACMAN v1.1 (https://github.com/mtap-research/PACMAN-charge/)
data_2011[Co][dia]3[FSR]5
_chemical_formula_sum              "Co2 H40 C48 N16"
_cell_length_a       14.314
_cell_length_b       14.314
_cell_length_c       6.2872
_cell_angle_alpha    90
_cell_angle_beta     90
_cell_angle_gamma    90

_symmetry_space_group_name_H-M    "P 1"
_symmetry_Int_Tables_number       1

loop_
  _symmetry_equiv_pos_as_xyz
  'x, y, z'

loop_
  _atom_site_type_symbol
  _atom_site_label
  _atom_site_symmetry_multiplicity
  _atom_site_fract_x
  _atom_site_fract_y
  _atom_site_fract_z
  _atom_site_occupancy
  _atom_site_charge
Co  Co1       1.0  0.00000  0.00000  0.00000  1.0000 0.4240821787
Co  Co2       1.0  0.50000  0.50000  0.50000  1.0000 0.425007809
H   H1        1.0  0.86470  0.70210  0.51430  1.0000 0.1042029812
H   H2        1.0  0.20210  0.63530  0.01430  1.0000 0.1042029812
H   H3        1.0  0.13530  0.29790  0.51430  1.0000 0.1042029812
H   H4        1.0  0.79790  0.36470  0.01430  1.0000 0.1042029812
H   H5        1.0  0.63530  0.79790  0.98570  1.0000 0.1042029812
H   H6        1.0  0.29790  0.86470  0.48570  1.0000 0.1042029812
H   H7        1.0  0.36470  0.20210  0.98570  1.0000 0.1042029812
H   H8        1.0  0.70210  0.13530  0.48570  1.0000 0.1042029812
H   H9        1.0  0.68720  0.89730  0.70870  1.0000 0.1042029812
H   H10       1.0  0.39730  0.81280  0.20870  1.0000 0.1042029812
H   H11       1.0  0.31280  0.10270  0.70870  1.0000 0.1042029812
H   H12       1.0  0.60270  0.18720  0.20870  1.0000 0.1042029812
H   H13       1.0  0.81280  0.60270  0.79130  1.0000 0.1042029812
H   H14       1.0  0.10270  0.68720  0.29130  1.0000 0.1042029812
H   H15       1.0  0.18720  0.39730  0.79130  1.0000 0.1042029812
H   H16       1.0  0.89730  0.31280  0.29130  1.0000 0.1042029812
H   H17       1.0  0.95180  0.84470  0.36710  1.0000 0.1241301932
H   H18       1.0  0.34470  0.54820  0.86710  1.0000 0.1241301932
H   H19       1.0  0.04820  0.15530  0.36710  1.0000 0.1241301932
H   H20       1.0  0.65530  0.45180  0.86710  1.0000 0.1241301932
H   H21       1.0  0.54820  0.65530  0.13290  1.0000 0.1241301932
H   H22       1.0  0.15530  0.95180  0.63290  1.0000 0.1241301932
H   H23       1.0  0.45180  0.34470  0.13290  1.0000 0.1241301932
H   H24       1.0  0.84470  0.04820  0.63290  1.0000 0.1241301932
H   H25       1.0  0.78420  0.02530  0.07430  1.0000 0.1075946759
H   H26       1.0  0.52530  0.71580  0.57430  1.0000 0.1075946759
H   H27       1.0  0.21580  0.97470  0.07430  1.0000 0.1075946759
H   H28       1.0  0.47470  0.28420  0.57430  1.0000 0.1075946759
H   H29       1.0  0.71580  0.47470  0.42570  1.0000 0.1075946759
H   H30       1.0  0.97470  0.78420  0.92570  1.0000 0.1075946759
H   H31       1.0  0.28420  0.52530  0.42570  1.0000 0.1075946759
H   H32       1.0  0.02530  0.21580  0.92570  1.0000 0.1075946759
H   H33       1.0  0.70200  0.93960  0.33540  1.0000 0.2486495674
H   H34       1.0  0.43960  0.79800  0.83540  1.0000 0.2486495674
H   H35       1.0  0.29800  0.06040  0.33540  1.0000 0.2486495674
H   H36       1.0  0.56040  0.20200  0.83540  1.0000 0.2486495674
H   H37       1.0  0.79800  0.56040  0.16460  1.0000 0.2486495674
H   H38       1.0  0.06040  0.70200  0.66460  1.0000 0.2486495674
H   H39       1.0  0.20200  0.43960  0.16460  1.0000 0.2486495674
H   H40       1.0  0.93960  0.29800  0.66460  1.0000 0.2486495674
C   C1        1.0  0.77900  0.80780  0.58910  1.0000 0.042539511
C   C2        1.0  0.30780  0.72100  0.08910  1.0000 0.042539511
C   C3        1.0  0.22100  0.19220  0.58910  1.0000 0.042539511
C   C4        1.0  0.69220  0.27900  0.08910  1.0000 0.042539511
C   C5        1.0  0.72100  0.69220  0.91090  1.0000 0.042539511
C   C6        1.0  0.19220  0.77900  0.41090  1.0000 0.042539511
C   C7        1.0  0.27900  0.30780  0.91090  1.0000 0.042539511
C   C8        1.0  0.80780  0.22100  0.41090  1.0000 0.042539511
C   C9        1.0  0.81851  0.72161  0.60820  1.0000 -0.1902659907
C   C10       1.0  0.22161  0.68149  0.10820  1.0000 -0.1902659907
C   C11       1.0  0.18149  0.27839  0.60820  1.0000 -0.1902659907
C   C12       1.0  0.77839  0.31851  0.10820  1.0000 -0.1902659907
C   C13       1.0  0.68149  0.77839  0.89180  1.0000 -0.1902659907
C   C14       1.0  0.27839  0.81851  0.39180  1.0000 -0.1902659907
C   C15       1.0  0.31851  0.22161  0.89180  1.0000 -0.1902659907
C   C16       1.0  0.72161  0.18149  0.39180  1.0000 -0.1902659907
C   C17       1.0  0.71260  0.83790  0.72440  1.0000 -0.1736251451
C   C18       1.0  0.33790  0.78740  0.22440  1.0000 -0.1736251451
C   C19       1.0  0.28740  0.16210  0.72440  1.0000 -0.1736251451
C   C20       1.0  0.66210  0.21260  0.22440  1.0000 -0.1736251451
C   C21       1.0  0.78740  0.66210  0.77560  1.0000 -0.1736251451
C   C22       1.0  0.16210  0.71260  0.27560  1.0000 -0.1736251451
C   C23       1.0  0.21260  0.33790  0.77560  1.0000 -0.1736251451
C   C24       1.0  0.83790  0.28740  0.27560  1.0000 -0.1736251451
C   C25       1.0  0.89880  0.87820  0.32800  1.0000 -0.1351482383
C   C26       1.0  0.37820  0.60120  0.82800  1.0000 -0.1351482383
C   C27       1.0  0.10120  0.12180  0.32800  1.0000 -0.1351482383
C   C28       1.0  0.62180  0.39880  0.82800  1.0000 -0.1351482383
C   C29       1.0  0.60120  0.62180  0.17200  1.0000 -0.1351482383
C   C30       1.0  0.12180  0.89880  0.67200  1.0000 -0.1351482383
C   C31       1.0  0.39880  0.37820  0.17200  1.0000 -0.1351482383
C   C32       1.0  0.87820  0.10120  0.67200  1.0000 -0.1351482383
C   C33       1.0  0.80820  0.97940  0.16360  1.0000 0.0706039156
C   C34       1.0  0.47940  0.69180  0.66360  1.0000 0.0706039156
C   C35       1.0  0.19180  0.02060  0.16360  1.0000 0.0706039156
C   C36       1.0  0.52060  0.30820  0.66360  1.0000 0.0706039156
C   C37       1.0  0.69180  0.52060  0.33640  1.0000 0.0706039156
C   C38       1.0  0.02060  0.80820  0.83640  1.0000 0.0706039156
C   C39       1.0  0.30820  0.47940  0.33640  1.0000 0.0706039156
C   C40       1.0  0.97940  0.19180  0.83640  1.0000 0.0706039156
C   C41       1.0  0.81200  0.86620  0.41280  1.0000 0.1075946759
C   C42       1.0  0.36620  0.68800  0.91280  1.0000 0.1075946759
C   C43       1.0  0.18800  0.13380  0.41280  1.0000 0.1075946759
C   C44       1.0  0.63380  0.31200  0.91280  1.0000 0.1075946759
C   C45       1.0  0.68800  0.63380  0.08720  1.0000 0.1075946759
C   C46       1.0  0.13380  0.81200  0.58720  1.0000 0.1075946759
C   C47       1.0  0.31200  0.36620  0.08720  1.0000 0.1075946759
C   C48       1.0  0.86620  0.18800  0.58720  1.0000 0.1075946759
N   N1        1.0  0.89602  0.94993  0.17000  1.0000 -0.2959352247
N   N2        1.0  0.44993  0.60398  0.67000  1.0000 -0.2959352247
N   N3        1.0  0.10398  0.05007  0.17000  1.0000 -0.2943370155
N   N4        1.0  0.55007  0.39602  0.67000  1.0000 -0.2959352247
N   N5        1.0  0.60398  0.55007  0.33000  1.0000 -0.2959352247
N   N6        1.0  0.05007  0.89602  0.83000  1.0000 -0.2959352247
N   N7        1.0  0.39602  0.44993  0.33000  1.0000 -0.2959352247
N   N8        1.0  0.94993  0.10398  0.83000  1.0000 -0.2959352247
N   N9        1.0  0.76029  0.93056  0.30990  1.0000 -0.2208799272
N   N10       1.0  0.43056  0.73971  0.80990  1.0000 -0.2208799272
N   N11       1.0  0.23971  0.06944  0.30990  1.0000 -0.2208799272
N   N12       1.0  0.56944  0.26029  0.80990  1.0000 -0.2208799272
N   N13       1.0  0.73971  0.56944  0.19010  1.0000 -0.2208799272
N   N14       1.0  0.06944  0.76029  0.69010  1.0000 -0.2208799272
N   N15       1.0  0.26029  0.43056  0.19010  1.0000 -0.2208799272
N   N16       1.0  0.93056  0.23971  0.69010  1.0000 -0.2208799272
