# DDEC6 charges by PACMAN v1.1 (https://github.com/mtap-research/PACMAN-charge/)
data_2011[Cr][bpq]3[FSR]2
_chemical_formula_sum              "Cr2 H8 C16 O10"
_cell_length_a       11.1843
_cell_length_b       11.1843
_cell_length_c       11.1843
_cell_angle_alpha    144.408
_cell_angle_beta     96.6492
_cell_angle_gamma    94.0731

_symmetry_space_group_name_H-M    "P 1"
_symmetry_Int_Tables_number       1

loop_
  _symmetry_equiv_pos_as_xyz
  'x, y, z'

loop_
  _atom_site_type_symbol
  _atom_site_label
  _atom_site_symmetry_multiplicity
  _atom_site_fract_x
  _atom_site_fract_y
  _atom_site_fract_z
  _atom_site_occupancy
  _atom_site_charge
Cr  Cr1       1.0  0.50000  0.50000  0.50000  1.0000 1.6561598715
Cr  Cr2       1.0  0.50000  0.00000  0.00000  1.0000 1.654747003
H   H1        1.0  0.11020  0.25930  0.25550  1.0000 0.1332908769
H   H2        1.0  0.88980  0.14530  0.14910  1.0000 0.1332908769
H   H3        1.0  0.49620  0.74070  0.35090  1.0000 0.1332908769
H   H4        1.0  0.50380  0.85470  0.24450  1.0000 0.1332908769
H   H5        1.0  0.88980  0.74070  0.74450  1.0000 0.1332908769
H   H6        1.0  0.11020  0.85470  0.85090  1.0000 0.1332908769
H   H7        1.0  0.50380  0.25930  0.64910  1.0000 0.1332908769
H   H8        1.0  0.49620  0.14530  0.75550  1.0000 0.1332908769
C   C1        1.0  0.12850  0.56640  0.56210  1.0000 -0.0166157729
C   C2        1.0  0.87150  0.43360  0.43790  1.0000 -0.0166157729
C   C3        1.0  0.49570  0.43360  0.06210  1.0000 -0.0166157729
C   C4        1.0  0.50430  0.56640  0.93790  1.0000 -0.0166157729
C   C5        1.0  0.06420  0.35970  0.35750  1.0000 -0.0952576908
C   C6        1.0  0.93580  0.29330  0.29550  1.0000 -0.0945025298
C   C7        1.0  0.49780  0.64030  0.20450  1.0000 -0.0952576908
C   C8        1.0  0.50220  0.70670  0.14250  1.0000 -0.0945025298
C   C9        1.0  0.93580  0.64030  0.64250  1.0000 -0.0945025298
C   C10       1.0  0.06420  0.70670  0.70450  1.0000 -0.0945025298
C   C11       1.0  0.50220  0.35970  0.79550  1.0000 -0.0945025298
C   C12       1.0  0.49780  0.29330  0.85750  1.0000 -0.0952576908
C   C13       1.0  0.26640  0.63770  0.62870  1.0000 0.6138585892
C   C14       1.0  0.73360  0.36230  0.37130  1.0000 0.6138585892
C   C15       1.0  0.49100  0.36230  0.12870  1.0000 0.6138585892
C   C16       1.0  0.50900  0.63770  0.87130  1.0000 0.6138585892
O   O1        1.0  0.55150  0.80150  0.75000  1.0000 -0.8843199972
O   O2        1.0  0.44850  0.19850  0.25000  1.0000 -0.8843199972
O   O3        1.0  0.32490  0.50970  0.49880  1.0000 -0.5299099299
O   O4        1.0  0.67510  0.17390  0.18480  1.0000 -0.5299099299
O   O5        1.0  0.48910  0.49030  0.31520  1.0000 -0.5299099299
O   O6        1.0  0.51090  0.82610  0.00120  1.0000 -0.5299099299
O   O7        1.0  0.67510  0.49030  0.50120  1.0000 -0.5299099299
O   O8        1.0  0.32490  0.82610  0.81520  1.0000 -0.5299099299
O   O9        1.0  0.51090  0.50970  0.68480  1.0000 -0.5299099299
O   O10       1.0  0.48910  0.17390  0.99880  1.0000 -0.5299099299
