# DDEC6 charges by PACMAN v1.1 (https://github.com/mtap-research/PACMAN-charge/)
data_2011[Cd][pcu]3[FSR]3
_chemical_formula_sum              "Cd2 H44 C60 N12 O12"
_cell_length_a       12.3169
_cell_length_b       12.3169
_cell_length_c       13.1563
_cell_angle_alpha    78.7529
_cell_angle_beta     101.247
_cell_angle_gamma    111.695

_symmetry_space_group_name_H-M    "P 1"
_symmetry_Int_Tables_number       1

loop_
  _symmetry_equiv_pos_as_xyz
  'x, y, z'

loop_
  _atom_site_type_symbol
  _atom_site_label
  _atom_site_symmetry_multiplicity
  _atom_site_fract_x
  _atom_site_fract_y
  _atom_site_fract_z
  _atom_site_occupancy
  _atom_site_charge
Cd  Cd1       1.0  0.50000  0.00000  0.50000  1.0000 0.7729544463
Cd  Cd2       1.0  0.00000  0.50000  0.00000  1.0000 0.7729544463
H   H1        1.0  0.56300  0.19040  0.27920  1.0000 0.1033446165
H   H2        1.0  0.19040  0.56300  0.22080  1.0000 0.1033446165
H   H3        1.0  0.43700  0.80960  0.72080  1.0000 0.1033446165
H   H4        1.0  0.80960  0.43700  0.77920  1.0000 0.1033446165
H   H5        1.0  0.93540  0.22540  0.43510  1.0000 0.1219257908
H   H6        1.0  0.22540  0.93540  0.06490  1.0000 0.1219257908
H   H7        1.0  0.06460  0.77460  0.56490  1.0000 0.1219257908
H   H8        1.0  0.77460  0.06460  0.93510  1.0000 0.1219257908
H   H9        1.0  0.71710  0.30270  0.19020  1.0000 0.140174319
H   H10       1.0  0.30270  0.71710  0.30980  1.0000 0.140174319
H   H11       1.0  0.28290  0.69730  0.80980  1.0000 0.140174319
H   H12       1.0  0.69730  0.28290  0.69020  1.0000 0.140174319
H   H13       1.0  0.01910  0.63150  0.34770  1.0000 0.1219257908
H   H14       1.0  0.63150  0.01910  0.15230  1.0000 0.1219257908
H   H15       1.0  0.98090  0.36850  0.65230  1.0000 0.1219257908
H   H16       1.0  0.36850  0.98090  0.84770  1.0000 0.1219257908
H   H17       1.0  0.65650  0.85430  0.65460  1.0000 0.1096497969
H   H18       1.0  0.85430  0.65650  0.84540  1.0000 0.1096497969
H   H19       1.0  0.34350  0.14570  0.34540  1.0000 0.1096497969
H   H20       1.0  0.14570  0.34350  0.15460  1.0000 0.1096497969
H   H21       1.0  0.85140  0.46920  0.59610  1.0000 0.1096497969
H   H22       1.0  0.46920  0.85140  0.90390  1.0000 0.1096497969
H   H23       1.0  0.14860  0.53080  0.40390  1.0000 0.1096497969
H   H24       1.0  0.53080  0.14860  0.09610  1.0000 0.1096497969
H   H25       1.0  0.85250  0.65750  0.57130  1.0000 0.2857059808
H   H26       1.0  0.65750  0.85250  0.92870  1.0000 0.2857059808
H   H27       1.0  0.14750  0.34250  0.42870  1.0000 0.2857059808
H   H28       1.0  0.34250  0.14750  0.07130  1.0000 0.2857059808
H   H29       1.0  0.57560  0.86560  0.35290  1.0000 0.1096497969
H   H30       1.0  0.86560  0.57560  0.14710  1.0000 0.1096497969
H   H31       1.0  0.42440  0.13440  0.64710  1.0000 0.1096497969
H   H32       1.0  0.13440  0.42440  0.85290  1.0000 0.1096497969
H   H33       1.0  0.69440  0.76100  0.34680  1.0000 0.1632820042
H   H34       1.0  0.76100  0.69440  0.15320  1.0000 0.1632820042
H   H35       1.0  0.30560  0.23900  0.65320  1.0000 0.1632820042
H   H36       1.0  0.23900  0.30560  0.84680  1.0000 0.1632820042
H   H37       1.0  0.77360  0.74800  0.65790  1.0000 0.140174319
H   H38       1.0  0.74800  0.77360  0.84210  1.0000 0.140174319
H   H39       1.0  0.22640  0.25200  0.34210  1.0000 0.140174319
H   H40       1.0  0.25200  0.22640  0.15790  1.0000 0.140174319
H   H41       1.0  0.77490  0.11990  0.52030  1.0000 0.1033446165
H   H42       1.0  0.11990  0.77490  0.97970  1.0000 0.1033446165
H   H43       1.0  0.22510  0.88010  0.47970  1.0000 0.1033446165
H   H44       1.0  0.88010  0.22510  0.02030  1.0000 0.1033446165
C   C1        1.0  0.94960  0.34400  0.24150  1.0000 0.5517714591
C   C2        1.0  0.34400  0.94960  0.25850  1.0000 0.5517714591
C   C3        1.0  0.05040  0.65600  0.75850  1.0000 0.5517714591
C   C4        1.0  0.65600  0.05040  0.74150  1.0000 0.5517714591
C   C5        1.0  0.84590  0.27650  0.30140  1.0000 0.0270742615
C   C6        1.0  0.27650  0.84590  0.19860  1.0000 0.0270742615
C   C7        1.0  0.15410  0.72350  0.69860  1.0000 0.0270742615
C   C8        1.0  0.72350  0.15410  0.80140  1.0000 0.0270742615
C   C9        1.0  0.63910  0.19810  0.31150  1.0000 0.0590402358
C   C10       1.0  0.19810  0.63910  0.18850  1.0000 0.0590402358
C   C11       1.0  0.36090  0.80190  0.68850  1.0000 0.0590402358
C   C12       1.0  0.80190  0.36090  0.81150  1.0000 0.0590402358
C   C13       1.0  0.86030  0.22030  0.40150  1.0000 -0.1704394101
C   C14       1.0  0.22030  0.86030  0.09850  1.0000 -0.1704394101
C   C15       1.0  0.13970  0.77970  0.59850  1.0000 -0.1704394101
C   C16       1.0  0.77970  0.13970  0.90150  1.0000 -0.1704394101
C   C17       1.0  0.73150  0.26490  0.25720  1.0000 -0.1624346739
C   C18       1.0  0.26490  0.73150  0.24280  1.0000 -0.1624346739
C   C19       1.0  0.26850  0.73510  0.74280  1.0000 -0.1624346739
C   C20       1.0  0.73510  0.26850  0.75720  1.0000 -0.1624346739
C   C21       1.0  0.01160  0.57900  0.40930  1.0000 -0.1136596492
C   C22       1.0  0.57900  0.01160  0.09070  1.0000 -0.1136596492
C   C23       1.0  0.98840  0.42100  0.59070  1.0000 -0.1136596492
C   C24       1.0  0.42100  0.98840  0.90930  1.0000 -0.1136596492
C   C25       1.0  0.66390  0.83530  0.59180  1.0000 0.0590402358
C   C26       1.0  0.83530  0.66390  0.90820  1.0000 0.0590402358
C   C27       1.0  0.33610  0.16470  0.40820  1.0000 0.0590402358
C   C28       1.0  0.16470  0.33610  0.09180  1.0000 0.0590402358
C   C29       1.0  0.91180  0.48220  0.55740  1.0000 -0.1292310124
C   C30       1.0  0.48220  0.91180  0.94260  1.0000 -0.1292310124
C   C31       1.0  0.08820  0.51780  0.44260  1.0000 -0.1292310124
C   C32       1.0  0.51780  0.08820  0.05740  1.0000 -0.1292310124
C   C33       1.0  0.61690  0.84210  0.41510  1.0000 0.0827542589
C   C34       1.0  0.84210  0.61690  0.08490  1.0000 0.0827542589
C   C35       1.0  0.38310  0.15790  0.58490  1.0000 0.0827542589
C   C36       1.0  0.15790  0.38310  0.91510  1.0000 0.0827542589
C   C37       1.0  0.74610  0.73990  0.50250  1.0000 0.2719445946
C   C38       1.0  0.73990  0.74610  0.99750  1.0000 0.2719445946
C   C39       1.0  0.25390  0.26010  0.49750  1.0000 0.2719445946
C   C40       1.0  0.26010  0.25390  0.00250  1.0000 0.2719445946
C   C41       1.0  0.68720  0.77800  0.41050  1.0000 -0.2117273836
C   C42       1.0  0.77800  0.68720  0.08950  1.0000 -0.2117273836
C   C43       1.0  0.31280  0.22200  0.58950  1.0000 -0.2117273836
C   C44       1.0  0.22200  0.31280  0.91050  1.0000 -0.2117273836
C   C45       1.0  0.92310  0.56250  0.46760  1.0000 -0.0253701071
C   C46       1.0  0.56250  0.92310  0.03240  1.0000 -0.0253701071
C   C47       1.0  0.07690  0.43750  0.53240  1.0000 -0.0253701071
C   C48       1.0  0.43750  0.07690  0.96760  1.0000 -0.0253701071
C   C49       1.0  0.73390  0.77110  0.59450  1.0000 -0.2446902423
C   C50       1.0  0.77110  0.73390  0.90550  1.0000 -0.2527942626
C   C51       1.0  0.26610  0.22890  0.40550  1.0000 -0.2446902423
C   C52       1.0  0.22890  0.26610  0.09450  1.0000 -0.2446902423
C   C53       1.0  0.84390  0.63370  0.43050  1.0000 0.4605045141
C   C54       1.0  0.63370  0.84390  0.06950  1.0000 0.4605045141
C   C55       1.0  0.15610  0.36630  0.56950  1.0000 0.4605045141
C   C56       1.0  0.36630  0.15610  0.93050  1.0000 0.4605045141
C   C57       1.0  0.76260  0.15600  0.45220  1.0000 0.0876271324
C   C58       1.0  0.15600  0.76260  0.04780  1.0000 0.0876271324
C   C59       1.0  0.23740  0.84400  0.54780  1.0000 0.0876271324
C   C60       1.0  0.84400  0.23740  0.95220  1.0000 0.0876271324
N   N1        1.0  0.65360  0.14320  0.40910  1.0000 -0.2228642283
N   N2        1.0  0.14320  0.65360  0.09090  1.0000 -0.2228642283
N   N3        1.0  0.34640  0.85680  0.59090  1.0000 -0.2228642283
N   N4        1.0  0.85680  0.34640  0.90910  1.0000 -0.2228642283
N   N5        1.0  0.60470  0.87270  0.50350  1.0000 -0.2527942626
N   N6        1.0  0.87270  0.60470  0.99650  1.0000 -0.2527942626
N   N7        1.0  0.39530  0.12730  0.49650  1.0000 -0.2527942626
N   N8        1.0  0.12730  0.39530  0.00350  1.0000 -0.2527942626
N   N9        1.0  0.81900  0.67440  0.50960  1.0000 -0.3732170044
N   N10       1.0  0.67440  0.81900  0.99040  1.0000 -0.3732170044
N   N11       1.0  0.18100  0.32560  0.49040  1.0000 -0.3732170044
N   N12       1.0  0.32560  0.18100  0.00960  1.0000 -0.3732170044
O   O1        1.0  0.92590  0.39150  0.15040  1.0000 -0.5706450223
O   O2        1.0  0.39150  0.92590  0.34960  1.0000 -0.5706450223
O   O3        1.0  0.07410  0.60850  0.84960  1.0000 -0.5706450223
O   O4        1.0  0.60850  0.07410  0.65040  1.0000 -0.5706450223
O   O5        1.0  0.04940  0.34720  0.28580  1.0000 -0.5706450223
O   O6        1.0  0.34720  0.04940  0.21420  1.0000 -0.5706450223
O   O7        1.0  0.95060  0.65280  0.71420  1.0000 -0.5706450223
O   O8        1.0  0.65280  0.95060  0.78580  1.0000 -0.5706450223
O   O9        1.0  0.80870  0.65470  0.33950  1.0000 -0.4458028553
O   O10       1.0  0.65470  0.80870  0.16050  1.0000 -0.4448305844
O   O11       1.0  0.19130  0.34530  0.66050  1.0000 -0.4458028553
O   O12       1.0  0.34530  0.19130  0.83950  1.0000 -0.4448305844
