# DDEC6 charges by PACMAN v1.1 (https://github.com/mtap-research/PACMAN-charge/)
data_2011[UNd][nan]3[FSR]1
_chemical_formula_sum              "Nd4 U8 C48 O80"
_cell_length_a       11.628
_cell_length_b       13.065
_cell_length_c       15.578
_cell_angle_alpha    90
_cell_angle_beta     90
_cell_angle_gamma    90

_symmetry_space_group_name_H-M    "P 1"
_symmetry_Int_Tables_number       1

loop_
  _symmetry_equiv_pos_as_xyz
  'x, y, z'

loop_
  _atom_site_type_symbol
  _atom_site_label
  _atom_site_symmetry_multiplicity
  _atom_site_fract_x
  _atom_site_fract_y
  _atom_site_fract_z
  _atom_site_occupancy
  _atom_site_charge
Nd  Nd1       1.0  0.25000  0.93986  0.28570  1.0000 2.1360720637
Nd  Nd2       1.0  0.75000  0.43986  0.21430  1.0000 2.1360720637
Nd  Nd3       1.0  0.75000  0.06014  0.71430  1.0000 2.1360720637
Nd  Nd4       1.0  0.25000  0.56014  0.78570  1.0000 2.1360720637
U   U1        1.0  0.25000  0.65944  0.24607  1.0000 2.4866028073
U   U2        1.0  0.75000  0.15944  0.25393  1.0000 2.4866028073
U   U3        1.0  0.75000  0.34056  0.75393  1.0000 2.4866028073
U   U4        1.0  0.25000  0.84056  0.74607  1.0000 2.4866028073
U   U5        1.0  0.00000  0.00000  0.00000  1.0000 2.3845838549
U   U6        1.0  0.00000  0.50000  0.50000  1.0000 2.3862458708
U   U7        1.0  0.50000  0.00000  0.00000  1.0000 2.3845838549
U   U8        1.0  0.50000  0.50000  0.50000  1.0000 2.3862458708
C   C1        1.0  0.12950  0.28300  0.23050  1.0000 -0.0188190287
C   C2        1.0  0.87050  0.78300  0.26950  1.0000 -0.0188190287
C   C3        1.0  0.62950  0.71700  0.76950  1.0000 -0.0188190287
C   C4        1.0  0.37050  0.21700  0.73050  1.0000 -0.0188190287
C   C5        1.0  0.87050  0.71700  0.76950  1.0000 -0.0188190287
C   C6        1.0  0.12950  0.21700  0.73050  1.0000 -0.0188190287
C   C7        1.0  0.37050  0.28300  0.23050  1.0000 -0.0188190287
C   C8        1.0  0.62950  0.78300  0.26950  1.0000 -0.0188190287
C   C9        1.0  0.99880  0.28290  0.23380  1.0000 0.6767885851
C   C10       1.0  0.00120  0.78290  0.26620  1.0000 0.6767885851
C   C11       1.0  0.49880  0.71710  0.76620  1.0000 0.6767885851
C   C12       1.0  0.50120  0.21710  0.73380  1.0000 0.6767885851
C   C13       1.0  0.00120  0.71710  0.76620  1.0000 0.6767885851
C   C14       1.0  0.99880  0.21710  0.73380  1.0000 0.6767885851
C   C15       1.0  0.50120  0.28290  0.23380  1.0000 0.6767885851
C   C16       1.0  0.49880  0.78290  0.26620  1.0000 0.6767885851
C   C17       1.0  0.18990  0.20470  0.19060  1.0000 -0.0516002869
C   C18       1.0  0.81010  0.70470  0.30940  1.0000 -0.0516002869
C   C19       1.0  0.68990  0.79530  0.80940  1.0000 -0.0516002869
C   C20       1.0  0.31010  0.29530  0.69060  1.0000 -0.0516002869
C   C21       1.0  0.81010  0.79530  0.80940  1.0000 -0.0516002869
C   C22       1.0  0.18990  0.29530  0.69060  1.0000 -0.0516002869
C   C23       1.0  0.31010  0.20470  0.19060  1.0000 -0.0516002869
C   C24       1.0  0.68990  0.70470  0.30940  1.0000 -0.0516002869
C   C25       1.0  0.12700  0.11890  0.14560  1.0000 0.6397740336
C   C26       1.0  0.87300  0.61890  0.35440  1.0000 0.6397740336
C   C27       1.0  0.62700  0.88110  0.85440  1.0000 0.6397740336
C   C28       1.0  0.37300  0.38110  0.64560  1.0000 0.6397740336
C   C29       1.0  0.87300  0.88110  0.85440  1.0000 0.6397740336
C   C30       1.0  0.12700  0.38110  0.64560  1.0000 0.6397740336
C   C31       1.0  0.37300  0.11890  0.14560  1.0000 0.6397740336
C   C32       1.0  0.62700  0.61890  0.35440  1.0000 0.6397740336
C   C33       1.0  0.12520  0.43640  0.32680  1.0000 0.6637431102
C   C34       1.0  0.87480  0.93640  0.17320  1.0000 0.6637431102
C   C35       1.0  0.62520  0.56360  0.67320  1.0000 0.6637431102
C   C36       1.0  0.37480  0.06360  0.82680  1.0000 0.6637431102
C   C37       1.0  0.87480  0.56360  0.67320  1.0000 0.6637431102
C   C38       1.0  0.12520  0.06360  0.82680  1.0000 0.6637431102
C   C39       1.0  0.37480  0.43640  0.32680  1.0000 0.6637431102
C   C40       1.0  0.62520  0.93640  0.17320  1.0000 0.6637431102
C   C41       1.0  0.19020  0.36170  0.27140  1.0000 -0.0413129275
C   C42       1.0  0.80980  0.86170  0.22860  1.0000 -0.0413129275
C   C43       1.0  0.69020  0.63830  0.72860  1.0000 -0.0413129275
C   C44       1.0  0.30980  0.13830  0.77140  1.0000 -0.0413129275
C   C45       1.0  0.80980  0.63830  0.72860  1.0000 -0.0413129275
C   C46       1.0  0.19020  0.13830  0.77140  1.0000 -0.0413129275
C   C47       1.0  0.30980  0.36170  0.27140  1.0000 -0.0413129275
C   C48       1.0  0.69020  0.86170  0.22860  1.0000 -0.0413129275
O   O1        1.0  0.07390  0.14220  0.07760  1.0000 -0.5487761667
O   O2        1.0  0.92610  0.64220  0.42240  1.0000 -0.5487761667
O   O3        1.0  0.57390  0.85780  0.92240  1.0000 -0.5487761667
O   O4        1.0  0.42610  0.35780  0.57760  1.0000 -0.5487761667
O   O5        1.0  0.92610  0.85780  0.92240  1.0000 -0.5487761667
O   O6        1.0  0.07390  0.35780  0.57760  1.0000 -0.5487761667
O   O7        1.0  0.42610  0.14220  0.07760  1.0000 -0.5487761667
O   O8        1.0  0.57390  0.64220  0.42240  1.0000 -0.5487761667
O   O9        1.0  0.13050  0.03100  0.17490  1.0000 -0.5487761667
O   O10       1.0  0.86950  0.53100  0.32510  1.0000 -0.5487761667
O   O11       1.0  0.63050  0.96900  0.82510  1.0000 -0.5487761667
O   O12       1.0  0.36950  0.46900  0.67490  1.0000 -0.5487761667
O   O13       1.0  0.86950  0.96900  0.82510  1.0000 -0.5487761667
O   O14       1.0  0.13050  0.46900  0.67490  1.0000 -0.5487761667
O   O15       1.0  0.36950  0.03100  0.17490  1.0000 -0.5487761667
O   O16       1.0  0.63050  0.53100  0.32510  1.0000 -0.5487761667
O   O17       1.0  0.12940  0.92990  0.00490  1.0000 -0.5487761667
O   O18       1.0  0.87060  0.42990  0.49510  1.0000 -0.5572444556
O   O19       1.0  0.62940  0.07010  0.99510  1.0000 -0.5487761667
O   O20       1.0  0.37060  0.57010  0.50490  1.0000 -0.5572444556
O   O21       1.0  0.87060  0.07010  0.99510  1.0000 -0.5487761667
O   O22       1.0  0.12940  0.57010  0.50490  1.0000 -0.5572444556
O   O23       1.0  0.37060  0.92990  0.00490  1.0000 -0.5487761667
O   O24       1.0  0.62940  0.42990  0.49510  1.0000 -0.5572444556
O   O25       1.0  0.06970  0.39630  0.38720  1.0000 -0.5487761667
O   O26       1.0  0.93030  0.89630  0.11280  1.0000 -0.544157183
O   O27       1.0  0.56970  0.60370  0.61280  1.0000 -0.5487761667
O   O28       1.0  0.43030  0.10370  0.88720  1.0000 -0.544157183
O   O29       1.0  0.93030  0.60370  0.61280  1.0000 -0.5487761667
O   O30       1.0  0.06970  0.10370  0.88720  1.0000 -0.544157183
O   O31       1.0  0.43030  0.39630  0.38720  1.0000 -0.5487761667
O   O32       1.0  0.56970  0.89630  0.11280  1.0000 -0.544157183
O   O33       1.0  0.25000  0.73630  0.34030  1.0000 -0.6777077226
O   O34       1.0  0.75000  0.23630  0.15970  1.0000 -0.6777077226
O   O35       1.0  0.75000  0.26370  0.65970  1.0000 -0.6777077226
O   O36       1.0  0.25000  0.76370  0.84030  1.0000 -0.6777077226
O   O37       1.0  0.25000  0.81160  0.17740  1.0000 -0.9979411421
O   O38       1.0  0.75000  0.31160  0.32260  1.0000 -0.9979411421
O   O39       1.0  0.75000  0.18840  0.82260  1.0000 -0.9979411421
O   O40       1.0  0.25000  0.68840  0.67740  1.0000 -0.9979411421
O   O41       1.0  0.13180  0.53010  0.31460  1.0000 -0.5727761743
O   O42       1.0  0.86820  0.03010  0.18540  1.0000 -0.5727761743
O   O43       1.0  0.63180  0.46990  0.68540  1.0000 -0.5727761743
O   O44       1.0  0.36820  0.96990  0.81460  1.0000 -0.5727761743
O   O45       1.0  0.86820  0.46990  0.68540  1.0000 -0.5727761743
O   O46       1.0  0.13180  0.96990  0.81460  1.0000 -0.5727761743
O   O47       1.0  0.36820  0.53010  0.31460  1.0000 -0.5727761743
O   O48       1.0  0.63180  0.03010  0.18540  1.0000 -0.5727761743
O   O49       1.0  0.11670  0.06920  0.35330  1.0000 -0.2631806043
O   O50       1.0  0.88330  0.56920  0.14670  1.0000 -0.2631806043
O   O51       1.0  0.61670  0.93080  0.64670  1.0000 -0.2631806043
O   O52       1.0  0.38330  0.43080  0.85330  1.0000 -0.2631806043
O   O53       1.0  0.88330  0.93080  0.64670  1.0000 -0.2631806043
O   O54       1.0  0.11670  0.43080  0.85330  1.0000 -0.2631806043
O   O55       1.0  0.38330  0.06920  0.35330  1.0000 -0.2631806043
O   O56       1.0  0.61670  0.56920  0.14670  1.0000 -0.2631806043
O   O57       1.0  0.25000  0.91620  0.44280  1.0000 -0.3459509817
O   O58       1.0  0.75000  0.41620  0.05720  1.0000 -0.3459509817
O   O59       1.0  0.75000  0.08380  0.55720  1.0000 -0.3459509817
O   O60       1.0  0.25000  0.58380  0.94280  1.0000 -0.3459509817
O   O61       1.0  0.95300  0.20140  0.26200  1.0000 -0.5200374432
O   O62       1.0  0.04700  0.70140  0.23800  1.0000 -0.5200374432
O   O63       1.0  0.45300  0.79860  0.73800  1.0000 -0.5200374432
O   O64       1.0  0.54700  0.29860  0.76200  1.0000 -0.5200374432
O   O65       1.0  0.04700  0.79860  0.73800  1.0000 -0.5200374432
O   O66       1.0  0.95300  0.29860  0.76200  1.0000 -0.5200374432
O   O67       1.0  0.54700  0.20140  0.26200  1.0000 -0.5200374432
O   O68       1.0  0.45300  0.70140  0.23800  1.0000 -0.5200374432
O   O69       1.0  0.94790  0.36120  0.20890  1.0000 -0.5487761667
O   O70       1.0  0.05210  0.86120  0.29110  1.0000 -0.5487761667
O   O71       1.0  0.44790  0.63880  0.79110  1.0000 -0.5487761667
O   O72       1.0  0.55210  0.13880  0.70890  1.0000 -0.5487761667
O   O73       1.0  0.05210  0.63880  0.79110  1.0000 -0.5487761667
O   O74       1.0  0.94790  0.13880  0.70890  1.0000 -0.5487761667
O   O75       1.0  0.55210  0.36120  0.20890  1.0000 -0.5487761667
O   O76       1.0  0.44790  0.86120  0.29110  1.0000 -0.5487761667
O   O77       1.0  0.25000  0.58800  0.15100  1.0000 -0.5200374432
O   O78       1.0  0.75000  0.08800  0.34900  1.0000 -0.5200374432
O   O79       1.0  0.75000  0.41200  0.84900  1.0000 -0.5200374432
O   O80       1.0  0.25000  0.91200  0.65100  1.0000 -0.5200374432
