# DDEC6 charges by PACMAN v1.1 (https://github.com/mtap-research/PACMAN-charge/)
data_2011[Zn][nan]3[FSR]9
_chemical_formula_sum              "Zn8 P8 H24 C32 O48"
_cell_length_a       9.9954
_cell_length_b       9.1189
_cell_length_c       27.6213
_cell_angle_alpha    90
_cell_angle_beta     92.211
_cell_angle_gamma    90

_symmetry_space_group_name_H-M    "P 1"
_symmetry_Int_Tables_number       1

loop_
  _symmetry_equiv_pos_as_xyz
  'x, y, z'

loop_
  _atom_site_type_symbol
  _atom_site_label
  _atom_site_symmetry_multiplicity
  _atom_site_fract_x
  _atom_site_fract_y
  _atom_site_fract_z
  _atom_site_occupancy
  _atom_site_charge
Zn  Zn1       1.0  0.90405  0.67800  0.95046  1.0000 1.0813045818
Zn  Zn2       1.0  0.59595  0.17800  0.04954  1.0000 1.0813045818
Zn  Zn3       1.0  0.09595  0.32200  0.04954  1.0000 1.0813045818
Zn  Zn4       1.0  0.40405  0.82200  0.95046  1.0000 1.0813045818
Zn  Zn5       1.0  0.91212  0.67831  0.54835  1.0000 1.0718557853
Zn  Zn6       1.0  0.58788  0.17831  0.45165  1.0000 1.0718557853
Zn  Zn7       1.0  0.08788  0.32169  0.45165  1.0000 1.0718557853
Zn  Zn8       1.0  0.41212  0.82169  0.54835  1.0000 1.0718557853
P   P1        1.0  0.19539  0.58054  0.97337  1.0000 1.5174662787
P   P2        1.0  0.30461  0.08054  0.02663  1.0000 1.5174662787
P   P3        1.0  0.80461  0.41946  0.02663  1.0000 1.5174662787
P   P4        1.0  0.69539  0.91946  0.97337  1.0000 1.5174662787
P   P5        1.0  0.19868  0.57704  0.52336  1.0000 1.5271381158
P   P6        1.0  0.30132  0.07704  0.47664  1.0000 1.5271381158
P   P7        1.0  0.80132  0.42296  0.47664  1.0000 1.5271381158
P   P8        1.0  0.69868  0.92296  0.52336  1.0000 1.5271381158
H   H1        1.0  0.06260  0.47810  0.73120  1.0000 0.1283588316
H   H2        1.0  0.43740  0.97810  0.26880  1.0000 0.1283588316
H   H3        1.0  0.93740  0.52190  0.26880  1.0000 0.1283588316
H   H4        1.0  0.56260  0.02190  0.73120  1.0000 0.1283588316
H   H5        1.0  0.99580  0.51040  0.81050  1.0000 0.1420534793
H   H6        1.0  0.50420  0.01040  0.18950  1.0000 0.1420534793
H   H7        1.0  0.00420  0.48960  0.18950  1.0000 0.1420534793
H   H8        1.0  0.49580  0.98960  0.81050  1.0000 0.1420534793
H   H9        1.0  0.70110  0.78830  0.76640  1.0000 0.1283588316
H   H10       1.0  0.79890  0.28830  0.23360  1.0000 0.1283588316
H   H11       1.0  0.29890  0.21170  0.23360  1.0000 0.1283588316
H   H12       1.0  0.20110  0.71170  0.76640  1.0000 0.1283588316
H   H13       1.0  0.75950  0.76680  0.68520  1.0000 0.1420534793
H   H14       1.0  0.74050  0.26680  0.31480  1.0000 0.1420534793
H   H15       1.0  0.24050  0.23320  0.31480  1.0000 0.1420534793
H   H16       1.0  0.25950  0.73320  0.68520  1.0000 0.1420534793
H   H17       1.0  0.17610  0.54910  0.90100  1.0000 0.406725036
H   H18       1.0  0.32390  0.04910  0.09900  1.0000 0.406725036
H   H19       1.0  0.82390  0.45090  0.09900  1.0000 0.406725036
H   H20       1.0  0.67610  0.95090  0.90100  1.0000 0.406725036
H   H21       1.0  0.12260  0.46870  0.57970  1.0000 0.4020029846
H   H22       1.0  0.37740  0.96870  0.42030  1.0000 0.4020029846
H   H23       1.0  0.87740  0.53130  0.42030  1.0000 0.4020029846
H   H24       1.0  0.62260  0.03130  0.57970  1.0000 0.4020029846
C   C1        1.0  0.84550  0.66520  0.79781  1.0000 0.0100597147
C   C2        1.0  0.65450  0.16520  0.20219  1.0000 0.0100597147
C   C3        1.0  0.15450  0.33480  0.20219  1.0000 0.0100597147
C   C4        1.0  0.34550  0.83480  0.79781  1.0000 0.0100597147
C   C5        1.0  0.77320  0.73380  0.75993  1.0000 -0.0740990471
C   C6        1.0  0.72680  0.23380  0.24007  1.0000 -0.0740990471
C   C7        1.0  0.22680  0.26620  0.24007  1.0000 -0.0740990471
C   C8        1.0  0.27320  0.76620  0.75993  1.0000 -0.0740990471
C   C9        1.0  0.94870  0.57060  0.78723  1.0000 -0.0804048659
C   C10       1.0  0.55130  0.07060  0.21277  1.0000 -0.0804048659
C   C11       1.0  0.05130  0.42940  0.21277  1.0000 -0.0804048659
C   C12       1.0  0.44870  0.92940  0.78723  1.0000 -0.0804048659
C   C13       1.0  0.80680  0.70940  0.71211  1.0000 -0.0804048659
C   C14       1.0  0.69320  0.20940  0.28789  1.0000 -0.0804048659
C   C15       1.0  0.19320  0.29060  0.28789  1.0000 -0.0804048659
C   C16       1.0  0.30680  0.79060  0.71211  1.0000 -0.0804048659
C   C17       1.0  0.98190  0.54730  0.73940  1.0000 -0.0804048659
C   C18       1.0  0.51810  0.04730  0.26060  1.0000 -0.0804048659
C   C19       1.0  0.01810  0.45270  0.26060  1.0000 -0.0804048659
C   C20       1.0  0.48190  0.95270  0.73940  1.0000 -0.0804048659
C   C21       1.0  0.91310  0.61930  0.70173  1.0000 0.0100597147
C   C22       1.0  0.58690  0.11930  0.29827  1.0000 0.0100597147
C   C23       1.0  0.08690  0.38070  0.29827  1.0000 0.0100597147
C   C24       1.0  0.41310  0.88070  0.70173  1.0000 0.0100597147
C   C25       1.0  0.96060  0.60560  0.65026  1.0000 0.5918323491
C   C26       1.0  0.53940  0.10560  0.34974  1.0000 0.5918323491
C   C27       1.0  0.03940  0.39440  0.34974  1.0000 0.5918323491
C   C28       1.0  0.46060  0.89440  0.65026  1.0000 0.5918323491
C   C29       1.0  0.81600  0.70470  0.84963  1.0000 0.5918323491
C   C30       1.0  0.68400  0.20470  0.15037  1.0000 0.5918323491
C   C31       1.0  0.18400  0.29530  0.15037  1.0000 0.5918323491
C   C32       1.0  0.31600  0.79530  0.84963  1.0000 0.5918323491
O   O1        1.0  0.09490  0.70290  0.96662  1.0000 -0.7501582634
O   O2        1.0  0.40510  0.20290  0.03338  1.0000 -0.7501582634
O   O3        1.0  0.90510  0.29710  0.03338  1.0000 -0.7501582634
O   O4        1.0  0.59490  0.79710  0.96662  1.0000 -0.7501582634
O   O5        1.0  0.33790  0.64280  0.97829  1.0000 -0.7083177995
O   O6        1.0  0.16210  0.14280  0.02171  1.0000 -0.7083177995
O   O7        1.0  0.66210  0.35720  0.02171  1.0000 -0.7083177995
O   O8        1.0  0.83790  0.85720  0.97829  1.0000 -0.7083177995
O   O9        1.0  0.17180  0.48520  0.01638  1.0000 -0.7345043998
O   O10       1.0  0.32820  0.98520  0.98362  1.0000 -0.7369419318
O   O11       1.0  0.82820  0.51480  0.98362  1.0000 -0.7369419318
O   O12       1.0  0.67180  0.01480  0.01638  1.0000 -0.7345043998
O   O13       1.0  0.18680  0.48110  0.92606  1.0000 -0.579853518
O   O14       1.0  0.31320  0.98110  0.07394  1.0000 -0.579853518
O   O15       1.0  0.81320  0.51890  0.07394  1.0000 -0.579853518
O   O16       1.0  0.68680  0.01890  0.92606  1.0000 -0.579853518
O   O17       1.0  0.09880  0.69710  0.53262  1.0000 -0.7656678539
O   O18       1.0  0.40120  0.19710  0.46738  1.0000 -0.7656678539
O   O19       1.0  0.90120  0.30290  0.46738  1.0000 -0.7656678539
O   O20       1.0  0.59880  0.80290  0.53262  1.0000 -0.7656678539
O   O21       1.0  0.17370  0.49900  0.47525  1.0000 -0.7599190753
O   O22       1.0  0.32630  0.99900  0.52475  1.0000 -0.7599190753
O   O23       1.0  0.82630  0.50100  0.52475  1.0000 -0.7599190753
O   O24       1.0  0.67370  0.00100  0.47525  1.0000 -0.7599190753
O   O25       1.0  0.18870  0.45860  0.56449  1.0000 -0.5155607593
O   O26       1.0  0.31130  0.95860  0.43551  1.0000 -0.5155607593
O   O27       1.0  0.81130  0.54140  0.43551  1.0000 -0.5155607593
O   O28       1.0  0.68870  0.04140  0.56449  1.0000 -0.5155607593
O   O29       1.0  0.34070  0.63740  0.52343  1.0000 -0.7009962778
O   O30       1.0  0.15930  0.13740  0.47657  1.0000 -0.7009962778
O   O31       1.0  0.65930  0.36260  0.47657  1.0000 -0.7009962778
O   O32       1.0  0.84070  0.86260  0.52343  1.0000 -0.7009962778
O   O33       1.0  0.88040  0.63320  0.88179  1.0000 -0.5022201265
O   O34       1.0  0.61960  0.13320  0.11821  1.0000 -0.5022201265
O   O35       1.0  0.11960  0.36680  0.11821  1.0000 -0.5022201265
O   O36       1.0  0.38040  0.86680  0.88179  1.0000 -0.5022201265
O   O37       1.0  0.73570  0.80560  0.85645  1.0000 -0.4704017025
O   O38       1.0  0.76430  0.30560  0.14355  1.0000 -0.4760389906
O   O39       1.0  0.26430  0.19440  0.14355  1.0000 -0.4760389906
O   O40       1.0  0.23570  0.69440  0.85645  1.0000 -0.4704017025
O   O41       1.0  0.06580  0.54010  0.64345  1.0000 -0.4412062075
O   O42       1.0  0.43420  0.04010  0.35655  1.0000 -0.4412062075
O   O43       1.0  0.93420  0.45990  0.35655  1.0000 -0.4412062075
O   O44       1.0  0.56580  0.95990  0.64345  1.0000 -0.4412062075
O   O45       1.0  0.88450  0.66600  0.61803  1.0000 -0.5022201265
O   O46       1.0  0.61550  0.16600  0.38197  1.0000 -0.5022201265
O   O47       1.0  0.11550  0.33400  0.38197  1.0000 -0.5022201265
O   O48       1.0  0.38450  0.83400  0.61803  1.0000 -0.5051175934
