# DDEC6 charges by PACMAN v1.1 (https://github.com/mtap-research/PACMAN-charge/)
data_2011[Cd][sql]2[FSR]1
_chemical_formula_sum              "Cd4 H40 C40 S4 N8 O24"
_cell_length_a       13.0302
_cell_length_b       13.0302
_cell_length_c       8.4152
_cell_angle_alpha    81.7434
_cell_angle_beta     98.2566
_cell_angle_gamma    89.3191

_symmetry_space_group_name_H-M    "P 1"
_symmetry_Int_Tables_number       1

loop_
  _symmetry_equiv_pos_as_xyz
  'x, y, z'

loop_
  _atom_site_type_symbol
  _atom_site_label
  _atom_site_symmetry_multiplicity
  _atom_site_fract_x
  _atom_site_fract_y
  _atom_site_fract_z
  _atom_site_occupancy
  _atom_site_charge
Cd  Cd1       1.0  0.10374  0.44972  0.15298  1.0000 0.981143569
Cd  Cd2       1.0  0.44972  0.10374  0.34702  1.0000 0.981143569
Cd  Cd3       1.0  0.89626  0.55028  0.84702  1.0000 0.981143569
Cd  Cd4       1.0  0.55028  0.89626  0.65298  1.0000 0.981143569
H   H1        1.0  0.73800  0.42800  0.17620  1.0000 0.149802701
H   H2        1.0  0.16580  0.11740  0.07910  1.0000 0.1211528112
H   H3        1.0  0.10700  0.02200  0.02130  1.0000 0.1211528112
H   H4        1.0  0.10860  0.12520  0.90050  1.0000 0.1211528112
H   H5        1.0  0.25180  0.38780  0.52790  1.0000 0.1302901557
H   H6        1.0  0.18740  0.35700  0.78810  1.0000 0.1211528112
H   H7        1.0  0.95110  0.37610  0.43730  1.0000 0.1137257735
H   H8        1.0  0.00110  0.34650  0.72000  1.0000 0.2955279699
H   H9        1.0  0.27820  0.39980  0.03760  1.0000 0.3301946311
H   H10       1.0  0.31160  0.45400  0.16360  1.0000 0.3529621711
H   H11       1.0  0.42800  0.73800  0.32380  1.0000 0.149802701
H   H12       1.0  0.11740  0.16580  0.42090  1.0000 0.1211528112
H   H13       1.0  0.02200  0.10700  0.47870  1.0000 0.1211528112
H   H14       1.0  0.12520  0.10860  0.59950  1.0000 0.1211528112
H   H15       1.0  0.38780  0.25180  0.97210  1.0000 0.1302901557
H   H16       1.0  0.35700  0.18740  0.71190  1.0000 0.1211528112
H   H17       1.0  0.37610  0.95110  0.06270  1.0000 0.1137257735
H   H18       1.0  0.34650  0.00110  0.78000  1.0000 0.2955279699
H   H19       1.0  0.39980  0.27820  0.46240  1.0000 0.3301946311
H   H20       1.0  0.45400  0.31160  0.33640  1.0000 0.3529621711
H   H21       1.0  0.26200  0.57200  0.82380  1.0000 0.149802701
H   H22       1.0  0.83420  0.88260  0.92090  1.0000 0.1211528112
H   H23       1.0  0.89300  0.97800  0.97870  1.0000 0.1211528112
H   H24       1.0  0.89140  0.87480  0.09950  1.0000 0.1211528112
H   H25       1.0  0.74820  0.61220  0.47210  1.0000 0.1302901557
H   H26       1.0  0.81260  0.64300  0.21190  1.0000 0.1211528112
H   H27       1.0  0.04890  0.62390  0.56270  1.0000 0.1137257735
H   H28       1.0  0.99890  0.65350  0.28000  1.0000 0.2955279699
H   H29       1.0  0.72180  0.60020  0.96240  1.0000 0.3301946311
H   H30       1.0  0.68840  0.54600  0.83640  1.0000 0.3529621711
H   H31       1.0  0.57200  0.26200  0.67620  1.0000 0.149802701
H   H32       1.0  0.88260  0.83420  0.57910  1.0000 0.1211528112
H   H33       1.0  0.97800  0.89300  0.52130  1.0000 0.1211528112
H   H34       1.0  0.87480  0.89140  0.40050  1.0000 0.1211528112
H   H35       1.0  0.61220  0.74820  0.02790  1.0000 0.1302901557
H   H36       1.0  0.64300  0.81260  0.28810  1.0000 0.1211528112
H   H37       1.0  0.62390  0.04890  0.93730  1.0000 0.1137257735
H   H38       1.0  0.65350  0.99890  0.22000  1.0000 0.2955279699
H   H39       1.0  0.60020  0.72180  0.53760  1.0000 0.3301946311
H   H40       1.0  0.54600  0.68840  0.66360  1.0000 0.3529621711
C   C1        1.0  0.00533  0.23353  0.07330  1.0000 0.5125631443
C   C2        1.0  0.91015  0.26415  0.12080  1.0000 -0.3124291399
C   C3        1.0  0.87531  0.36511  0.12530  1.0000 0.3301946311
C   C4        1.0  0.77330  0.36730  0.16610  1.0000 -0.2639299953
C   C5        1.0  0.73260  0.27160  0.18890  1.0000 -0.0616270169
C   C6        1.0  0.62730  0.24890  0.23020  1.0000 0.5758932582
C   C7        1.0  0.10640  0.09640  0.01140  1.0000 -0.2190302224
C   C8        1.0  0.18260  0.38120  0.54160  1.0000 -0.0508846739
C   C9        1.0  0.14780  0.36380  0.68570  1.0000 -0.0508846739
C   C10       1.0  0.01880  0.37440  0.49110  1.0000 0.143644107
C   C11       1.0  0.23353  0.00533  0.42670  1.0000 0.5125631443
C   C12       1.0  0.26415  0.91015  0.37920  1.0000 -0.3124291399
C   C13       1.0  0.36511  0.87531  0.37470  1.0000 0.3301946311
C   C14       1.0  0.36730  0.77330  0.33390  1.0000 -0.2639299953
C   C15       1.0  0.27160  0.73260  0.31110  1.0000 -0.0616270169
C   C16       1.0  0.24890  0.62730  0.26980  1.0000 0.5758932582
C   C17       1.0  0.09640  0.10640  0.48860  1.0000 -0.2190302224
C   C18       1.0  0.38120  0.18260  0.95840  1.0000 -0.0508846739
C   C19       1.0  0.36380  0.14780  0.81430  1.0000 -0.0508846739
C   C20       1.0  0.37440  0.01880  0.00890  1.0000 0.143644107
C   C21       1.0  0.99467  0.76647  0.92670  1.0000 0.5125631443
C   C22       1.0  0.08985  0.73585  0.87920  1.0000 -0.3124291399
C   C23       1.0  0.12469  0.63489  0.87470  1.0000 0.3301946311
C   C24       1.0  0.22670  0.63270  0.83390  1.0000 -0.2639299953
C   C25       1.0  0.26740  0.72840  0.81110  1.0000 -0.0616270169
C   C26       1.0  0.37270  0.75110  0.76980  1.0000 0.5758932582
C   C27       1.0  0.89360  0.90360  0.98860  1.0000 -0.2190302224
C   C28       1.0  0.81740  0.61880  0.45840  1.0000 -0.0508846739
C   C29       1.0  0.85220  0.63620  0.31430  1.0000 -0.0508846739
C   C30       1.0  0.98120  0.62560  0.50890  1.0000 0.143644107
C   C31       1.0  0.76647  0.99467  0.57330  1.0000 0.5125631443
C   C32       1.0  0.73585  0.08985  0.62080  1.0000 -0.3124291399
C   C33       1.0  0.63489  0.12469  0.62530  1.0000 0.3301946311
C   C34       1.0  0.63270  0.22670  0.66610  1.0000 -0.2639299953
C   C35       1.0  0.72840  0.26740  0.68890  1.0000 -0.0616270169
C   C36       1.0  0.75110  0.37270  0.73020  1.0000 0.5758932582
C   C37       1.0  0.90360  0.89360  0.51140  1.0000 -0.2190302224
C   C38       1.0  0.61880  0.81740  0.04160  1.0000 -0.0508846739
C   C39       1.0  0.63620  0.85220  0.18570  1.0000 -0.0508846739
C   C40       1.0  0.62560  0.98120  0.99110  1.0000 0.143644107
S   S1        1.0  0.81639  0.17451  0.16441  1.0000 0.0974185871
S   S2        1.0  0.17451  0.81639  0.33559  1.0000 0.0974185871
S   S3        1.0  0.18361  0.82549  0.83559  1.0000 0.0974185871
S   S4        1.0  0.82549  0.18361  0.66441  1.0000 0.0974185871
N   N1        1.0  0.10088  0.38764  0.41760  1.0000 -0.3124291399
N   N2        1.0  0.04350  0.35830  0.65070  1.0000 -0.1771133305
N   N3        1.0  0.38764  0.10088  0.08240  1.0000 -0.3124291399
N   N4        1.0  0.35830  0.04350  0.84930  1.0000 -0.1771133305
N   N5        1.0  0.89912  0.61236  0.58240  1.0000 -0.3124291399
N   N6        1.0  0.95650  0.64170  0.34930  1.0000 -0.1771133305
N   N7        1.0  0.61236  0.89912  0.91760  1.0000 -0.3124291399
N   N8        1.0  0.64170  0.95650  0.15070  1.0000 -0.1771133305
O   O1        1.0  0.01296  0.13288  0.06170  1.0000 -0.1771133305
O   O2        1.0  0.07490  0.29254  0.04290  1.0000 -0.4939897159
O   O3        1.0  0.92849  0.44987  0.09540  1.0000 -0.5921776244
O   O4        1.0  0.60501  0.15457  0.25790  1.0000 -0.6016002843
O   O5        1.0  0.56863  0.32475  0.23280  1.0000 -0.5333483764
O   O6        1.0  0.27207  0.40641  0.13490  1.0000 -0.6514144191
O   O7        1.0  0.13288  0.01296  0.43830  1.0000 -0.1771133305
O   O8        1.0  0.29254  0.07490  0.45710  1.0000 -0.4939897159
O   O9        1.0  0.44987  0.92849  0.40460  1.0000 -0.5921776244
O   O10       1.0  0.15457  0.60501  0.24210  1.0000 -0.6016002843
O   O11       1.0  0.32475  0.56863  0.26720  1.0000 -0.5333483764
O   O12       1.0  0.40641  0.27207  0.36510  1.0000 -0.6514144191
O   O13       1.0  0.98704  0.86712  0.93830  1.0000 -0.1771133305
O   O14       1.0  0.92510  0.70746  0.95710  1.0000 -0.4939897159
O   O15       1.0  0.07151  0.55013  0.90460  1.0000 -0.5921776244
O   O16       1.0  0.39499  0.84543  0.74210  1.0000 -0.6016002843
O   O17       1.0  0.43137  0.67525  0.76720  1.0000 -0.5333483764
O   O18       1.0  0.72793  0.59359  0.86510  1.0000 -0.6514144191
O   O19       1.0  0.86712  0.98704  0.56170  1.0000 -0.1771133305
O   O20       1.0  0.70746  0.92510  0.54290  1.0000 -0.4939897159
O   O21       1.0  0.55013  0.07151  0.59540  1.0000 -0.5921776244
O   O22       1.0  0.84543  0.39499  0.75790  1.0000 -0.6016002843
O   O23       1.0  0.67525  0.43137  0.73280  1.0000 -0.5333483764
O   O24       1.0  0.59359  0.72793  0.63490  1.0000 -0.6514144191
