# DDEC6 charges by PACMAN v1.1 (https://github.com/mtap-research/PACMAN-charge/)
data_2011[Eu][hcb]2[FSR]1
_chemical_formula_sum              "Eu2 H60 C84 N6 O14"
_cell_length_a       9.0694
_cell_length_b       14.763
_cell_length_c       15.9047
_cell_angle_alpha    69.049
_cell_angle_beta     81.891
_cell_angle_gamma    83.602

_symmetry_space_group_name_H-M    "P 1"
_symmetry_Int_Tables_number       1

loop_
  _symmetry_equiv_pos_as_xyz
  'x, y, z'

loop_
  _atom_site_type_symbol
  _atom_site_label
  _atom_site_symmetry_multiplicity
  _atom_site_fract_x
  _atom_site_fract_y
  _atom_site_fract_z
  _atom_site_occupancy
  _atom_site_charge
Eu  Eu1       1.0  0.73504  0.20321  0.62407  1.0000 1.8697815726
Eu  Eu2       1.0  0.26496  0.79679  0.37593  1.0000 1.8697815726
H   H1        1.0  0.09440  0.58120  0.24040  1.0000 0.1184207683
H   H2        1.0  0.02090  0.64120  0.08970  1.0000 0.1184207683
H   H3        1.0  0.26930  0.40010  0.08260  1.0000 0.1184207683
H   H4        1.0  0.51440  0.39080  0.98580  1.0000 0.1184207683
H   H5        1.0  0.00370  0.25430  0.34350  1.0000 0.1184207683
H   H6        1.0  0.75300  0.89970  0.90770  1.0000 0.131178888
H   H7        1.0  0.65950  0.31770  0.89380  1.0000 0.1184207683
H   H8        1.0  0.21330  0.78570  0.81020  1.0000 0.1121285164
H   H9        1.0  0.11670  0.93860  0.72820  1.0000 0.1121285164
H   H10       1.0  0.08590  0.33230  0.19390  1.0000 0.1121285164
H   H11       1.0  0.21960  0.49400  0.80300  1.0000 0.1121285164
H   H12       1.0  0.85260  0.74840  0.99200  1.0000 0.1184207683
H   H13       1.0  0.36690  0.42040  0.71080  1.0000 0.1184207683
H   H14       1.0  0.01320  0.50040  0.39360  1.0000 0.131178888
H   H15       1.0  0.22150  0.62400  0.85210  1.0000 0.1121285164
H   H16       1.0  0.41200  0.12730  0.78660  1.0000 0.1017524118
H   H17       1.0  0.38190  0.46480  0.38170  1.0000 0.1409091442
H   H18       1.0  0.54720  0.40480  0.49010  1.0000 0.1184207683
H   H19       1.0  0.85040  0.98190  0.59700  1.0000 0.1017524118
H   H20       1.0  0.84020  0.88320  0.51280  1.0000 0.1409091442
H   H21       1.0  0.69080  0.93450  0.39600  1.0000 0.131178888
H   H22       1.0  0.35190  0.37520  0.29600  1.0000 0.1184207683
H   H23       1.0  0.51750  0.06220  0.30290  1.0000 0.131178888
H   H24       1.0  0.40300  0.21880  0.26360  1.0000 0.131178888
H   H25       1.0  0.28340  0.27270  0.58860  1.0000 0.131178888
H   H26       1.0  0.12540  0.23110  0.62090  1.0000 0.1409091442
H   H27       1.0  0.15760  0.32660  0.63490  1.0000 0.131178888
H   H28       1.0  0.17410  0.15080  0.85240  1.0000 0.131178888
H   H29       1.0  0.15540  0.26460  0.81350  1.0000 0.131178888
H   H30       1.0  0.04760  0.20290  0.79050  1.0000 0.1559580008
H   H31       1.0  0.90560  0.41880  0.75960  1.0000 0.1184207683
H   H32       1.0  0.97910  0.35880  0.91030  1.0000 0.1184207683
H   H33       1.0  0.73070  0.59990  0.91740  1.0000 0.1184207683
H   H34       1.0  0.48560  0.60920  0.01420  1.0000 0.1184207683
H   H35       1.0  0.99630  0.74570  0.65650  1.0000 0.1184207683
H   H36       1.0  0.24700  0.10030  0.09230  1.0000 0.131178888
H   H37       1.0  0.34050  0.68230  0.10620  1.0000 0.1184207683
H   H38       1.0  0.78670  0.21430  0.18980  1.0000 0.1121285164
H   H39       1.0  0.88330  0.06140  0.27180  1.0000 0.1121285164
H   H40       1.0  0.91410  0.66770  0.80610  1.0000 0.1121285164
H   H41       1.0  0.78040  0.50600  0.19700  1.0000 0.1121285164
H   H42       1.0  0.14740  0.25160  0.00800  1.0000 0.1184207683
H   H43       1.0  0.63310  0.57960  0.28920  1.0000 0.1184207683
H   H44       1.0  0.98680  0.49960  0.60640  1.0000 0.131178888
H   H45       1.0  0.77850  0.37600  0.14790  1.0000 0.1121285164
H   H46       1.0  0.58800  0.87270  0.21340  1.0000 0.1017524118
H   H47       1.0  0.61810  0.53520  0.61830  1.0000 0.1409091442
H   H48       1.0  0.45280  0.59520  0.50990  1.0000 0.1184207683
H   H49       1.0  0.14960  0.01810  0.40300  1.0000 0.1017524118
H   H50       1.0  0.15980  0.11680  0.48720  1.0000 0.1409091442
H   H51       1.0  0.30920  0.06550  0.60400  1.0000 0.131178888
H   H52       1.0  0.64810  0.62480  0.70400  1.0000 0.1184207683
H   H53       1.0  0.48250  0.93780  0.69710  1.0000 0.131178888
H   H54       1.0  0.59700  0.78120  0.73640  1.0000 0.131178888
H   H55       1.0  0.71660  0.72730  0.41140  1.0000 0.131178888
H   H56       1.0  0.87460  0.76890  0.37910  1.0000 0.1409091442
H   H57       1.0  0.84240  0.67340  0.36510  1.0000 0.131178888
H   H58       1.0  0.82590  0.84920  0.14760  1.0000 0.131178888
H   H59       1.0  0.84460  0.73540  0.18650  1.0000 0.131178888
H   H60       1.0  0.95240  0.79710  0.20950  1.0000 0.1559580008
C   C1        1.0  0.04810  0.75020  0.91140  1.0000 0.0614390208
C   C2        1.0  0.62070  0.31740  0.73040  1.0000 0.5563560913
C   C3        1.0  0.07480  0.51590  0.26050  1.0000 -0.1612949673
C   C4        1.0  0.08090  0.60740  0.05680  1.0000 -0.201193751
C   C5        1.0  0.11180  0.65300  0.96090  1.0000 0.0828367462
C   C6        1.0  0.56880  0.22070  0.43550  1.0000 0.1457851121
C   C7        1.0  0.35330  0.45330  0.90210  1.0000 0.0697427878
C   C8        1.0  0.99220  0.37010  0.38360  1.0000 -0.0325910522
C   C9        1.0  0.85670  0.03030  0.75030  1.0000 0.5563560913
C   C10       1.0  0.93170  0.31650  0.47870  1.0000 0.5510138461
C   C11       1.0  0.92260  0.93330  0.80830  1.0000 -0.0148061577
C   C12       1.0  0.13780  0.51450  0.10160  1.0000 0.0828367462
C   C13       1.0  0.26140  0.50480  0.95850  1.0000 0.0828367462
C   C14       1.0  0.22980  0.46250  0.05250  1.0000 -0.201193751
C   C15       1.0  0.09480  0.46570  0.19950  1.0000 0.0614390208
C   C16       1.0  0.48510  0.39780  0.93000  1.0000 -0.15179136
C   C17       1.0  0.01930  0.32020  0.32320  1.0000 -0.1066846925
C   C18       1.0  0.84620  0.87680  0.88790  1.0000 -0.1066846925
C   C19       1.0  0.57170  0.35360  0.87490  1.0000 -0.0925188547
C   C20       1.0  0.12100  0.80850  0.83120  1.0000 -0.15179136
C   C21       1.0  0.06220  0.90020  0.78030  1.0000 -0.1066846925
C   C22       1.0  0.06910  0.36730  0.23310  1.0000 -0.1612949673
C   C23       1.0  0.30880  0.45970  0.82120  1.0000 -0.1612949673
C   C24       1.0  0.90660  0.78580  0.93900  1.0000 -0.15179136
C   C25       1.0  0.39710  0.41490  0.76600  1.0000 -0.1066846925
C   C26       1.0  0.52980  0.36200  0.79280  1.0000 -0.0383889785
C   C27       1.0  0.63690  0.12160  0.45930  1.0000 0.1121285164
C   C28       1.0  0.02450  0.46700  0.35310  1.0000 -0.0984408022
C   C29       1.0  0.20170  0.59730  0.91470  1.0000 -0.201193751
C   C30       1.0  0.47970  0.25590  0.36200  1.0000 0.04935563
C   C31       1.0  0.62280  0.06670  0.40760  1.0000 0.0402385334
C   C32       1.0  0.38320  0.16080  0.72910  1.0000 0.3104719261
C   C33       1.0  0.43090  0.40370  0.39210  1.0000 -0.1247909924
C   C34       1.0  0.52740  0.36520  0.45950  1.0000 0.1121285164
C   C35       1.0  0.79150  0.00390  0.54930  1.0000 0.1121285164
C   C36       1.0  0.78600  0.94310  0.49890  1.0000 -0.1355002632
C   C37       1.0  0.69930  0.97400  0.42910  1.0000 -0.0821948459
C   C38       1.0  0.41150  0.34990  0.34320  1.0000 -0.0925188547
C   C39       1.0  0.53100  0.10200  0.33490  1.0000 -0.1345047613
C   C40       1.0  0.46120  0.19580  0.31160  1.0000 -0.1612949673
C   C41       1.0  0.19950  0.26420  0.63420  1.0000 -0.3184702059
C   C42       1.0  0.14800  0.20620  0.80130  1.0000 -0.3280706813
C   C43       1.0  0.95190  0.24980  0.08860  1.0000 0.0614390208
C   C44       1.0  0.37930  0.68260  0.26960  1.0000 0.5563560913
C   C45       1.0  0.92520  0.48410  0.73950  1.0000 -0.15179136
C   C46       1.0  0.91910  0.39260  0.94320  1.0000 -0.201193751
C   C47       1.0  0.88820  0.34700  0.03910  1.0000 0.0828367462
C   C48       1.0  0.43120  0.77930  0.56450  1.0000 0.1457851121
C   C49       1.0  0.64670  0.54670  0.09790  1.0000 0.0697427878
C   C50       1.0  0.00780  0.62990  0.61640  1.0000 -0.0325910522
C   C51       1.0  0.14330  0.96970  0.24970  1.0000 0.5563560913
C   C52       1.0  0.06830  0.68350  0.52130  1.0000 0.5510138461
C   C53       1.0  0.07740  0.06670  0.19170  1.0000 -0.0154834239
C   C54       1.0  0.86220  0.48550  0.89840  1.0000 0.0828367462
C   C55       1.0  0.73860  0.49520  0.04150  1.0000 0.0828367462
C   C56       1.0  0.77020  0.53750  0.94750  1.0000 -0.201193751
C   C57       1.0  0.90520  0.53430  0.80050  1.0000 0.0614390208
C   C58       1.0  0.51490  0.60220  0.07000  1.0000 -0.15179136
C   C59       1.0  0.98070  0.67980  0.67680  1.0000 -0.1066846925
C   C60       1.0  0.15380  0.12320  0.11210  1.0000 -0.1066846925
C   C61       1.0  0.42830  0.64640  0.12510  1.0000 -0.0925188547
C   C62       1.0  0.87900  0.19150  0.16880  1.0000 -0.15179136
C   C63       1.0  0.93780  0.09980  0.21970  1.0000 -0.0984408022
C   C64       1.0  0.93090  0.63270  0.76690  1.0000 -0.1612949673
C   C65       1.0  0.69120  0.54030  0.17880  1.0000 -0.1612949673
C   C66       1.0  0.09340  0.21420  0.06100  1.0000 -0.15179136
C   C67       1.0  0.60290  0.58510  0.23400  1.0000 -0.1066846925
C   C68       1.0  0.47020  0.63800  0.20720  1.0000 -0.0383889785
C   C69       1.0  0.36310  0.87840  0.54070  1.0000 0.1121285164
C   C70       1.0  0.97550  0.53300  0.64690  1.0000 -0.0984408022
C   C71       1.0  0.79830  0.40270  0.08530  1.0000 -0.201193751
C   C72       1.0  0.52030  0.74410  0.63800  1.0000 0.04935563
C   C73       1.0  0.37720  0.93330  0.59240  1.0000 0.0402385334
C   C74       1.0  0.61680  0.83920  0.27090  1.0000 0.3104719261
C   C75       1.0  0.56910  0.59630  0.60790  1.0000 -0.1247909924
C   C76       1.0  0.47260  0.63480  0.54050  1.0000 0.1121285164
C   C77       1.0  0.20850  0.99610  0.45070  1.0000 0.1121285164
C   C78       1.0  0.21400  0.05690  0.50110  1.0000 -0.1345047613
C   C79       1.0  0.30070  0.02600  0.57090  1.0000 -0.0821948459
C   C80       1.0  0.58850  0.65010  0.65680  1.0000 -0.0925188547
C   C81       1.0  0.46900  0.89800  0.66510  1.0000 -0.1345047613
C   C82       1.0  0.53880  0.80420  0.68840  1.0000 -0.1612949673
C   C83       1.0  0.80050  0.73580  0.36580  1.0000 -0.3184702059
C   C84       1.0  0.85200  0.79380  0.19870  1.0000 -0.3280706813
N   N1        1.0  0.71860  0.09030  0.53340  1.0000 -0.3783281853
N   N2        1.0  0.59240  0.27630  0.48260  1.0000 -0.3491638711
N   N3        1.0  0.24830  0.20660  0.72270  1.0000 0.0308291113
N   N4        1.0  0.28140  0.90970  0.46660  1.0000 -0.3783281853
N   N5        1.0  0.40760  0.72370  0.51740  1.0000 -0.3491638711
N   N6        1.0  0.75170  0.79340  0.27730  1.0000 0.0308291113
O   O1        1.0  0.94190  0.09100  0.69330  1.0000 -0.6186374237
O   O2        1.0  0.71860  0.04890  0.75680  1.0000 -0.6054298093
O   O3        1.0  0.87260  0.35940  0.53210  1.0000 -0.6006045749
O   O4        1.0  0.93510  0.22410  0.50300  1.0000 -0.6383835783
O   O5        1.0  0.73140  0.25740  0.75650  1.0000 -0.6186374237
O   O6        1.0  0.58300  0.33820  0.65120  1.0000 -0.6383835783
O   O7        1.0  0.47270  0.16020  0.66290  1.0000 -0.5331490448
O   O8        1.0  0.05810  0.90900  0.30670  1.0000 -0.6186374237
O   O9        1.0  0.28140  0.95110  0.24320  1.0000 -0.6054298093
O   O10       1.0  0.12740  0.64060  0.46790  1.0000 -0.6006045749
O   O11       1.0  0.06490  0.77590  0.49700  1.0000 -0.6383835783
O   O12       1.0  0.26860  0.74260  0.24350  1.0000 -0.6186374237
O   O13       1.0  0.41700  0.66180  0.34880  1.0000 -0.6383835783
O   O14       1.0  0.52730  0.83980  0.33710  1.0000 -0.5331490448
