# DDEC6 charges by PACMAN v1.1 (https://github.com/mtap-research/PACMAN-charge/)
data_2011[Zn][nan]3[FSR]32
_chemical_formula_sum              "Zn4 H60 C80 N8 O18"
_cell_length_a       14.0077
_cell_length_b       14.0077
_cell_length_c       12.0995
_cell_angle_alpha    79.9168
_cell_angle_beta     100.083
_cell_angle_gamma    97.5462

_symmetry_space_group_name_H-M    "P 1"
_symmetry_Int_Tables_number       1

loop_
  _symmetry_equiv_pos_as_xyz
  'x, y, z'

loop_
  _atom_site_type_symbol
  _atom_site_label
  _atom_site_symmetry_multiplicity
  _atom_site_fract_x
  _atom_site_fract_y
  _atom_site_fract_z
  _atom_site_occupancy
  _atom_site_charge
Zn  Zn1       1.0  0.76985  0.18391  0.10065  1.0000 0.7423425244
Zn  Zn2       1.0  0.18391  0.76985  0.39935  1.0000 0.7423425244
Zn  Zn3       1.0  0.23015  0.81609  0.89935  1.0000 0.7423425244
Zn  Zn4       1.0  0.81609  0.23015  0.60065  1.0000 0.7423425244
H   H1        1.0  0.66190  0.84670  0.03580  1.0000 0.1207455277
H   H2        1.0  0.84670  0.66190  0.46420  1.0000 0.1207455277
H   H3        1.0  0.33810  0.15330  0.96420  1.0000 0.1207455277
H   H4        1.0  0.15330  0.33810  0.53580  1.0000 0.1207455277
H   H5        1.0  0.67670  0.71870  0.94430  1.0000 0.1270803265
H   H6        1.0  0.71870  0.67670  0.55570  1.0000 0.1270803265
H   H7        1.0  0.32330  0.28130  0.05570  1.0000 0.1270803265
H   H8        1.0  0.28130  0.32330  0.44430  1.0000 0.1270803265
H   H9        1.0  0.75900  0.90740  0.68190  1.0000 0.1382223146
H   H10       1.0  0.90740  0.75900  0.81810  1.0000 0.1382223146
H   H11       1.0  0.24100  0.09260  0.31810  1.0000 0.1382223146
H   H12       1.0  0.09260  0.24100  0.18190  1.0000 0.1382223146
H   H13       1.0  0.65550  0.23050  0.87750  1.0000 0.1207455277
H   H14       1.0  0.23050  0.65550  0.62250  1.0000 0.1207455277
H   H15       1.0  0.34450  0.76950  0.12250  1.0000 0.1207455277
H   H16       1.0  0.76950  0.34450  0.37750  1.0000 0.1207455277
H   H17       1.0  0.56100  0.34460  0.77370  1.0000 0.1382223146
H   H18       1.0  0.34460  0.56100  0.72630  1.0000 0.1382223146
H   H19       1.0  0.43900  0.65540  0.22630  1.0000 0.1382223146
H   H20       1.0  0.65540  0.43900  0.27370  1.0000 0.1382223146
H   H21       1.0  0.65560  0.51800  0.00400  1.0000 0.1382223146
H   H22       1.0  0.51800  0.65560  0.49600  1.0000 0.1382223146
H   H23       1.0  0.34440  0.48200  0.99600  1.0000 0.1382223146
H   H24       1.0  0.48200  0.34440  0.50400  1.0000 0.1382223146
H   H25       1.0  0.74500  0.39600  0.10840  1.0000 0.1106954126
H   H26       1.0  0.39600  0.74500  0.39160  1.0000 0.1106954126
H   H27       1.0  0.25500  0.60400  0.89160  1.0000 0.1106954126
H   H28       1.0  0.60400  0.25500  0.60840  1.0000 0.1106954126
H   H29       1.0  0.55970  0.58350  0.83500  1.0000 0.1270803265
H   H30       1.0  0.58350  0.55970  0.66500  1.0000 0.1270803265
H   H31       1.0  0.44030  0.41650  0.16500  1.0000 0.1270803265
H   H32       1.0  0.41650  0.44030  0.33500  1.0000 0.1270803265
H   H33       1.0  0.46910  0.50550  0.83420  1.0000 0.1106954126
H   H34       1.0  0.50550  0.46910  0.66580  1.0000 0.1106954126
H   H35       1.0  0.53090  0.49450  0.16580  1.0000 0.1106954126
H   H36       1.0  0.49450  0.53090  0.33420  1.0000 0.1106954126
H   H37       1.0  0.79270  0.08990  0.34200  1.0000 0.1207455277
H   H38       1.0  0.08990  0.79270  0.15800  1.0000 0.1207455277
H   H39       1.0  0.20730  0.91010  0.65800  1.0000 0.1207455277
H   H40       1.0  0.91010  0.20730  0.84200  1.0000 0.1207455277
H   H41       1.0  0.70350  0.03890  0.48610  1.0000 0.1382223146
H   H42       1.0  0.03890  0.70350  0.01390  1.0000 0.1382223146
H   H43       1.0  0.29650  0.96110  0.51390  1.0000 0.1382223146
H   H44       1.0  0.96110  0.29650  0.98610  1.0000 0.1382223146
H   H45       1.0  0.47280  0.14080  0.28160  1.0000 0.1382223146
H   H46       1.0  0.14080  0.47280  0.21840  1.0000 0.1382223146
H   H47       1.0  0.52720  0.85920  0.71840  1.0000 0.1382223146
H   H48       1.0  0.85920  0.52720  0.78160  1.0000 0.1382223146
H   H49       1.0  0.56550  0.18550  0.14060  1.0000 0.1106954126
H   H50       1.0  0.18550  0.56550  0.35940  1.0000 0.1106954126
H   H51       1.0  0.43450  0.81450  0.85940  1.0000 0.1106954126
H   H52       1.0  0.81450  0.43450  0.64060  1.0000 0.1106954126
H   H53       1.0  0.45890  0.08850  0.48020  1.0000 0.1207455277
H   H54       1.0  0.08850  0.45890  0.01980  1.0000 0.1207455277
H   H55       1.0  0.54110  0.91150  0.51980  1.0000 0.1207455277
H   H56       1.0  0.91150  0.54110  0.98020  1.0000 0.1207455277
H   H57       1.0  0.55370  0.06670  0.56690  1.0000 0.1270803265
H   H58       1.0  0.06670  0.55370  0.93310  1.0000 0.1270803265
H   H59       1.0  0.44630  0.93330  0.43310  1.0000 0.1270803265
H   H60       1.0  0.93330  0.44630  0.06690  1.0000 0.1270803265
C   C1        1.0  0.73126  0.97294  0.80780  1.0000 -0.0218680243
C   C2        1.0  0.97294  0.73126  0.69220  1.0000 -0.0218680243
C   C3        1.0  0.26874  0.02706  0.19220  1.0000 -0.0218680243
C   C4        1.0  0.02706  0.26874  0.30780  1.0000 -0.0218680243
C   C5        1.0  0.70380  0.95500  0.91460  1.0000 -0.0218680243
C   C6        1.0  0.95500  0.70380  0.58540  1.0000 -0.0218680243
C   C7        1.0  0.29620  0.04500  0.08540  1.0000 -0.0218680243
C   C8        1.0  0.04500  0.29620  0.41460  1.0000 -0.0218680243
C   C9        1.0  0.68230  0.85930  0.96510  1.0000 -0.0994030924
C   C10       1.0  0.85930  0.68230  0.53490  1.0000 -0.0994030924
C   C11       1.0  0.31770  0.14070  0.03490  1.0000 -0.0994030924
C   C12       1.0  0.14070  0.31770  0.46510  1.0000 -0.0994030924
C   C13       1.0  0.69100  0.78260  0.91020  1.0000 -0.2154791427
C   C14       1.0  0.78260  0.69100  0.58980  1.0000 -0.2154791427
C   C15       1.0  0.30900  0.21740  0.08980  1.0000 -0.2154791427
C   C16       1.0  0.21740  0.30900  0.41020  1.0000 -0.2154791427
C   C17       1.0  0.72083  0.80097  0.80600  1.0000 0.2315645853
C   C18       1.0  0.80097  0.72083  0.69400  1.0000 0.2315645853
C   C19       1.0  0.27917  0.19903  0.19400  1.0000 0.2315645853
C   C20       1.0  0.19903  0.27917  0.30600  1.0000 0.2315645853
C   C21       1.0  0.74002  0.89538  0.75350  1.0000 -0.2397318946
C   C22       1.0  0.89538  0.74002  0.74650  1.0000 -0.2397318946
C   C23       1.0  0.25998  0.10462  0.24650  1.0000 -0.2397318946
C   C24       1.0  0.10462  0.25998  0.25350  1.0000 -0.2397318946
C   C25       1.0  0.73827  0.07353  0.74180  1.0000 0.5511338937
C   C26       1.0  0.07353  0.73827  0.75820  1.0000 0.5511338937
C   C27       1.0  0.26173  0.92647  0.25820  1.0000 0.5511338937
C   C28       1.0  0.92647  0.26173  0.24180  1.0000 0.5511338937
C   C29       1.0  0.69910  0.03470  0.98160  1.0000 0.5605547355
C   C30       1.0  0.03470  0.69910  0.51840  1.0000 0.5605547355
C   C31       1.0  0.30090  0.96530  0.01840  1.0000 0.5605547355
C   C32       1.0  0.96530  0.30090  0.48160  1.0000 0.5605547355
C   C33       1.0  0.65450  0.28810  0.90540  1.0000 0.0979785176
C   C34       1.0  0.28810  0.65450  0.59460  1.0000 0.0979785176
C   C35       1.0  0.34550  0.71190  0.09460  1.0000 0.0979785176
C   C36       1.0  0.71190  0.34550  0.40540  1.0000 0.0979785176
C   C37       1.0  0.59860  0.35720  0.84190  1.0000 -0.2099260164
C   C38       1.0  0.35720  0.59860  0.65810  1.0000 -0.2099260164
C   C39       1.0  0.40140  0.64280  0.15810  1.0000 -0.2099260164
C   C40       1.0  0.64280  0.40140  0.34190  1.0000 -0.2099260164
C   C41       1.0  0.59720  0.44520  0.87720  1.0000 0.1584000292
C   C42       1.0  0.44520  0.59720  0.62280  1.0000 0.1584000292
C   C43       1.0  0.40280  0.55480  0.12280  1.0000 0.1584000292
C   C44       1.0  0.55480  0.40280  0.37720  1.0000 0.1584000292
C   C45       1.0  0.65310  0.45930  0.97700  1.0000 -0.2154791427
C   C46       1.0  0.45930  0.65310  0.52300  1.0000 -0.2154791427
C   C47       1.0  0.34690  0.54070  0.02300  1.0000 -0.2154791427
C   C48       1.0  0.54070  0.34690  0.47700  1.0000 -0.2154791427
C   C49       1.0  0.70716  0.38524  0.03960  1.0000 0.0672146978
C   C50       1.0  0.38524  0.70716  0.46040  1.0000 0.0672146978
C   C51       1.0  0.29284  0.61476  0.96040  1.0000 0.0672146978
C   C52       1.0  0.61476  0.29284  0.53960  1.0000 0.0672146978
C   C53       1.0  0.53320  0.52120  0.81180  1.0000 -0.2397318946
C   C54       1.0  0.52120  0.53320  0.68820  1.0000 -0.2397318946
C   C55       1.0  0.46680  0.47880  0.18820  1.0000 -0.2397318946
C   C56       1.0  0.47880  0.46680  0.31180  1.0000 -0.2397318946
C   C57       1.0  0.72710  0.09990  0.32910  1.0000 0.0900254754
C   C58       1.0  0.09990  0.72710  0.17090  1.0000 0.0900254754
C   C59       1.0  0.27290  0.90010  0.67090  1.0000 0.0900254754
C   C60       1.0  0.90010  0.27290  0.82910  1.0000 0.0900254754
C   C61       1.0  0.67410  0.07010  0.41660  1.0000 -0.193276692
C   C62       1.0  0.07010  0.67410  0.08340  1.0000 -0.193276692
C   C63       1.0  0.32590  0.92990  0.58340  1.0000 -0.193276692
C   C64       1.0  0.92990  0.32590  0.91660  1.0000 -0.193276692
C   C65       1.0  0.57670  0.08670  0.40110  1.0000 0.1657253729
C   C66       1.0  0.08670  0.57670  0.09890  1.0000 0.1657253729
C   C67       1.0  0.42330  0.91330  0.59890  1.0000 0.1657253729
C   C68       1.0  0.91330  0.42330  0.90110  1.0000 0.1657253729
C   C69       1.0  0.53810  0.12950  0.29620  1.0000 -0.193276692
C   C70       1.0  0.12950  0.53810  0.20380  1.0000 -0.193276692
C   C71       1.0  0.46190  0.87050  0.70380  1.0000 -0.193276692
C   C72       1.0  0.87050  0.46190  0.79620  1.0000 -0.193276692
C   C73       1.0  0.59440  0.15640  0.21150  1.0000 0.0900254754
C   C74       1.0  0.15640  0.59440  0.28850  1.0000 0.0900254754
C   C75       1.0  0.40560  0.84360  0.78850  1.0000 0.0900254754
C   C76       1.0  0.84360  0.40560  0.71150  1.0000 0.0900254754
C   C77       1.0  0.51570  0.05270  0.49530  1.0000 -0.2397318946
C   C78       1.0  0.05270  0.51570  0.00470  1.0000 -0.2397318946
C   C79       1.0  0.48430  0.94730  0.50470  1.0000 -0.2397318946
C   C80       1.0  0.94730  0.48430  0.99530  1.0000 -0.2397318946
N   N1        1.0  0.70708  0.29972  0.00480  1.0000 -0.2397318946
N   N2        1.0  0.29972  0.70708  0.49520  1.0000 -0.2397318946
N   N3        1.0  0.29292  0.70028  0.99520  1.0000 -0.2397318946
N   N4        1.0  0.70028  0.29292  0.50480  1.0000 -0.2397318946
N   N5        1.0  0.68870  0.14266  0.22640  1.0000 -0.2330457641
N   N6        1.0  0.14266  0.68870  0.27360  1.0000 -0.2330457641
N   N7        1.0  0.31130  0.85734  0.77360  1.0000 -0.2330457641
N   N8        1.0  0.85734  0.31130  0.72640  1.0000 -0.2330457641
O   O1        1.0  0.80466  0.09500  0.67820  1.0000 -0.5391452832
O   O2        1.0  0.09500  0.80466  0.82180  1.0000 -0.5391452832
O   O3        1.0  0.19534  0.90500  0.32180  1.0000 -0.5391452832
O   O4        1.0  0.90500  0.19534  0.17820  1.0000 -0.5391452832
O   O5        1.0  0.68116  0.13002  0.74820  1.0000 -0.5391452832
O   O6        1.0  0.13002  0.68116  0.75180  1.0000 -0.5391452832
O   O7        1.0  0.31884  0.86998  0.25180  1.0000 -0.5391452832
O   O8        1.0  0.86998  0.31884  0.24820  1.0000 -0.5391452832
O   O9        1.0  0.77525  0.09331  0.99590  1.0000 -0.5391452832
O   O10       1.0  0.09331  0.77525  0.50410  1.0000 -0.5391452832
O   O11       1.0  0.22475  0.90669  0.00410  1.0000 -0.5391452832
O   O12       1.0  0.90669  0.22475  0.49590  1.0000 -0.5391452832
O   O13       1.0  0.62410  0.04210  0.01650  1.0000 -0.5260702891
O   O14       1.0  0.04210  0.62410  0.48350  1.0000 -0.5260702891
O   O15       1.0  0.37590  0.95790  0.98350  1.0000 -0.5260702891
O   O16       1.0  0.95790  0.37590  0.51650  1.0000 -0.5260702891
O   O17       1.0  0.72190  0.72190  0.75000  1.0000 -0.2726598007
O   O18       1.0  0.27810  0.27810  0.25000  1.0000 -0.2726598007
