# DDEC6 charges by PACMAN v1.1 (https://github.com/mtap-research/PACMAN-charge/)
data_2011[In][nan]3[FSR]2
_chemical_formula_sum              "In24 H32 C160 O152"
_cell_length_a       8.239
_cell_length_b       22.251
_cell_length_c       37.791
_cell_angle_alpha    90
_cell_angle_beta     90
_cell_angle_gamma    90

_symmetry_space_group_name_H-M    "P 1"
_symmetry_Int_Tables_number       1

loop_
  _symmetry_equiv_pos_as_xyz
  'x, y, z'

loop_
  _atom_site_type_symbol
  _atom_site_label
  _atom_site_symmetry_multiplicity
  _atom_site_fract_x
  _atom_site_fract_y
  _atom_site_fract_z
  _atom_site_occupancy
  _atom_site_charge
In  In1       1.0  0.90306  0.32485  0.85769  1.0000 1.5203296331
In  In2       1.0  0.90306  0.67515  0.14231  1.0000 1.5203296331
In  In3       1.0  0.09694  0.17515  0.35769  1.0000 1.5203296331
In  In4       1.0  0.09694  0.82485  0.64231  1.0000 1.5203296331
In  In5       1.0  0.09694  0.17515  0.64231  1.0000 1.5203296331
In  In6       1.0  0.09694  0.82485  0.35769  1.0000 1.5203296331
In  In7       1.0  0.90306  0.32485  0.14231  1.0000 1.5203296331
In  In8       1.0  0.90306  0.67515  0.85769  1.0000 1.5203296331
In  In9       1.0  0.16901  0.17783  0.85517  1.0000 1.5370962707
In  In10      1.0  0.16901  0.82217  0.14483  1.0000 1.5370962707
In  In11      1.0  0.83099  0.32217  0.35517  1.0000 1.5370962707
In  In12      1.0  0.83099  0.67783  0.64483  1.0000 1.5370962707
In  In13      1.0  0.83099  0.32217  0.64483  1.0000 1.5370962707
In  In14      1.0  0.83099  0.67783  0.35517  1.0000 1.5370962707
In  In15      1.0  0.16901  0.17783  0.14483  1.0000 1.5370962707
In  In16      1.0  0.16901  0.82217  0.85517  1.0000 1.5370962707
In  In17      1.0  0.53459  0.24973  0.89224  1.0000 1.5370962707
In  In18      1.0  0.53459  0.75027  0.10776  1.0000 1.5452650872
In  In19      1.0  0.46541  0.25027  0.39224  1.0000 1.5452650872
In  In20      1.0  0.46541  0.74973  0.60776  1.0000 1.5452650872
In  In21      1.0  0.46541  0.25027  0.60776  1.0000 1.5452650872
In  In22      1.0  0.46541  0.74973  0.39224  1.0000 1.5452650872
In  In23      1.0  0.53459  0.24973  0.10776  1.0000 1.5452650872
In  In24      1.0  0.53459  0.75027  0.89224  1.0000 1.5370962707
H   H1        1.0  0.30910  0.22700  0.00000  1.0000 0.1569982623
H   H2        1.0  0.30910  0.77300  0.00000  1.0000 0.1569982623
H   H3        1.0  0.69090  0.27300  0.50000  1.0000 0.1569982623
H   H4        1.0  0.69090  0.72700  0.50000  1.0000 0.1569982623
H   H5        1.0  0.75870  0.26540  0.00000  1.0000 0.1569982623
H   H6        1.0  0.75870  0.73460  0.00000  1.0000 0.1569982623
H   H7        1.0  0.24130  0.23460  0.50000  1.0000 0.1569982623
H   H8        1.0  0.24130  0.76540  0.50000  1.0000 0.1569982623
H   H9        1.0  0.94000  0.00000  0.85220  1.0000 0.1569982623
H   H10       1.0  0.94000  0.00000  0.14780  1.0000 0.1569982623
H   H11       1.0  0.06000  0.50000  0.35220  1.0000 0.1569982623
H   H12       1.0  0.06000  0.50000  0.64780  1.0000 0.1569982623
H   H13       1.0  0.40180  0.00000  0.88150  1.0000 0.151574516
H   H14       1.0  0.40180  0.00000  0.11850  1.0000 0.151574516
H   H15       1.0  0.59820  0.50000  0.38150  1.0000 0.151574516
H   H16       1.0  0.59820  0.50000  0.61850  1.0000 0.151574516
H   H17       1.0  0.88000  0.50000  0.80850  1.0000 0.151574516
H   H18       1.0  0.88000  0.50000  0.19150  1.0000 0.151574516
H   H19       1.0  0.12000  0.00000  0.30850  1.0000 0.151574516
H   H20       1.0  0.12000  0.00000  0.69150  1.0000 0.151574516
H   H21       1.0  0.69390  0.50000  0.69270  1.0000 0.151574516
H   H22       1.0  0.69390  0.50000  0.30730  1.0000 0.151574516
H   H23       1.0  0.30610  0.00000  0.19270  1.0000 0.151574516
H   H24       1.0  0.30610  0.00000  0.80730  1.0000 0.151574516
H   H25       1.0  0.12560  0.50000  0.85910  1.0000 0.1569982623
H   H26       1.0  0.12560  0.50000  0.14090  1.0000 0.1569982623
H   H27       1.0  0.87440  0.00000  0.35910  1.0000 0.1569982623
H   H28       1.0  0.87440  0.00000  0.64090  1.0000 0.1569982623
H   H29       1.0  0.67500  0.50000  0.88450  1.0000 0.1569982623
H   H30       1.0  0.67500  0.50000  0.11550  1.0000 0.1569982623
H   H31       1.0  0.32500  0.00000  0.38450  1.0000 0.1569982623
H   H32       1.0  0.32500  0.00000  0.61550  1.0000 0.1569982623
C   C1        1.0  0.95070  0.25110  0.96830  1.0000 0.0010980374
C   C2        1.0  0.95070  0.74890  0.03170  1.0000 0.0010980374
C   C3        1.0  0.04930  0.24890  0.46830  1.0000 0.0010980374
C   C4        1.0  0.04930  0.75110  0.53170  1.0000 0.0010980374
C   C5        1.0  0.04930  0.24890  0.53170  1.0000 0.0010980374
C   C6        1.0  0.04930  0.75110  0.46830  1.0000 0.0010980374
C   C7        1.0  0.95070  0.25110  0.03170  1.0000 0.0010980374
C   C8        1.0  0.95070  0.74890  0.96830  1.0000 0.0010980374
C   C9        1.0  0.12090  0.23960  0.96790  1.0000 -0.0285643532
C   C10       1.0  0.12090  0.76040  0.03210  1.0000 -0.0285643532
C   C11       1.0  0.87910  0.26040  0.46790  1.0000 -0.0285643532
C   C12       1.0  0.87910  0.73960  0.53210  1.0000 -0.0285643532
C   C13       1.0  0.87910  0.26040  0.53210  1.0000 -0.0285643532
C   C14       1.0  0.87910  0.73960  0.46790  1.0000 -0.0285643532
C   C15       1.0  0.12090  0.23960  0.03210  1.0000 -0.0285643532
C   C16       1.0  0.12090  0.76040  0.96790  1.0000 -0.0285643532
C   C17       1.0  0.19800  0.23440  0.00000  1.0000 -0.0854190178
C   C18       1.0  0.19800  0.76560  0.00000  1.0000 -0.0854190178
C   C19       1.0  0.80200  0.26560  0.50000  1.0000 -0.0854190178
C   C20       1.0  0.80200  0.73440  0.50000  1.0000 -0.0854190178
C   C21       1.0  0.86940  0.25720  0.00000  1.0000 -0.1024030416
C   C22       1.0  0.86940  0.74280  0.00000  1.0000 -0.1024030416
C   C23       1.0  0.13060  0.24280  0.50000  1.0000 -0.1024030416
C   C24       1.0  0.13060  0.75720  0.50000  1.0000 -0.1024030416
C   C25       1.0  0.85800  0.26460  0.93470  1.0000 0.6304734399
C   C26       1.0  0.85800  0.73540  0.06530  1.0000 0.6304734399
C   C27       1.0  0.14200  0.23540  0.43470  1.0000 0.6304734399
C   C28       1.0  0.14200  0.76460  0.56530  1.0000 0.6304734399
C   C29       1.0  0.14200  0.23540  0.56530  1.0000 0.6304734399
C   C30       1.0  0.14200  0.76460  0.43470  1.0000 0.6304734399
C   C31       1.0  0.85800  0.26460  0.06530  1.0000 0.6304734399
C   C32       1.0  0.85800  0.73540  0.93470  1.0000 0.6304734399
C   C33       1.0  0.21070  0.22720  0.93440  1.0000 0.6304734399
C   C34       1.0  0.21070  0.77280  0.06560  1.0000 0.6304734399
C   C35       1.0  0.78930  0.27280  0.43440  1.0000 0.6304734399
C   C36       1.0  0.78930  0.72720  0.56560  1.0000 0.6304734399
C   C37       1.0  0.78930  0.27280  0.56560  1.0000 0.6304734399
C   C38       1.0  0.78930  0.72720  0.43440  1.0000 0.6304734399
C   C39       1.0  0.21070  0.22720  0.06560  1.0000 0.6304734399
C   C40       1.0  0.21070  0.77280  0.93440  1.0000 0.6304734399
C   C41       1.0  0.58670  0.05520  0.87130  1.0000 -0.0285643532
C   C42       1.0  0.58670  0.94480  0.12870  1.0000 -0.0285643532
C   C43       1.0  0.41330  0.44480  0.37130  1.0000 -0.0285643532
C   C44       1.0  0.41330  0.55520  0.62870  1.0000 -0.0285643532
C   C45       1.0  0.41330  0.44480  0.62870  1.0000 -0.0285643532
C   C46       1.0  0.41330  0.55520  0.37130  1.0000 -0.0285643532
C   C47       1.0  0.58670  0.05520  0.12870  1.0000 -0.0285643532
C   C48       1.0  0.58670  0.94480  0.87130  1.0000 -0.0285643532
C   C49       1.0  0.75220  0.05530  0.86210  1.0000 -0.0070554427
C   C50       1.0  0.75220  0.94470  0.13790  1.0000 -0.0070554427
C   C51       1.0  0.24780  0.44470  0.36210  1.0000 -0.0070554427
C   C52       1.0  0.24780  0.55530  0.63790  1.0000 -0.0070554427
C   C53       1.0  0.24780  0.44470  0.63790  1.0000 -0.0070554427
C   C54       1.0  0.24780  0.55530  0.36210  1.0000 -0.0070554427
C   C55       1.0  0.75220  0.05530  0.13790  1.0000 -0.0070554427
C   C56       1.0  0.75220  0.94470  0.86210  1.0000 -0.0070554427
C   C57       1.0  0.83000  0.00000  0.85800  1.0000 -0.1024030416
C   C58       1.0  0.83000  0.00000  0.14200  1.0000 -0.1024030416
C   C59       1.0  0.17000  0.50000  0.35800  1.0000 -0.1024030416
C   C60       1.0  0.17000  0.50000  0.64200  1.0000 -0.1024030416
C   C61       1.0  0.51100  0.00000  0.87550  1.0000 -0.0828279639
C   C62       1.0  0.51100  0.00000  0.12450  1.0000 -0.0828279639
C   C63       1.0  0.48900  0.50000  0.37550  1.0000 -0.0828279639
C   C64       1.0  0.48900  0.50000  0.62450  1.0000 -0.0828279639
C   C65       1.0  0.84200  0.11120  0.85250  1.0000 0.5910120842
C   C66       1.0  0.84200  0.88880  0.14750  1.0000 0.5910120842
C   C67       1.0  0.15800  0.38880  0.35250  1.0000 0.5910120842
C   C68       1.0  0.15800  0.61120  0.64750  1.0000 0.5910120842
C   C69       1.0  0.15800  0.38880  0.64750  1.0000 0.5910120842
C   C70       1.0  0.15800  0.61120  0.35250  1.0000 0.5910120842
C   C71       1.0  0.84200  0.11120  0.14750  1.0000 0.5910120842
C   C72       1.0  0.84200  0.88880  0.85250  1.0000 0.5910120842
C   C73       1.0  0.49340  0.11190  0.87750  1.0000 0.6231311349
C   C74       1.0  0.49340  0.88810  0.12250  1.0000 0.6231311349
C   C75       1.0  0.50660  0.38810  0.37750  1.0000 0.6231311349
C   C76       1.0  0.50660  0.61190  0.62250  1.0000 0.6231311349
C   C77       1.0  0.50660  0.38810  0.62250  1.0000 0.6231311349
C   C78       1.0  0.50660  0.61190  0.37750  1.0000 0.6231311349
C   C79       1.0  0.49340  0.11190  0.12250  1.0000 0.6231311349
C   C80       1.0  0.49340  0.88810  0.87750  1.0000 0.6231311349
C   C81       1.0  0.80390  0.44570  0.76830  1.0000 -0.0229559966
C   C82       1.0  0.80390  0.55430  0.23170  1.0000 -0.0229559966
C   C83       1.0  0.19610  0.05430  0.26830  1.0000 -0.0229559966
C   C84       1.0  0.19610  0.94570  0.73170  1.0000 -0.0229559966
C   C85       1.0  0.19610  0.05430  0.73170  1.0000 -0.0229559966
C   C86       1.0  0.19610  0.94570  0.26830  1.0000 -0.0229559966
C   C87       1.0  0.80390  0.44570  0.23170  1.0000 -0.0229559966
C   C88       1.0  0.80390  0.55430  0.76830  1.0000 -0.0229559966
C   C89       1.0  0.75110  0.44570  0.73240  1.0000 0.0118629435
C   C90       1.0  0.75110  0.55430  0.26760  1.0000 0.0118629435
C   C91       1.0  0.24890  0.05430  0.23240  1.0000 0.0118629435
C   C92       1.0  0.24890  0.94570  0.76760  1.0000 0.0118629435
C   C93       1.0  0.24890  0.05430  0.76760  1.0000 0.0118629435
C   C94       1.0  0.24890  0.94570  0.23240  1.0000 0.0118629435
C   C95       1.0  0.75110  0.44570  0.26760  1.0000 0.0118629435
C   C96       1.0  0.75110  0.55430  0.73240  1.0000 0.0118629435
C   C97       1.0  0.82500  0.38730  0.78790  1.0000 0.5668721286
C   C98       1.0  0.82500  0.61270  0.21210  1.0000 0.5668721286
C   C99       1.0  0.17500  0.11270  0.28790  1.0000 0.5668721286
C   C100      1.0  0.17500  0.88730  0.71210  1.0000 0.5668721286
C   C101      1.0  0.17500  0.11270  0.71210  1.0000 0.5668721286
C   C102      1.0  0.17500  0.88730  0.28790  1.0000 0.5668721286
C   C103      1.0  0.82500  0.38730  0.21210  1.0000 0.5668721286
C   C104      1.0  0.82500  0.61270  0.78790  1.0000 0.5668721286
C   C105      1.0  0.83700  0.50000  0.78570  1.0000 -0.0828279639
C   C106      1.0  0.83700  0.50000  0.21430  1.0000 -0.0828279639
C   C107      1.0  0.16300  0.00000  0.28570  1.0000 -0.0828279639
C   C108      1.0  0.16300  0.00000  0.71430  1.0000 -0.0828279639
C   C109      1.0  0.72800  0.50000  0.71620  1.0000 -0.1024030416
C   C110      1.0  0.72800  0.50000  0.28380  1.0000 -0.1024030416
C   C111      1.0  0.27200  0.00000  0.21620  1.0000 -0.1024030416
C   C112      1.0  0.27200  0.00000  0.78380  1.0000 -0.1024030416
C   C113      1.0  0.72900  0.38780  0.71140  1.0000 0.5910120842
C   C114      1.0  0.72900  0.61220  0.28860  1.0000 0.5910120842
C   C115      1.0  0.27100  0.11220  0.21140  1.0000 0.5910120842
C   C116      1.0  0.27100  0.88780  0.78860  1.0000 0.5910120842
C   C117      1.0  0.27100  0.11220  0.78860  1.0000 0.5910120842
C   C118      1.0  0.27100  0.88780  0.21140  1.0000 0.5910120842
C   C119      1.0  0.72900  0.38780  0.28860  1.0000 0.5910120842
C   C120      1.0  0.72900  0.61220  0.71140  1.0000 0.5910120842
C   C121      1.0  0.31530  0.44510  0.86890  1.0000 -0.0070554427
C   C122      1.0  0.31530  0.55490  0.13110  1.0000 -0.0040921159
C   C123      1.0  0.68470  0.05490  0.36890  1.0000 -0.0040921159
C   C124      1.0  0.68470  0.94510  0.63110  1.0000 -0.0040921159
C   C125      1.0  0.68470  0.05490  0.63110  1.0000 -0.0040921159
C   C126      1.0  0.68470  0.94510  0.36890  1.0000 -0.0040921159
C   C127      1.0  0.31530  0.44510  0.13110  1.0000 -0.0040921159
C   C128      1.0  0.31530  0.55490  0.86890  1.0000 -0.0070554427
C   C129      1.0  0.22230  0.38920  0.85940  1.0000 0.5910120842
C   C130      1.0  0.22230  0.61080  0.14060  1.0000 0.5910120842
C   C131      1.0  0.77770  0.11080  0.35940  1.0000 0.5910120842
C   C132      1.0  0.77770  0.88920  0.64060  1.0000 0.5910120842
C   C133      1.0  0.77770  0.11080  0.64060  1.0000 0.5910120842
C   C134      1.0  0.77770  0.88920  0.35940  1.0000 0.5910120842
C   C135      1.0  0.22230  0.38920  0.14060  1.0000 0.5910120842
C   C136      1.0  0.22230  0.61080  0.85940  1.0000 0.5910120842
C   C137      1.0  0.23500  0.50000  0.86480  1.0000 -0.1024030416
C   C138      1.0  0.23500  0.50000  0.13520  1.0000 -0.1024030416
C   C139      1.0  0.76500  0.00000  0.36480  1.0000 -0.1024030416
C   C140      1.0  0.76500  0.00000  0.63520  1.0000 -0.1024030416
C   C141      1.0  0.57380  0.38740  0.88290  1.0000 0.611995363
C   C142      1.0  0.57380  0.61260  0.11710  1.0000 0.611995363
C   C143      1.0  0.42620  0.11260  0.38290  1.0000 0.611995363
C   C144      1.0  0.42620  0.88740  0.61710  1.0000 0.611995363
C   C145      1.0  0.42620  0.11260  0.61710  1.0000 0.611995363
C   C146      1.0  0.42620  0.88740  0.38290  1.0000 0.611995363
C   C147      1.0  0.57380  0.38740  0.11710  1.0000 0.611995363
C   C148      1.0  0.57380  0.61260  0.88290  1.0000 0.611995363
C   C149      1.0  0.56370  0.50000  0.88040  1.0000 -0.0828279639
C   C150      1.0  0.56370  0.50000  0.11960  1.0000 -0.0854190178
C   C151      1.0  0.43630  0.00000  0.38040  1.0000 -0.0854190178
C   C152      1.0  0.43630  0.00000  0.61960  1.0000 -0.0828279639
C   C153      1.0  0.48150  0.44490  0.87740  1.0000 -0.0229559966
C   C154      1.0  0.48150  0.55510  0.12260  1.0000 -0.0229559966
C   C155      1.0  0.51850  0.05510  0.37740  1.0000 -0.0229559966
C   C156      1.0  0.51850  0.94490  0.62260  1.0000 -0.0229559966
C   C157      1.0  0.51850  0.05510  0.62260  1.0000 -0.0229559966
C   C158      1.0  0.51850  0.94490  0.37740  1.0000 -0.0229559966
C   C159      1.0  0.48150  0.44490  0.12260  1.0000 -0.0229559966
C   C160      1.0  0.48150  0.55510  0.87740  1.0000 -0.0229559966
O   O1        1.0  0.35710  0.24710  0.93360  1.0000 -0.5496404301
O   O2        1.0  0.35710  0.75290  0.06640  1.0000 -0.5496404301
O   O3        1.0  0.64290  0.25290  0.43360  1.0000 -0.5444130215
O   O4        1.0  0.64290  0.74710  0.56640  1.0000 -0.5444130215
O   O5        1.0  0.64290  0.25290  0.56640  1.0000 -0.5444130215
O   O6        1.0  0.64290  0.74710  0.43360  1.0000 -0.5444130215
O   O7        1.0  0.35710  0.24710  0.06640  1.0000 -0.5496404301
O   O8        1.0  0.35710  0.75290  0.93360  1.0000 -0.5444130215
O   O9        1.0  0.36370  0.23870  0.85090  1.0000 -0.6691807124
O   O10       1.0  0.36370  0.76130  0.14910  1.0000 -0.6691807124
O   O11       1.0  0.63630  0.26130  0.35090  1.0000 -0.6691807124
O   O12       1.0  0.63630  0.73870  0.64910  1.0000 -0.6691807124
O   O13       1.0  0.63630  0.26130  0.64910  1.0000 -0.6691807124
O   O14       1.0  0.63630  0.73870  0.35090  1.0000 -0.6691807124
O   O15       1.0  0.36370  0.23870  0.14910  1.0000 -0.6691807124
O   O16       1.0  0.36370  0.76130  0.85090  1.0000 -0.6691807124
O   O17       1.0  0.70560  0.26470  0.85240  1.0000 -0.6780120345
O   O18       1.0  0.70560  0.73530  0.14760  1.0000 -0.6780120345
O   O19       1.0  0.29440  0.23530  0.35240  1.0000 -0.6780120345
O   O20       1.0  0.29440  0.76470  0.64760  1.0000 -0.6691807124
O   O21       1.0  0.29440  0.23530  0.64760  1.0000 -0.6780120345
O   O22       1.0  0.29440  0.76470  0.35240  1.0000 -0.6691807124
O   O23       1.0  0.70560  0.26470  0.14760  1.0000 -0.6780120345
O   O24       1.0  0.70560  0.73530  0.85240  1.0000 -0.6780120345
O   O25       1.0  0.71340  0.24510  0.93360  1.0000 -0.5313328095
O   O26       1.0  0.71340  0.75490  0.06640  1.0000 -0.5313328095
O   O27       1.0  0.28660  0.25490  0.43360  1.0000 -0.5313328095
O   O28       1.0  0.28660  0.74510  0.56640  1.0000 -0.5313328095
O   O29       1.0  0.28660  0.25490  0.56640  1.0000 -0.5313328095
O   O30       1.0  0.28660  0.74510  0.43360  1.0000 -0.5313328095
O   O31       1.0  0.71340  0.24510  0.06640  1.0000 -0.5313328095
O   O32       1.0  0.71340  0.75490  0.93360  1.0000 -0.5313328095
O   O33       1.0  0.03210  0.25130  0.83490  1.0000 -0.6270976831
O   O34       1.0  0.03210  0.74870  0.16510  1.0000 -0.6270976831
O   O35       1.0  0.96790  0.24870  0.33490  1.0000 -0.6270976831
O   O36       1.0  0.96790  0.75130  0.66510  1.0000 -0.6270976831
O   O37       1.0  0.96790  0.24870  0.66510  1.0000 -0.6270976831
O   O38       1.0  0.96790  0.75130  0.33490  1.0000 -0.6270976831
O   O39       1.0  0.03210  0.25130  0.16510  1.0000 -0.6270976831
O   O40       1.0  0.03210  0.74870  0.83490  1.0000 -0.6246082696
O   O41       1.0  0.34610  0.11090  0.87100  1.0000 -0.5313328095
O   O42       1.0  0.34610  0.88910  0.12900  1.0000 -0.5313328095
O   O43       1.0  0.65390  0.38910  0.37100  1.0000 -0.5313328095
O   O44       1.0  0.65390  0.61090  0.62900  1.0000 -0.5313328095
O   O45       1.0  0.65390  0.38910  0.62900  1.0000 -0.5313328095
O   O46       1.0  0.65390  0.61090  0.37100  1.0000 -0.5313328095
O   O47       1.0  0.34610  0.11090  0.12900  1.0000 -0.5313328095
O   O48       1.0  0.34610  0.88910  0.87100  1.0000 -0.5313328095
O   O49       1.0  0.57310  0.15420  0.88980  1.0000 -0.494768398
O   O50       1.0  0.57310  0.84580  0.11020  1.0000 -0.494768398
O   O51       1.0  0.42690  0.34580  0.38980  1.0000 -0.494768398
O   O52       1.0  0.42690  0.65420  0.61020  1.0000 -0.494768398
O   O53       1.0  0.42690  0.34580  0.61020  1.0000 -0.494768398
O   O54       1.0  0.42690  0.65420  0.38980  1.0000 -0.494768398
O   O55       1.0  0.57310  0.15420  0.11020  1.0000 -0.5010640733
O   O56       1.0  0.57310  0.84580  0.88980  1.0000 -0.494768398
O   O57       1.0  0.08940  0.38320  0.87630  1.0000 -0.5159193936
O   O58       1.0  0.08940  0.61680  0.12370  1.0000 -0.5159193936
O   O59       1.0  0.91060  0.11680  0.37630  1.0000 -0.5159193936
O   O60       1.0  0.91060  0.88320  0.62370  1.0000 -0.5159193936
O   O61       1.0  0.91060  0.11680  0.62370  1.0000 -0.5159193936
O   O62       1.0  0.91060  0.88320  0.37630  1.0000 -0.5159193936
O   O63       1.0  0.08940  0.38320  0.12370  1.0000 -0.5159193936
O   O64       1.0  0.08940  0.61680  0.87630  1.0000 -0.5159193936
O   O65       1.0  0.97720  0.11740  0.86970  1.0000 -0.5496404301
O   O66       1.0  0.97720  0.88260  0.13030  1.0000 -0.5496404301
O   O67       1.0  0.02280  0.38260  0.36970  1.0000 -0.5496404301
O   O68       1.0  0.02280  0.61740  0.63030  1.0000 -0.5496404301
O   O69       1.0  0.02280  0.38260  0.63030  1.0000 -0.5496404301
O   O70       1.0  0.02280  0.61740  0.36970  1.0000 -0.5496404301
O   O71       1.0  0.97720  0.11740  0.13030  1.0000 -0.5496404301
O   O72       1.0  0.97720  0.88260  0.86970  1.0000 -0.5496404301
O   O73       1.0  0.14100  0.19920  0.91100  1.0000 -0.494768398
O   O74       1.0  0.14100  0.80080  0.08900  1.0000 -0.494768398
O   O75       1.0  0.85900  0.30080  0.41100  1.0000 -0.494768398
O   O76       1.0  0.85900  0.69920  0.58900  1.0000 -0.494768398
O   O77       1.0  0.85900  0.30080  0.58900  1.0000 -0.494768398
O   O78       1.0  0.85900  0.69920  0.41100  1.0000 -0.494768398
O   O79       1.0  0.14100  0.19920  0.08900  1.0000 -0.5010640733
O   O80       1.0  0.14100  0.80080  0.91100  1.0000 -0.494768398
O   O81       1.0  0.92810  0.29600  0.91240  1.0000 -0.5010640733
O   O82       1.0  0.92810  0.70400  0.08760  1.0000 -0.5010640733
O   O83       1.0  0.07190  0.20400  0.41240  1.0000 -0.5010640733
O   O84       1.0  0.07190  0.79600  0.58760  1.0000 -0.5010640733
O   O85       1.0  0.07190  0.20400  0.58760  1.0000 -0.5010640733
O   O86       1.0  0.07190  0.79600  0.41240  1.0000 -0.5010640733
O   O87       1.0  0.92810  0.29600  0.08760  1.0000 -0.5010640733
O   O88       1.0  0.92810  0.70400  0.91240  1.0000 -0.5010640733
O   O89       1.0  0.72030  0.38930  0.87710  1.0000 -0.5313328095
O   O90       1.0  0.72030  0.61070  0.12290  1.0000 -0.5313328095
O   O91       1.0  0.27970  0.11070  0.37710  1.0000 -0.5313328095
O   O92       1.0  0.27970  0.88930  0.62290  1.0000 -0.5313328095
O   O93       1.0  0.27970  0.11070  0.62290  1.0000 -0.5313328095
O   O94       1.0  0.27970  0.88930  0.37710  1.0000 -0.5313328095
O   O95       1.0  0.72030  0.38930  0.12290  1.0000 -0.5313328095
O   O96       1.0  0.72030  0.61070  0.87710  1.0000 -0.5313328095
O   O97       1.0  0.49300  0.34460  0.89460  1.0000 -0.5010640733
O   O98       1.0  0.49300  0.65540  0.10540  1.0000 -0.5010640733
O   O99       1.0  0.50700  0.15540  0.39460  1.0000 -0.5010640733
O   O100      1.0  0.50700  0.84460  0.60540  1.0000 -0.5010640733
O   O101      1.0  0.50700  0.15540  0.60540  1.0000 -0.5010640733
O   O102      1.0  0.50700  0.84460  0.39460  1.0000 -0.5010640733
O   O103      1.0  0.49300  0.34460  0.10540  1.0000 -0.5010640733
O   O104      1.0  0.49300  0.65540  0.89460  1.0000 -0.5010640733
O   O105      1.0  0.83450  0.36820  0.69470  1.0000 -0.4330700586
O   O106      1.0  0.83450  0.63180  0.30530  1.0000 -0.4330700586
O   O107      1.0  0.16550  0.13180  0.19470  1.0000 -0.4330700586
O   O108      1.0  0.16550  0.86820  0.80530  1.0000 -0.4330700586
O   O109      1.0  0.16550  0.13180  0.80530  1.0000 -0.4330700586
O   O110      1.0  0.16550  0.86820  0.19470  1.0000 -0.4330700586
O   O111      1.0  0.83450  0.36820  0.30530  1.0000 -0.4330700586
O   O112      1.0  0.83450  0.63180  0.69470  1.0000 -0.4330700586
O   O113      1.0  0.90710  0.38560  0.81320  1.0000 -0.4489226943
O   O114      1.0  0.90710  0.61440  0.18680  1.0000 -0.4489226943
O   O115      1.0  0.09290  0.11440  0.31320  1.0000 -0.4489226943
O   O116      1.0  0.09290  0.88560  0.68680  1.0000 -0.4489226943
O   O117      1.0  0.09290  0.11440  0.68680  1.0000 -0.4489226943
O   O118      1.0  0.09290  0.88560  0.31320  1.0000 -0.4489226943
O   O119      1.0  0.90710  0.38560  0.18680  1.0000 -0.4489226943
O   O120      1.0  0.90710  0.61440  0.81320  1.0000 -0.4489226943
O   O121      1.0  0.79200  0.14410  0.82930  1.0000 -0.3291226277
O   O122      1.0  0.79200  0.85590  0.17070  1.0000 -0.3291226277
O   O123      1.0  0.20800  0.35590  0.32930  1.0000 -0.3291226277
O   O124      1.0  0.20800  0.64410  0.67070  1.0000 -0.3291226277
O   O125      1.0  0.20800  0.35590  0.67070  1.0000 -0.3291226277
O   O126      1.0  0.20800  0.64410  0.32930  1.0000 -0.3291226277
O   O127      1.0  0.79200  0.14410  0.17070  1.0000 -0.3291226277
O   O128      1.0  0.79200  0.85590  0.82930  1.0000 -0.3291226277
O   O129      1.0  0.74600  0.34170  0.77710  1.0000 -0.3952216121
O   O130      1.0  0.74600  0.65830  0.22290  1.0000 -0.3952216121
O   O131      1.0  0.25400  0.15830  0.27710  1.0000 -0.3952216121
O   O132      1.0  0.25400  0.84170  0.72290  1.0000 -0.394603661
O   O133      1.0  0.25400  0.15830  0.72290  1.0000 -0.3952216121
O   O134      1.0  0.25400  0.84170  0.27710  1.0000 -0.394603661
O   O135      1.0  0.74600  0.34170  0.22290  1.0000 -0.3952216121
O   O136      1.0  0.74600  0.65830  0.77710  1.0000 -0.3952216121
O   O137      1.0  0.57200  0.37350  0.70700  1.0000 -0.4489226943
O   O138      1.0  0.57200  0.62650  0.29300  1.0000 -0.4489226943
O   O139      1.0  0.42800  0.12650  0.20700  1.0000 -0.4489226943
O   O140      1.0  0.42800  0.87350  0.79300  1.0000 -0.4489226943
O   O141      1.0  0.42800  0.12650  0.79300  1.0000 -0.4489226943
O   O142      1.0  0.42800  0.87350  0.20700  1.0000 -0.4489226943
O   O143      1.0  0.57200  0.37350  0.29300  1.0000 -0.4489226943
O   O144      1.0  0.57200  0.62650  0.70700  1.0000 -0.4489226943
O   O145      1.0  0.27040  0.35610  0.83560  1.0000 -0.3560675296
O   O146      1.0  0.27040  0.64390  0.16440  1.0000 -0.3560675296
O   O147      1.0  0.72960  0.14390  0.33560  1.0000 -0.3560675296
O   O148      1.0  0.72960  0.85610  0.66440  1.0000 -0.3560675296
O   O149      1.0  0.72960  0.14390  0.66440  1.0000 -0.3560675296
O   O150      1.0  0.72960  0.85610  0.33560  1.0000 -0.3560675296
O   O151      1.0  0.27040  0.35610  0.16440  1.0000 -0.3560675296
O   O152      1.0  0.27040  0.64390  0.83560  1.0000 -0.3560675296
