# DDEC6 charges by PACMAN v1.1 (https://github.com/mtap-research/PACMAN-charge/)
data_2011[Y][nan]3[FSR]1
_chemical_formula_sum              "Y4 H48 C36 O36"
_cell_length_a       19.8076
_cell_length_b       19.8076
_cell_length_c       6.726
_cell_angle_alpha    88.8786
_cell_angle_beta     91.1214
_cell_angle_gamma    146.859

_symmetry_space_group_name_H-M    "P 1"
_symmetry_Int_Tables_number       1

loop_
  _symmetry_equiv_pos_as_xyz
  'x, y, z'

loop_
  _atom_site_type_symbol
  _atom_site_label
  _atom_site_symmetry_multiplicity
  _atom_site_fract_x
  _atom_site_fract_y
  _atom_site_fract_z
  _atom_site_occupancy
  _atom_site_charge
Y   Y1        1.0  0.83827  0.58105  0.81776  1.0000 1.7924919695
Y   Y2        1.0  0.58105  0.83827  0.68224  1.0000 1.7924919695
Y   Y3        1.0  0.16173  0.41895  0.18224  1.0000 1.7924919695
Y   Y4        1.0  0.41895  0.16173  0.31776  1.0000 1.7924919695
H   H1        1.0  0.02140  0.49020  0.81730  1.0000 0.1414883733
H   H2        1.0  0.49020  0.02140  0.68270  1.0000 0.1451772273
H   H3        1.0  0.97860  0.50980  0.18270  1.0000 0.1451772273
H   H4        1.0  0.50980  0.97860  0.31730  1.0000 0.1414883733
H   H5        1.0  0.81650  0.27170  0.62110  1.0000 0.1103016705
H   H6        1.0  0.27170  0.81650  0.87890  1.0000 0.1103016705
H   H7        1.0  0.18350  0.72830  0.37890  1.0000 0.1103016705
H   H8        1.0  0.72830  0.18350  0.12110  1.0000 0.1103016705
H   H9        1.0  0.90570  0.48150  0.64070  1.0000 0.1153089673
H   H10       1.0  0.48150  0.90570  0.85930  1.0000 0.1153089673
H   H11       1.0  0.09430  0.51850  0.35930  1.0000 0.1153089673
H   H12       1.0  0.51850  0.09430  0.14070  1.0000 0.1153089673
H   H13       1.0  0.68320  0.25300  0.48890  1.0000 0.1414883733
H   H14       1.0  0.25300  0.68320  0.01110  1.0000 0.1414883733
H   H15       1.0  0.31680  0.74700  0.51110  1.0000 0.1414883733
H   H16       1.0  0.74700  0.31680  0.98890  1.0000 0.1414883733
H   H17       1.0  0.70170  0.66590  0.47430  1.0000 0.1414883733
H   H18       1.0  0.66590  0.70170  0.02570  1.0000 0.1414883733
H   H19       1.0  0.29830  0.33410  0.52570  1.0000 0.1414883733
H   H20       1.0  0.33410  0.29830  0.97430  1.0000 0.1414883733
H   H21       1.0  0.49080  0.42620  0.59350  1.0000 0.1103016705
H   H22       1.0  0.42620  0.49080  0.90650  1.0000 0.1103016705
H   H23       1.0  0.50920  0.57380  0.40650  1.0000 0.1103016705
H   H24       1.0  0.57380  0.50920  0.09350  1.0000 0.1103016705
H   H25       1.0  0.90990  0.74010  0.96900  1.0000 0.3446643025
H   H26       1.0  0.74010  0.90990  0.53100  1.0000 0.3446643025
H   H27       1.0  0.09010  0.25990  0.03100  1.0000 0.3446643025
H   H28       1.0  0.25990  0.09010  0.46900  1.0000 0.3446643025
H   H29       1.0  0.03400  0.85000  0.89400  1.0000 0.3992320444
H   H30       1.0  0.85000  0.03400  0.60600  1.0000 0.3992320444
H   H31       1.0  0.96600  0.15000  0.10600  1.0000 0.3992320444
H   H32       1.0  0.15000  0.96600  0.39400  1.0000 0.3992320444
H   H33       1.0  0.11100  0.80100  0.69900  1.0000 0.3992320444
H   H34       1.0  0.80100  0.11100  0.80100  1.0000 0.3992320444
H   H35       1.0  0.88900  0.19900  0.30100  1.0000 0.3992320444
H   H36       1.0  0.19900  0.88900  0.19900  1.0000 0.3992320444
H   H37       1.0  0.03200  0.70800  0.51600  1.0000 0.3944200546
H   H38       1.0  0.70800  0.03200  0.98400  1.0000 0.3944200546
H   H39       1.0  0.96800  0.29200  0.48400  1.0000 0.3944200546
H   H40       1.0  0.29200  0.96800  0.01600  1.0000 0.3944200546
H   H41       1.0  0.78390  0.61810  0.16200  1.0000 0.3786464304
H   H42       1.0  0.61810  0.78390  0.33800  1.0000 0.3786464304
H   H43       1.0  0.21610  0.38190  0.83800  1.0000 0.3786464304
H   H44       1.0  0.38190  0.21610  0.66200  1.0000 0.3786464304
H   H45       1.0  0.66800  0.48000  0.14700  1.0000 0.3992320444
H   H46       1.0  0.48000  0.66800  0.35300  1.0000 0.3992320444
H   H47       1.0  0.33200  0.52000  0.85300  1.0000 0.3992320444
H   H48       1.0  0.52000  0.33200  0.64700  1.0000 0.3992320444
C   C1        1.0  0.99200  0.36160  0.83690  1.0000 0.6531895072
C   C2        1.0  0.36160  0.99200  0.66310  1.0000 0.6531895072
C   C3        1.0  0.00800  0.63840  0.16310  1.0000 0.6531895072
C   C4        1.0  0.63840  0.00800  0.33690  1.0000 0.6531895072
C   C5        1.0  0.96660  0.41120  0.77580  1.0000 -0.2596492722
C   C6        1.0  0.41120  0.96660  0.72420  1.0000 -0.2596492722
C   C7        1.0  0.03340  0.58880  0.22420  1.0000 -0.2596492722
C   C8        1.0  0.58880  0.03340  0.27580  1.0000 -0.2596492722
C   C9        1.0  0.87050  0.34990  0.66560  1.0000 -0.0591083738
C   C10       1.0  0.34990  0.87050  0.83440  1.0000 -0.0591083738
C   C11       1.0  0.12950  0.65010  0.33440  1.0000 -0.0591083738
C   C12       1.0  0.65010  0.12950  0.16560  1.0000 -0.0591083738
C   C13       1.0  0.84580  0.39940  0.61090  1.0000 -0.0461841823
C   C14       1.0  0.39940  0.84580  0.88910  1.0000 -0.0461841823
C   C15       1.0  0.15420  0.60060  0.38910  1.0000 -0.0461841823
C   C16       1.0  0.60060  0.15420  0.11090  1.0000 -0.0461841823
C   C17       1.0  0.74330  0.33490  0.52130  1.0000 -0.2658161848
C   C18       1.0  0.33490  0.74330  0.97870  1.0000 -0.2658161848
C   C19       1.0  0.25670  0.66510  0.47870  1.0000 -0.2658161848
C   C20       1.0  0.66510  0.25670  0.02130  1.0000 -0.2658161848
C   C21       1.0  0.72088  0.38752  0.47110  1.0000 0.6785124809
C   C22       1.0  0.38752  0.72088  0.02890  1.0000 0.6785124809
C   C23       1.0  0.27912  0.61248  0.52890  1.0000 0.6785124809
C   C24       1.0  0.61248  0.27912  0.97110  1.0000 0.6785124809
C   C25       1.0  0.71880  0.58920  0.63010  1.0000 0.5995766789
C   C26       1.0  0.58920  0.71880  0.86990  1.0000 0.5995766789
C   C27       1.0  0.28120  0.41080  0.36990  1.0000 0.5995766789
C   C28       1.0  0.41080  0.28120  0.13010  1.0000 0.5995766789
C   C29       1.0  0.65500  0.59340  0.53720  1.0000 -0.2532723128
C   C30       1.0  0.59340  0.65500  0.96280  1.0000 -0.2532723128
C   C31       1.0  0.34500  0.40660  0.46280  1.0000 -0.2532723128
C   C32       1.0  0.40660  0.34500  0.03720  1.0000 -0.2532723128
C   C33       1.0  0.53600  0.49980  0.53930  1.0000 -0.0436492368
C   C34       1.0  0.49980  0.53600  0.96070  1.0000 -0.0436492368
C   C35       1.0  0.46400  0.50020  0.46070  1.0000 -0.0436492368
C   C36       1.0  0.50020  0.46400  0.03930  1.0000 -0.0436492368
O   O1        1.0  0.93957  0.27063  0.75210  1.0000 -0.521575871
O   O2        1.0  0.27063  0.93957  0.74790  1.0000 -0.521575871
O   O3        1.0  0.06043  0.72937  0.24790  1.0000 -0.521575871
O   O4        1.0  0.72937  0.06043  0.25210  1.0000 -0.521575871
O   O5        1.0  0.06742  0.41758  0.98010  1.0000 -0.6124011903
O   O6        1.0  0.41758  0.06742  0.51990  1.0000 -0.6124011903
O   O7        1.0  0.93258  0.58242  0.01990  1.0000 -0.6124011903
O   O8        1.0  0.58242  0.93258  0.48010  1.0000 -0.6124011903
O   O9        1.0  0.80077  0.49843  0.51780  1.0000 -0.6124011903
O   O10       1.0  0.49843  0.80077  0.98220  1.0000 -0.6124011903
O   O11       1.0  0.19923  0.50157  0.48220  1.0000 -0.6124011903
O   O12       1.0  0.50157  0.19923  0.01780  1.0000 -0.6124011903
O   O13       1.0  0.67889  0.37571  0.87750  1.0000 -0.5944120359
O   O14       1.0  0.37571  0.67889  0.62250  1.0000 -0.5944120359
O   O15       1.0  0.32111  0.62429  0.12250  1.0000 -0.5951572388
O   O16       1.0  0.62429  0.32111  0.37750  1.0000 -0.5944120359
O   O17       1.0  0.65944  0.49576  0.72640  1.0000 -0.5834686487
O   O18       1.0  0.49576  0.65944  0.77360  1.0000 -0.5834686487
O   O19       1.0  0.34056  0.50424  0.27360  1.0000 -0.5834686487
O   O20       1.0  0.50424  0.34056  0.22640  1.0000 -0.5834686487
O   O21       1.0  0.83438  0.68102  0.61860  1.0000 -0.5944120359
O   O22       1.0  0.68102  0.83438  0.88140  1.0000 -0.5944120359
O   O23       1.0  0.16562  0.31898  0.38140  1.0000 -0.5944120359
O   O24       1.0  0.31898  0.16562  0.11860  1.0000 -0.5944120359
O   O25       1.0  0.02510  0.72230  0.64880  1.0000 -0.8386550873
O   O26       1.0  0.72230  0.02510  0.85120  1.0000 -0.8386550873
O   O27       1.0  0.97490  0.27770  0.35120  1.0000 -0.8386550873
O   O28       1.0  0.27770  0.97490  0.14880  1.0000 -0.8386550873
O   O29       1.0  0.98600  0.77480  0.96980  1.0000 -0.7536987393
O   O30       1.0  0.77480  0.98600  0.53020  1.0000 -0.7536987393
O   O31       1.0  0.01400  0.22520  0.03020  1.0000 -0.7536987393
O   O32       1.0  0.22520  0.01400  0.46980  1.0000 -0.7536987393
O   O33       1.0  0.75806  0.54894  0.13530  1.0000 -0.7625287502
O   O34       1.0  0.54894  0.75806  0.36470  1.0000 -0.7625287502
O   O35       1.0  0.24194  0.45106  0.86470  1.0000 -0.7625287502
O   O36       1.0  0.45106  0.24194  0.63530  1.0000 -0.7625287502
