# DDEC6 charges by PACMAN v1.1 (https://github.com/mtap-research/PACMAN-charge/)
data_2011[Gd][nan]3[FSR]7
_chemical_formula_sum              "Gd4 H36 C44 O28"
_cell_length_a       10.339
_cell_length_b       10.339
_cell_length_c       14.057
_cell_angle_alpha    90
_cell_angle_beta     90
_cell_angle_gamma    90

_symmetry_space_group_name_H-M    "P 1"
_symmetry_Int_Tables_number       1

loop_
  _symmetry_equiv_pos_as_xyz
  'x, y, z'

loop_
  _atom_site_type_symbol
  _atom_site_label
  _atom_site_symmetry_multiplicity
  _atom_site_fract_x
  _atom_site_fract_y
  _atom_site_fract_z
  _atom_site_occupancy
  _atom_site_charge
Gd  Gd1       1.0  0.12803  0.13650  0.16609  1.0000 2.0453949968
Gd  Gd2       1.0  0.87197  0.86350  0.66609  1.0000 2.0453949968
Gd  Gd3       1.0  0.86350  0.12803  0.91609  1.0000 2.0453949968
Gd  Gd4       1.0  0.13650  0.87197  0.41609  1.0000 2.0453949968
H   H1        1.0  0.23280  0.30500  0.03220  1.0000 0.3560640613
H   H2        1.0  0.76720  0.69500  0.53220  1.0000 0.3560640613
H   H3        1.0  0.69500  0.23280  0.78220  1.0000 0.3560640613
H   H4        1.0  0.30500  0.76720  0.28220  1.0000 0.3560640613
H   H5        1.0  0.88450  0.00840  0.30260  1.0000 0.1316871984
H   H6        1.0  0.11550  0.99160  0.80260  1.0000 0.1316871984
H   H7        1.0  0.99160  0.88450  0.05260  1.0000 0.1316871984
H   H8        1.0  0.00840  0.11550  0.55260  1.0000 0.1316871984
H   H9        1.0  0.54670  0.09690  0.17180  1.0000 0.1316871984
H   H10       1.0  0.45330  0.90310  0.67180  1.0000 0.1316871984
H   H11       1.0  0.90310  0.54670  0.92180  1.0000 0.1316871984
H   H12       1.0  0.09690  0.45330  0.42180  1.0000 0.1316871984
H   H13       1.0  0.54750  0.99420  0.45130  1.0000 0.1316871984
H   H14       1.0  0.45250  0.00580  0.95130  1.0000 0.1316871984
H   H15       1.0  0.00580  0.54750  0.20130  1.0000 0.1316871984
H   H16       1.0  0.99420  0.45250  0.70130  1.0000 0.1316871984
H   H17       1.0  0.41700  0.30180  0.98830  1.0000 0.0833137433
H   H18       1.0  0.58300  0.69820  0.48830  1.0000 0.0833137433
H   H19       1.0  0.69820  0.41700  0.73830  1.0000 0.0833137433
H   H20       1.0  0.30180  0.58300  0.23830  1.0000 0.0833137433
H   H21       1.0  0.43670  0.18820  0.06450  1.0000 0.0833137433
H   H22       1.0  0.56330  0.81180  0.56450  1.0000 0.0833137433
H   H23       1.0  0.81180  0.43670  0.81450  1.0000 0.0833137433
H   H24       1.0  0.18820  0.56330  0.31450  1.0000 0.0833137433
H   H25       1.0  0.57900  0.36130  0.09590  1.0000 0.1417433979
H   H26       1.0  0.42100  0.63870  0.59590  1.0000 0.1417433979
H   H27       1.0  0.63870  0.57900  0.84590  1.0000 0.1417433979
H   H28       1.0  0.36130  0.42100  0.34590  1.0000 0.1417433979
H   H29       1.0  0.48160  0.34150  0.18320  1.0000 0.1417433979
H   H30       1.0  0.51840  0.65850  0.68320  1.0000 0.1417433979
H   H31       1.0  0.65850  0.48160  0.93320  1.0000 0.1417433979
H   H32       1.0  0.34150  0.51840  0.43320  1.0000 0.1417433979
H   H33       1.0  0.45810  0.45630  0.10880  1.0000 0.1316871984
H   H34       1.0  0.54190  0.54370  0.60880  1.0000 0.1316871984
H   H35       1.0  0.54370  0.45810  0.85880  1.0000 0.1316871984
H   H36       1.0  0.45630  0.54190  0.35880  1.0000 0.1316871984
C   C1        1.0  0.79820  0.96180  0.47810  1.0000 0.5989113251
C   C2        1.0  0.20180  0.03820  0.97810  1.0000 0.5989113251
C   C3        1.0  0.03820  0.79820  0.22810  1.0000 0.5989113251
C   C4        1.0  0.96180  0.20180  0.72810  1.0000 0.5989113251
C   C5        1.0  0.72670  0.99810  0.39050  1.0000 -0.0263370595
C   C6        1.0  0.27330  0.00190  0.89050  1.0000 -0.0263370595
C   C7        1.0  0.00190  0.72670  0.14050  1.0000 -0.0263370595
C   C8        1.0  0.99810  0.27330  0.64050  1.0000 -0.0263370595
C   C9        1.0  0.79320  0.01880  0.30510  1.0000 -0.1079838773
C   C10       1.0  0.20680  0.98120  0.80510  1.0000 -0.1079838773
C   C11       1.0  0.98120  0.79320  0.05510  1.0000 -0.1079838773
C   C12       1.0  0.01880  0.20680  0.55510  1.0000 -0.1079838773
C   C13       1.0  0.72500  0.05460  0.22400  1.0000 -0.0226423716
C   C14       1.0  0.27500  0.94540  0.72400  1.0000 -0.0226423716
C   C15       1.0  0.94540  0.72500  0.97400  1.0000 -0.0226423716
C   C16       1.0  0.05460  0.27500  0.47400  1.0000 -0.0226423716
C   C17       1.0  0.59240  0.07020  0.22710  1.0000 -0.1079838773
C   C18       1.0  0.40760  0.92980  0.72710  1.0000 -0.1079838773
C   C19       1.0  0.92980  0.59240  0.97710  1.0000 -0.1079838773
C   C20       1.0  0.07020  0.40760  0.47710  1.0000 -0.1079838773
C   C21       1.0  0.52550  0.04660  0.31170  1.0000 -0.0263370595
C   C22       1.0  0.47450  0.95340  0.81170  1.0000 -0.0263370595
C   C23       1.0  0.95340  0.52550  0.06170  1.0000 -0.0263370595
C   C24       1.0  0.04660  0.47450  0.56170  1.0000 -0.0263370595
C   C25       1.0  0.59290  0.01040  0.39370  1.0000 -0.104354692
C   C26       1.0  0.40710  0.98960  0.89370  1.0000 -0.104354692
C   C27       1.0  0.98960  0.59290  0.14370  1.0000 -0.104354692
C   C28       1.0  0.01040  0.40710  0.64370  1.0000 -0.104354692
C   C29       1.0  0.79910  0.07670  0.13330  1.0000 0.6315828959
C   C30       1.0  0.20090  0.92330  0.63330  1.0000 0.6315828959
C   C31       1.0  0.92330  0.79910  0.88330  1.0000 0.6315828959
C   C32       1.0  0.07670  0.20090  0.38330  1.0000 0.6315828959
C   C33       1.0  0.37910  0.04630  0.30990  1.0000 0.6415889064
C   C34       1.0  0.62090  0.95370  0.80990  1.0000 0.6415889064
C   C35       1.0  0.95370  0.37910  0.05990  1.0000 0.6415889064
C   C36       1.0  0.04630  0.62090  0.55990  1.0000 0.6415889064
C   C37       1.0  0.40710  0.27850  0.05620  1.0000 0.0676463196
C   C38       1.0  0.59290  0.72150  0.55620  1.0000 0.0676463196
C   C39       1.0  0.72150  0.40710  0.80620  1.0000 0.0676463196
C   C40       1.0  0.27850  0.59290  0.30620  1.0000 0.0676463196
C   C41       1.0  0.48860  0.36710  0.11620  1.0000 -0.4285218914
C   C42       1.0  0.51140  0.63290  0.61620  1.0000 -0.4285218914
C   C43       1.0  0.63290  0.48860  0.86620  1.0000 -0.4285218914
C   C44       1.0  0.36710  0.51140  0.36620  1.0000 -0.4285218914
O   O1        1.0  0.74780  0.99320  0.55870  1.0000 -0.6349323591
O   O2        1.0  0.25220  0.00680  0.05870  1.0000 -0.6349323591
O   O3        1.0  0.00680  0.74780  0.30870  1.0000 -0.6349323591
O   O4        1.0  0.99320  0.25220  0.80870  1.0000 -0.6349323591
O   O5        1.0  0.90420  0.89820  0.47686  1.0000 -0.7120674451
O   O6        1.0  0.09580  0.10180  0.97686  1.0000 -0.7120674451
O   O7        1.0  0.10180  0.90420  0.22686  1.0000 -0.7120674451
O   O8        1.0  0.89820  0.09580  0.72686  1.0000 -0.7120674451
O   O9        1.0  0.92020  0.07220  0.13527  1.0000 -0.6917553743
O   O10       1.0  0.07980  0.92780  0.63527  1.0000 -0.6917553743
O   O11       1.0  0.92780  0.92020  0.88527  1.0000 -0.6917553743
O   O12       1.0  0.07220  0.07980  0.38527  1.0000 -0.6917553743
O   O13       1.0  0.73780  0.09430  0.05769  1.0000 -0.6078466972
O   O14       1.0  0.26220  0.90570  0.55769  1.0000 -0.6078466972
O   O15       1.0  0.90570  0.73780  0.80769  1.0000 -0.6078466972
O   O16       1.0  0.09430  0.26220  0.30769  1.0000 -0.6078466972
O   O17       1.0  0.32330  0.10910  0.24486  1.0000 -0.6594181856
O   O18       1.0  0.67670  0.89090  0.74486  1.0000 -0.6594181856
O   O19       1.0  0.89090  0.32330  0.99486  1.0000 -0.6594181856
O   O20       1.0  0.10910  0.67670  0.49486  1.0000 -0.6594181856
O   O21       1.0  0.32470  0.98160  0.37432  1.0000 -0.6594181856
O   O22       1.0  0.67530  0.01840  0.87432  1.0000 -0.6594181856
O   O23       1.0  0.01840  0.32470  0.12432  1.0000 -0.6594181856
O   O24       1.0  0.98160  0.67530  0.62432  1.0000 -0.6594181856
O   O25       1.0  0.27130  0.28870  0.08340  1.0000 -0.5284525057
O   O26       1.0  0.72870  0.71130  0.58340  1.0000 -0.5284525057
O   O27       1.0  0.71130  0.27130  0.83340  1.0000 -0.5284525057
O   O28       1.0  0.28870  0.72870  0.33340  1.0000 -0.5284525057
