# DDEC6 charges by PACMAN v1.1 (https://github.com/mtap-research/PACMAN-charge/)
data_2011[Cu][nbo]3[FSR]3
_chemical_formula_sum              "Cu3 H48 C54 N6 O12"
_cell_length_a       15.5967
_cell_length_b       15.5967
_cell_length_c       15.5967
_cell_angle_alpha    117.319
_cell_angle_beta     117.319
_cell_angle_gamma    117.319

_symmetry_space_group_name_H-M    "P 1"
_symmetry_Int_Tables_number       1

loop_
  _symmetry_equiv_pos_as_xyz
  'x, y, z'

loop_
  _atom_site_type_symbol
  _atom_site_label
  _atom_site_symmetry_multiplicity
  _atom_site_fract_x
  _atom_site_fract_y
  _atom_site_fract_z
  _atom_site_occupancy
  _atom_site_charge
Cu  Cu1       1.0  0.50000  1.00000  0.50000  1.0000 0.7899514137
Cu  Cu2       1.0  1.00000  0.50000  0.50000  1.0000 0.7899514137
Cu  Cu3       1.0  0.50000  0.50000  0.00000  1.0000 0.7899514137
H   H1        1.0  0.86199  0.54070  0.81820  1.0000 0.1541953656
H   H2        1.0  0.54070  0.81820  0.86199  1.0000 0.1541953656
H   H3        1.0  0.81820  0.86199  0.54070  1.0000 0.1541953656
H   H4        1.0  0.13801  0.45930  0.18180  1.0000 0.1541953656
H   H5        1.0  0.45930  0.18180  0.13801  1.0000 0.1541953656
H   H6        1.0  0.18180  0.13801  0.45930  1.0000 0.1541953656
H   H7        1.0  0.77879  0.47810  0.65890  1.0000 0.1541953656
H   H8        1.0  0.47810  0.65890  0.77879  1.0000 0.1541953656
H   H9        1.0  0.65890  0.77879  0.47810  1.0000 0.1541953656
H   H10       1.0  0.22121  0.52190  0.34110  1.0000 0.1541953656
H   H11       1.0  0.52190  0.34110  0.22121  1.0000 0.1541953656
H   H12       1.0  0.34110  0.22121  0.52190  1.0000 0.1541953656
H   H13       1.0  0.68239  0.44740  0.67800  1.0000 0.1581795636
H   H14       1.0  0.44740  0.67800  0.68239  1.0000 0.1581795636
H   H15       1.0  0.67800  0.68239  0.44740  1.0000 0.1581795636
H   H16       1.0  0.31761  0.55260  0.32200  1.0000 0.1581795636
H   H17       1.0  0.55260  0.32200  0.31761  1.0000 0.1581795636
H   H18       1.0  0.32200  0.31761  0.55260  1.0000 0.1581795636
H   H19       1.0  0.60809  0.21080  0.40870  1.0000 0.1581795636
H   H20       1.0  0.21080  0.40870  0.60809  1.0000 0.1581795636
H   H21       1.0  0.40870  0.60809  0.21080  1.0000 0.1581795636
H   H22       1.0  0.39191  0.78920  0.59130  1.0000 0.1581795636
H   H23       1.0  0.78920  0.59130  0.39191  1.0000 0.1581795636
H   H24       1.0  0.59130  0.39191  0.78920  1.0000 0.1581795636
H   H25       1.0  0.14009  0.62030  0.95610  1.0000 0.1305028695
H   H26       1.0  0.62030  0.95610  0.14009  1.0000 0.1305028695
H   H27       1.0  0.95610  0.14009  0.62030  1.0000 0.1305028695
H   H28       1.0  0.85991  0.37970  0.04390  1.0000 0.1305028695
H   H29       1.0  0.37970  0.04390  0.85991  1.0000 0.1305028695
H   H30       1.0  0.04390  0.85991  0.37970  1.0000 0.1305028695
H   H31       1.0  0.98389  0.45240  0.68530  1.0000 0.1088742066
H   H32       1.0  0.45240  0.68530  0.98389  1.0000 0.1088742066
H   H33       1.0  0.68530  0.98389  0.45240  1.0000 0.1088742066
H   H34       1.0  0.01611  0.54760  0.31470  1.0000 0.1088742066
H   H35       1.0  0.54760  0.31470  0.01611  1.0000 0.1088742066
H   H36       1.0  0.31470  0.01611  0.54760  1.0000 0.1088742066
H   H37       1.0  0.35629  0.88710  0.91560  1.0000 0.1088742066
H   H38       1.0  0.88710  0.91560  0.35629  1.0000 0.1088742066
H   H39       1.0  0.91560  0.35629  0.88710  1.0000 0.1088742066
H   H40       1.0  0.64371  0.11290  0.08440  1.0000 0.1088742066
H   H41       1.0  0.11290  0.08440  0.64371  1.0000 0.1088742066
H   H42       1.0  0.08440  0.64371  0.11290  1.0000 0.1088742066
H   H43       1.0  0.52699  0.06990  0.19480  1.0000 0.1421157915
H   H44       1.0  0.06990  0.19480  0.52699  1.0000 0.1421157915
H   H45       1.0  0.19480  0.52699  0.06990  1.0000 0.1421157915
H   H46       1.0  0.47301  0.93010  0.80520  1.0000 0.1421157915
H   H47       1.0  0.93010  0.80520  0.47301  1.0000 0.1421157915
H   H48       1.0  0.80520  0.47301  0.93010  1.0000 0.1421157915
C   C1        1.0  0.75079  0.44970  0.69310  1.0000 -0.5189688108
C   C2        1.0  0.44970  0.69310  0.75079  1.0000 -0.5189688108
C   C3        1.0  0.69310  0.75079  0.44970  1.0000 -0.5189688108
C   C4        1.0  0.24921  0.55030  0.30690  1.0000 -0.5189688108
C   C5        1.0  0.55030  0.30690  0.24921  1.0000 -0.5189688108
C   C6        1.0  0.30690  0.24921  0.55030  1.0000 -0.5189688108
C   C7        1.0  0.64009  0.26621  0.57389  1.0000 0.4897801378
C   C8        1.0  0.26621  0.57389  0.64009  1.0000 0.4897801378
C   C9        1.0  0.57389  0.64009  0.26621  1.0000 0.4897801378
C   C10       1.0  0.35991  0.73379  0.42611  1.0000 0.4897801378
C   C11       1.0  0.73379  0.42611  0.35991  1.0000 0.4897801378
C   C12       1.0  0.42611  0.35991  0.73379  1.0000 0.4897801378
C   C13       1.0  0.56936  0.15755  0.42028  1.0000 -0.4843972426
C   C14       1.0  0.15755  0.42028  0.56936  1.0000 -0.4843972426
C   C15       1.0  0.42028  0.56936  0.15755  1.0000 -0.4843972426
C   C16       1.0  0.43064  0.84245  0.57972  1.0000 -0.4843972426
C   C17       1.0  0.84245  0.57972  0.43064  1.0000 -0.4843972426
C   C18       1.0  0.57972  0.43064  0.84245  1.0000 -0.4843972426
C   C19       1.0  0.44593  0.97678  0.28348  1.0000 0.3590449789
C   C20       1.0  0.97678  0.28348  0.44593  1.0000 0.3590449789
C   C21       1.0  0.28348  0.44593  0.97678  1.0000 0.3590449789
C   C22       1.0  0.55407  0.02322  0.71652  1.0000 0.3590449789
C   C23       1.0  0.02322  0.71652  0.55407  1.0000 0.3590449789
C   C24       1.0  0.71652  0.55407  0.02322  1.0000 0.3590449789
C   C25       1.0  0.35177  0.86774  0.10928  1.0000 0.0568856142
C   C26       1.0  0.86774  0.10928  0.35177  1.0000 0.0568856142
C   C27       1.0  0.10928  0.35177  0.86774  1.0000 0.0568856142
C   C28       1.0  0.64823  0.13226  0.89072  1.0000 0.0568856142
C   C29       1.0  0.13226  0.89072  0.64823  1.0000 0.0568856142
C   C30       1.0  0.89072  0.64823  0.13226  1.0000 0.0568856142
C   C31       1.0  0.18684  0.67848  0.95137  1.0000 -0.1707978027
C   C32       1.0  0.67848  0.95137  0.18684  1.0000 -0.1707978027
C   C33       1.0  0.95137  0.18684  0.67848  1.0000 -0.1707978027
C   C34       1.0  0.81316  0.32152  0.04863  1.0000 -0.1707978027
C   C35       1.0  0.32152  0.04863  0.81316  1.0000 -0.1707978027
C   C36       1.0  0.04863  0.81316  0.32152  1.0000 -0.1707978027
C   C37       1.0  0.09379  0.57850  0.78890  1.0000 0.0718222464
C   C38       1.0  0.57850  0.78890  0.09379  1.0000 0.0718222464
C   C39       1.0  0.78890  0.09379  0.57850  1.0000 0.0718222464
C   C40       1.0  0.90621  0.42150  0.21110  1.0000 0.0718222464
C   C41       1.0  0.42150  0.21110  0.90621  1.0000 0.0718222464
C   C42       1.0  0.21110  0.90621  0.42150  1.0000 0.0718222464
C   C43       1.0  0.31179  0.83265  0.92395  1.0000 0.0718222464
C   C44       1.0  0.83265  0.92395  0.31179  1.0000 0.0718222464
C   C45       1.0  0.92395  0.31179  0.83265  1.0000 0.0718222464
C   C46       1.0  0.68821  0.16735  0.07605  1.0000 0.0718222464
C   C47       1.0  0.16735  0.07605  0.68821  1.0000 0.0718222464
C   C48       1.0  0.07605  0.68821  0.16735  1.0000 0.0718222464
C   C49       1.0  0.41549  0.94437  0.09283  1.0000 -0.1833546958
C   C50       1.0  0.94437  0.09283  0.41549  1.0000 -0.1833546958
C   C51       1.0  0.09283  0.41549  0.94437  1.0000 -0.1833546958
C   C52       1.0  0.58451  0.05563  0.90717  1.0000 -0.1833546958
C   C53       1.0  0.05563  0.90717  0.58451  1.0000 -0.1833546958
C   C54       1.0  0.90717  0.58451  0.05563  1.0000 -0.1833546958
N   N1        1.0  0.15168  0.65163  0.77098  1.0000 -0.2663885257
N   N2        1.0  0.65163  0.77098  0.15168  1.0000 -0.2663885257
N   N3        1.0  0.77098  0.15168  0.65163  1.0000 -0.2663885257
N   N4        1.0  0.84832  0.34837  0.22902  1.0000 -0.2663885257
N   N5        1.0  0.34837  0.22902  0.84832  1.0000 -0.2663885257
N   N6        1.0  0.22902  0.84832  0.34837  1.0000 -0.2663885257
O   O1        1.0  0.61805  0.22270  0.62054  1.0000 -0.4677703929
O   O2        1.0  0.22270  0.62054  0.61805  1.0000 -0.4677703929
O   O3        1.0  0.62054  0.61805  0.22270  1.0000 -0.4677703929
O   O4        1.0  0.38195  0.77730  0.37946  1.0000 -0.4677703929
O   O5        1.0  0.77730  0.37946  0.38195  1.0000 -0.4677703929
O   O6        1.0  0.37946  0.38195  0.77730  1.0000 -0.4677703929
O   O7        1.0  0.39734  0.89081  0.28874  1.0000 -0.4677703929
O   O8        1.0  0.89081  0.28874  0.39734  1.0000 -0.4677703929
O   O9        1.0  0.28874  0.39734  0.89081  1.0000 -0.4677703929
O   O10       1.0  0.60266  0.10919  0.71126  1.0000 -0.4677703929
O   O11       1.0  0.10919  0.71126  0.60266  1.0000 -0.4677703929
O   O12       1.0  0.71126  0.60266  0.10919  1.0000 -0.4677703929
