# DDEC6 charges by PACMAN v1.1 (https://github.com/mtap-research/PACMAN-charge/)
data_2012[Ce][nan]3[FSR]1
_chemical_formula_sum              "Ce6 P8 C16 O66"
_cell_length_a       15.9315
_cell_length_b       15.9315
_cell_length_c       15.9315
_cell_angle_alpha    139.237
_cell_angle_beta     130.255
_cell_angle_gamma    66.1962

_symmetry_space_group_name_H-M    "P 1"
_symmetry_Int_Tables_number       1

loop_
  _symmetry_equiv_pos_as_xyz
  'x, y, z'

loop_
  _atom_site_type_symbol
  _atom_site_label
  _atom_site_symmetry_multiplicity
  _atom_site_fract_x
  _atom_site_fract_y
  _atom_site_fract_z
  _atom_site_occupancy
  _atom_site_charge
Ce  Ce1       1.0  0.00000  0.00180  0.00180  1.0000 1.9445184027
Ce  Ce2       1.0  0.00000  0.50180  0.50180  1.0000 1.9445184027
Ce  Ce3       1.0  0.92860  0.52840  0.90100  1.0000 2.0963410293
Ce  Ce4       1.0  0.62740  0.02840  0.09980  1.0000 2.0963410293
Ce  Ce5       1.0  0.37260  0.47240  0.40100  1.0000 2.0963410293
Ce  Ce6       1.0  0.07140  0.97240  0.59980  1.0000 2.0963410293
P   P1        1.0  0.11720  0.97970  0.27390  1.0000 1.3015834545
P   P2        1.0  0.70580  0.47970  0.36250  1.0000 1.3015834545
P   P3        1.0  0.29420  0.65670  0.77390  1.0000 1.3015834545
P   P4        1.0  0.88280  0.15670  0.86250  1.0000 1.3015834545
P   P5        1.0  0.99950  0.22260  0.61790  1.0000 1.3523404752
P   P6        1.0  0.60470  0.72260  0.72310  1.0000 1.3523404752
P   P7        1.0  0.39530  0.11840  0.11790  1.0000 1.3523404752
P   P8        1.0  0.00050  0.61840  0.22310  1.0000 1.3523404752
C   C1        1.0  0.96280  0.78550  0.96670  1.0000 0.6727225338
C   C2        1.0  0.81880  0.28550  0.32270  1.0000 0.6727225338
C   C3        1.0  0.18120  0.50390  0.46670  1.0000 0.6727225338
C   C4        1.0  0.03720  0.00390  0.82270  1.0000 0.6727225338
C   C5        1.0  0.98330  0.87630  0.12360  1.0000 -0.0120775266
C   C6        1.0  0.75270  0.37630  0.39300  1.0000 -0.0120775266
C   C7        1.0  0.24730  0.64030  0.62360  1.0000 -0.0174696497
C   C8        1.0  0.01670  0.14030  0.89300  1.0000 -0.0174696497
C   C9        1.0  0.86950  0.12040  0.43070  1.0000 -0.1407065685
C   C10       1.0  0.68970  0.62040  0.75090  1.0000 -0.1407065685
C   C11       1.0  0.31030  0.06120  0.93070  1.0000 -0.1407065685
C   C12       1.0  0.13050  0.56120  0.25090  1.0000 -0.1407065685
C   C13       1.0  0.83930  0.97450  0.29660  1.0000 0.6456620549
C   C14       1.0  0.67790  0.47450  0.63520  1.0000 0.6443751608
C   C15       1.0  0.32210  0.95730  0.79660  1.0000 0.6456620549
C   C16       1.0  0.16070  0.45730  0.13520  1.0000 0.6443751608
O   O1        1.0  0.10780  0.06520  0.25520  1.0000 -0.7395430501
O   O2        1.0  0.81000  0.56520  0.45740  1.0000 -0.7395430501
O   O3        1.0  0.19000  0.64740  0.75520  1.0000 -0.7395430501
O   O4        1.0  0.89220  0.14740  0.95740  1.0000 -0.7395430501
O   O5        1.0  0.03460  0.80380  0.96740  1.0000 -0.5524536367
O   O6        1.0  0.83640  0.30380  0.26920  1.0000 -0.5524536367
O   O7        1.0  0.16360  0.43280  0.46740  1.0000 -0.5524536367
O   O8        1.0  0.96540  0.93280  0.76920  1.0000 -0.5524536367
O   O9        1.0  0.12270  0.19230  0.17160  1.0000 -0.2651827778
O   O10       1.0  0.02070  0.69230  0.56960  1.0000 -0.2623460239
O   O11       1.0  0.97930  0.54890  0.67160  1.0000 -0.2623460239
O   O12       1.0  0.87730  0.04890  0.06960  1.0000 -0.2623460239
O   O13       1.0  0.18460  0.96180  0.98880  1.0000 0.1418821965
O   O14       1.0  0.97300  0.46180  0.27720  1.0000 0.1534770583
O   O15       1.0  0.02700  0.30420  0.48880  1.0000 0.1418821965
O   O16       1.0  0.81540  0.80420  0.77720  1.0000 0.1418821965
O   O17       1.0  0.14500  0.06460  0.43440  1.0000 -0.3983762557
O   O18       1.0  0.63020  0.56460  0.41960  1.0000 -0.3983762557
O   O19       1.0  0.36980  0.78940  0.93440  1.0000 -0.3983762557
O   O20       1.0  0.85500  0.28940  0.91960  1.0000 -0.3983762557
O   O21       1.0  0.20510  0.89160  0.24970  1.0000 -0.5598605569
O   O22       1.0  0.64190  0.39160  0.18650  1.0000 -0.5598605569
O   O23       1.0  0.35810  0.54460  0.74970  1.0000 -0.5598605569
O   O24       1.0  0.79490  0.04460  0.68650  1.0000 -0.5598605569
O   O25       1.0  0.92550  0.66650  0.87120  1.0000 -0.5081647332
O   O26       1.0  0.79530  0.16650  0.24100  1.0000 -0.5081647332
O   O27       1.0  0.20470  0.44570  0.37120  1.0000 -0.5081647332
O   O28       1.0  0.07450  0.94570  0.74100  1.0000 -0.5081647332
O   O29       1.0  0.98080  0.80270  0.14030  1.0000 -0.1818214501
O   O30       1.0  0.66240  0.30270  0.32190  1.0000 -0.1818214501
O   O31       1.0  0.33760  0.65950  0.64030  1.0000 -0.1818214501
O   O32       1.0  0.01920  0.15950  0.82190  1.0000 -0.1818214501
O   O33       1.0  0.98360  0.36660  0.71960  1.0000 -0.6938162888
O   O34       1.0  0.64700  0.86660  0.88300  1.0000 -0.6938162888
O   O35       1.0  0.35300  0.23600  0.21960  1.0000 -0.6938162888
O   O36       1.0  0.01640  0.73600  0.38300  1.0000 -0.6938162888
O   O37       1.0  0.87670  0.33540  0.81090  1.0000 -0.3103693868
O   O38       1.0  0.52450  0.83540  0.95870  1.0000 -0.3013431574
O   O39       1.0  0.47550  0.43420  0.31090  1.0000 -0.3013431574
O   O40       1.0  0.12330  0.93420  0.45870  1.0000 -0.3013431574
O   O41       1.0  0.14060  0.58940  0.04720  1.0000 -0.2911429592
O   O42       1.0  0.54220  0.08940  0.94880  1.0000 -0.3013431574
O   O43       1.0  0.45780  0.40660  0.54720  1.0000 -0.2911429592
O   O44       1.0  0.85940  0.90660  0.44880  1.0000 -0.2911429592
O   O45       1.0  0.04250  0.18660  0.70510  1.0000 -0.7114143814
O   O46       1.0  0.48150  0.68660  0.64410  1.0000 -0.7114143814
O   O47       1.0  0.51850  0.16260  0.20510  1.0000 -0.7114143814
O   O48       1.0  0.95750  0.66260  0.14410  1.0000 -0.7114143814
O   O49       1.0  0.78200  0.19030  0.42490  1.0000 -0.2911429592
O   O50       1.0  0.76540  0.69030  0.90830  1.0000 -0.2911429592
O   O51       1.0  0.23460  0.14290  0.92490  1.0000 -0.2911429592
O   O52       1.0  0.21800  0.64290  0.40830  1.0000 -0.2911429592
O   O53       1.0  0.91270  0.91160  0.32690  1.0000 -0.416563801
O   O54       1.0  0.58470  0.41160  0.49890  1.0000 -0.416563801
O   O55       1.0  0.41530  0.91420  0.82690  1.0000 -0.416563801
O   O56       1.0  0.08730  0.41420  0.99890  1.0000 -0.416563801
O   O57       1.0  0.78840  0.91930  0.15750  1.0000 -0.4875856484
O   O58       1.0  0.76180  0.41930  0.63090  1.0000 -0.4875856484
O   O59       1.0  0.23820  0.86910  0.65750  1.0000 -0.4875856484
O   O60       1.0  0.21160  0.36910  0.13090  1.0000 -0.4875856484
O   O61       1.0  0.08900  0.19870  0.59370  1.0000 -0.4733298864
O   O62       1.0  0.60500  0.69870  0.60970  1.0000 -0.4759864057
O   O63       1.0  0.39500  0.00470  0.09370  1.0000 -0.4733298864
O   O64       1.0  0.91100  0.50470  0.10970  1.0000 -0.4733298864
O   O65       1.0  0.00000  0.77980  0.77980  1.0000 -0.3165822173
O   O66       1.0  0.00000  0.27980  0.27980  1.0000 -0.3013431574
