# DDEC6 charges by PACMAN v1.1 (https://github.com/mtap-research/PACMAN-charge/)
data_2012[Cd][dia]3[FSR]3
_chemical_formula_sum              "Cd4 H28 C48 Br8 N8 O18"
_cell_length_a       11.7089
_cell_length_b       11.7089
_cell_length_c       14.7332
_cell_angle_alpha    70.8357
_cell_angle_beta     109.164
_cell_angle_gamma    81.5847

_symmetry_space_group_name_H-M    "P 1"
_symmetry_Int_Tables_number       1

loop_
  _symmetry_equiv_pos_as_xyz
  'x, y, z'

loop_
  _atom_site_type_symbol
  _atom_site_label
  _atom_site_symmetry_multiplicity
  _atom_site_fract_x
  _atom_site_fract_y
  _atom_site_fract_z
  _atom_site_occupancy
  _atom_site_charge
Cd  Cd1       1.0  0.02408  0.21966  0.78750  1.0000 0.9033191042
Cd  Cd2       1.0  0.21966  0.02408  0.71250  1.0000 0.9033191042
Cd  Cd3       1.0  0.97592  0.78034  0.21250  1.0000 0.9033191042
Cd  Cd4       1.0  0.78034  0.97592  0.28750  1.0000 0.9033191042
H   H1        1.0  0.25790  0.19190  0.80670  1.0000 0.3803766506
H   H2        1.0  0.19190  0.25790  0.69330  1.0000 0.3803766506
H   H3        1.0  0.74210  0.80810  0.19330  1.0000 0.3803766506
H   H4        1.0  0.80810  0.74210  0.30670  1.0000 0.3803766506
H   H5        1.0  0.04450  0.87910  0.01930  1.0000 0.1140306355
H   H6        1.0  0.87910  0.04450  0.48070  1.0000 0.1140306355
H   H7        1.0  0.95550  0.12090  0.98070  1.0000 0.1140306355
H   H8        1.0  0.12090  0.95550  0.51930  1.0000 0.1140306355
H   H9        1.0  0.41410  0.80670  0.08780  1.0000 0.1481795447
H   H10       1.0  0.80670  0.41410  0.41220  1.0000 0.1481795447
H   H11       1.0  0.58590  0.19330  0.91220  1.0000 0.1481795447
H   H12       1.0  0.19330  0.58590  0.58780  1.0000 0.1481795447
H   H13       1.0  0.28270  0.70490  0.31210  1.0000 0.1193509641
H   H14       1.0  0.70490  0.28270  0.18790  1.0000 0.1193509641
H   H15       1.0  0.71730  0.29510  0.68790  1.0000 0.1193509641
H   H16       1.0  0.29510  0.71730  0.81210  1.0000 0.1193509641
H   H17       1.0  0.51980  0.09100  0.09170  1.0000 0.1193509641
H   H18       1.0  0.09100  0.51980  0.40830  1.0000 0.1193509641
H   H19       1.0  0.48020  0.90900  0.90830  1.0000 0.1193509641
H   H20       1.0  0.90900  0.48020  0.59170  1.0000 0.1193509641
H   H21       1.0  0.21360  0.09120  0.15560  1.0000 0.1398451464
H   H22       1.0  0.09120  0.21360  0.34440  1.0000 0.1398451464
H   H23       1.0  0.78640  0.90880  0.84440  1.0000 0.1398451464
H   H24       1.0  0.90880  0.78640  0.65560  1.0000 0.1398451464
H   H25       1.0  0.56020  0.95460  0.38410  1.0000 0.1193509641
H   H26       1.0  0.95460  0.56020  0.11590  1.0000 0.1193509641
H   H27       1.0  0.43980  0.04540  0.61590  1.0000 0.1193509641
H   H28       1.0  0.04540  0.43980  0.88410  1.0000 0.1193509641
C   C1        1.0  0.12730  0.84470  0.06890  1.0000 0.0465597178
C   C2        1.0  0.84470  0.12730  0.43110  1.0000 0.0465597178
C   C3        1.0  0.87270  0.15530  0.93110  1.0000 0.0465597178
C   C4        1.0  0.15530  0.87270  0.56890  1.0000 0.0465597178
C   C5        1.0  0.22340  0.85380  0.03460  1.0000 -0.0377658668
C   C6        1.0  0.85380  0.22340  0.46540  1.0000 -0.0377658668
C   C7        1.0  0.77660  0.14620  0.96540  1.0000 -0.0377658668
C   C8        1.0  0.14620  0.77660  0.53460  1.0000 -0.0377658668
C   C9        1.0  0.34700  0.80400  0.10820  1.0000 -0.1093203857
C   C10       1.0  0.80400  0.34700  0.39180  1.0000 -0.1093203857
C   C11       1.0  0.65300  0.19600  0.89180  1.0000 -0.1093203857
C   C12       1.0  0.19600  0.65300  0.60820  1.0000 -0.1093203857
C   C13       1.0  0.36770  0.74990  0.21320  1.0000 0.0465597178
C   C14       1.0  0.74990  0.36770  0.28680  1.0000 0.0465597178
C   C15       1.0  0.63230  0.25010  0.78680  1.0000 0.0465597178
C   C16       1.0  0.25010  0.63230  0.71320  1.0000 0.0465597178
C   C17       1.0  0.26720  0.74280  0.24140  1.0000 0.0067400821
C   C18       1.0  0.74280  0.26720  0.25860  1.0000 0.0067400821
C   C19       1.0  0.73280  0.25720  0.75860  1.0000 0.0067400821
C   C20       1.0  0.25720  0.73280  0.74140  1.0000 0.0067400821
C   C21       1.0  0.18930  0.92550  0.91890  1.0000 0.5704052882
C   C22       1.0  0.92550  0.18930  0.58110  1.0000 0.5704052882
C   C23       1.0  0.81070  0.07450  0.08110  1.0000 0.5704052882
C   C24       1.0  0.07450  0.81070  0.41890  1.0000 0.5704052882
C   C25       1.0  0.48420  0.07280  0.14070  1.0000 0.0555548618
C   C26       1.0  0.07280  0.48420  0.35930  1.0000 0.0555548618
C   C27       1.0  0.51580  0.92720  0.85930  1.0000 0.0555548618
C   C28       1.0  0.92720  0.51580  0.64070  1.0000 0.0555548618
C   C29       1.0  0.35390  0.10330  0.10490  1.0000 -0.0457935942
C   C30       1.0  0.10330  0.35390  0.39510  1.0000 -0.0457935942
C   C31       1.0  0.64610  0.89670  0.89510  1.0000 -0.0457935942
C   C32       1.0  0.89670  0.64610  0.60490  1.0000 -0.0457935942
C   C33       1.0  0.30060  0.07420  0.17690  1.0000 -0.1093203857
C   C34       1.0  0.07420  0.30060  0.32310  1.0000 -0.1093203857
C   C35       1.0  0.69940  0.92580  0.82310  1.0000 -0.1093203857
C   C36       1.0  0.92580  0.69940  0.67690  1.0000 -0.1093203857
C   C37       1.0  0.38030  0.01890  0.28130  1.0000 0.0465597178
C   C38       1.0  0.01890  0.38030  0.21870  1.0000 0.0465597178
C   C39       1.0  0.61970  0.98110  0.71870  1.0000 0.0465597178
C   C40       1.0  0.98110  0.61970  0.78130  1.0000 0.0465597178
C   C41       1.0  0.50860  0.99200  0.31280  1.0000 0.0067400821
C   C42       1.0  0.99200  0.50860  0.18720  1.0000 0.0067400821
C   C43       1.0  0.49140  0.00800  0.68720  1.0000 0.0067400821
C   C44       1.0  0.00800  0.49140  0.81280  1.0000 0.0067400821
C   C45       1.0  0.27720  0.16280  0.98790  1.0000 0.5611405807
C   C46       1.0  0.16280  0.27720  0.51210  1.0000 0.5611405807
C   C47       1.0  0.72280  0.83720  0.01210  1.0000 0.5611405807
C   C48       1.0  0.83720  0.72280  0.48790  1.0000 0.5611405807
Br  Br1       1.0  0.53263  0.68795  0.31857  1.0000 -0.0377658668
Br  Br2       1.0  0.68795  0.53263  0.18143  1.0000 -0.0377658668
Br  Br3       1.0  0.46737  0.31205  0.68143  1.0000 -0.0377658668
Br  Br4       1.0  0.31205  0.46737  0.81857  1.0000 -0.0377658668
Br  Br5       1.0  0.31354  0.97612  0.38533  1.0000 -0.0377658668
Br  Br6       1.0  0.97612  0.31354  0.11467  1.0000 -0.0377658668
Br  Br7       1.0  0.68646  0.02388  0.61467  1.0000 -0.0377658668
Br  Br8       1.0  0.02388  0.68646  0.88533  1.0000 -0.0377658668
N   N1        1.0  0.14760  0.78880  0.17010  1.0000 -0.2114564044
N   N2        1.0  0.78880  0.14760  0.32990  1.0000 -0.2114564044
N   N3        1.0  0.85240  0.21120  0.82990  1.0000 -0.2114564044
N   N4        1.0  0.21120  0.85240  0.67010  1.0000 -0.2114564044
N   N5        1.0  0.56100  0.01840  0.24270  1.0000 -0.2329849018
N   N6        1.0  0.01840  0.56100  0.25730  1.0000 -0.2329849018
N   N7        1.0  0.43900  0.98160  0.75730  1.0000 -0.2329849018
N   N8        1.0  0.98160  0.43900  0.74270  1.0000 -0.2329849018
O   O1        1.0  0.08209  0.00229  0.86710  1.0000 -0.5554224415
O   O2        1.0  0.00229  0.08209  0.63290  1.0000 -0.5554224415
O   O3        1.0  0.91791  0.99771  0.13290  1.0000 -0.5554224415
O   O4        1.0  0.99771  0.91791  0.36710  1.0000 -0.5554224415
O   O5        1.0  0.27068  0.90228  0.88460  1.0000 -0.5460667102
O   O6        1.0  0.90228  0.27068  0.61540  1.0000 -0.5460667102
O   O7        1.0  0.72932  0.09772  0.11540  1.0000 -0.5460667102
O   O8        1.0  0.09772  0.72932  0.38460  1.0000 -0.5460667102
O   O9        1.0  0.33850  0.18010  0.93160  1.0000 -0.5460667102
O   O10       1.0  0.18010  0.33850  0.56840  1.0000 -0.5460667102
O   O11       1.0  0.66150  0.81990  0.06840  1.0000 -0.5460667102
O   O12       1.0  0.81990  0.66150  0.43160  1.0000 -0.5460667102
O   O13       1.0  0.15935  0.18855  0.95660  1.0000 -0.5655556483
O   O14       1.0  0.18855  0.15935  0.54340  1.0000 -0.5655556483
O   O15       1.0  0.84065  0.81145  0.04340  1.0000 -0.5655556483
O   O16       1.0  0.81145  0.84065  0.45660  1.0000 -0.5655556483
O   O17       1.0  0.20000  0.20000  0.75000  1.0000 -0.6975584788
O   O18       1.0  0.80000  0.80000  0.25000  1.0000 -0.6975584788
