# DDEC6 charges by PACMAN v1.1 (https://github.com/mtap-research/PACMAN-charge/)
data_2012[In][dia]3[FSR]1
_chemical_formula_sum              "In2 H8 C24 N8 O16"
_cell_length_a       10.1149
_cell_length_b       10.1149
_cell_length_c       11.467
_cell_angle_alpha    81.0796
_cell_angle_beta     98.9204
_cell_angle_gamma    64.7217

_symmetry_space_group_name_H-M    "P 1"
_symmetry_Int_Tables_number       1

loop_
  _symmetry_equiv_pos_as_xyz
  'x, y, z'

loop_
  _atom_site_type_symbol
  _atom_site_label
  _atom_site_symmetry_multiplicity
  _atom_site_fract_x
  _atom_site_fract_y
  _atom_site_fract_z
  _atom_site_occupancy
  _atom_site_charge
In  In1       1.0  0.63697  0.63697  0.25000  1.0000 1.1910527754
In  In2       1.0  0.36303  0.36303  0.75000  1.0000 1.1910527754
H   H1        1.0  0.78620  0.58140  0.56800  1.0000 0.142408799
H   H2        1.0  0.58140  0.78620  0.93200  1.0000 0.142408799
H   H3        1.0  0.21380  0.41860  0.43200  1.0000 0.142408799
H   H4        1.0  0.41860  0.21380  0.06800  1.0000 0.142408799
H   H5        1.0  0.75390  0.41630  0.05770  1.0000 0.1684241701
H   H6        1.0  0.41630  0.75390  0.44230  1.0000 0.1684241701
H   H7        1.0  0.24610  0.58370  0.94230  1.0000 0.1684241701
H   H8        1.0  0.58370  0.24610  0.55770  1.0000 0.1684241701
C   C1        1.0  0.87250  0.54870  0.53860  1.0000 0.0692211395
C   C2        1.0  0.54870  0.87250  0.96140  1.0000 0.0692211395
C   C3        1.0  0.12750  0.45130  0.46140  1.0000 0.0692211395
C   C4        1.0  0.45130  0.12750  0.03860  1.0000 0.0692211395
C   C5        1.0  0.65010  0.45110  0.03510  1.0000 0.0879990492
C   C6        1.0  0.45110  0.65010  0.46490  1.0000 0.0879990492
C   C7        1.0  0.34990  0.54890  0.96490  1.0000 0.0879990492
C   C8        1.0  0.54890  0.34990  0.53510  1.0000 0.0879990492
C   C9        1.0  0.58890  0.39370  0.95060  1.0000 0.0692211395
C   C10       1.0  0.39370  0.58890  0.54940  1.0000 0.0692211395
C   C11       1.0  0.41110  0.60630  0.04940  1.0000 0.0692211395
C   C12       1.0  0.60630  0.41110  0.45060  1.0000 0.0692211395
C   C13       1.0  0.98670  0.51350  0.38040  1.0000 0.0809636987
C   C14       1.0  0.51350  0.98670  0.11960  1.0000 0.0809636987
C   C15       1.0  0.01330  0.48650  0.61960  1.0000 0.0809636987
C   C16       1.0  0.48650  0.01330  0.88040  1.0000 0.0809636987
C   C17       1.0  0.96820  0.53400  0.24390  1.0000 0.5457417179
C   C18       1.0  0.53400  0.96820  0.25610  1.0000 0.5457417179
C   C19       1.0  0.03180  0.46600  0.75610  1.0000 0.5457417179
C   C20       1.0  0.46600  0.03180  0.74390  1.0000 0.5457417179
C   C21       1.0  0.68450  0.27750  0.89100  1.0000 0.5330225635
C   C22       1.0  0.27750  0.68450  0.60900  1.0000 0.5330225635
C   C23       1.0  0.31550  0.72250  0.10900  1.0000 0.5330225635
C   C24       1.0  0.72250  0.31550  0.39100  1.0000 0.5330225635
N   N1        1.0  0.85930  0.56210  0.41910  1.0000 -0.1932548549
N   N2        1.0  0.56210  0.85930  0.08090  1.0000 -0.1932548549
N   N3        1.0  0.14070  0.43790  0.58090  1.0000 -0.1932548549
N   N4        1.0  0.43790  0.14070  0.91910  1.0000 -0.1932548549
N   N5        1.0  0.55927  0.55607  0.08350  1.0000 -0.1968065802
N   N6        1.0  0.55607  0.55927  0.41650  1.0000 -0.1968065802
N   N7        1.0  0.44073  0.44393  0.91650  1.0000 -0.1968065802
N   N8        1.0  0.44393  0.44073  0.58350  1.0000 -0.1968065802
O   O1        1.0  0.83348  0.59128  0.17860  1.0000 -0.5078610968
O   O2        1.0  0.59128  0.83348  0.32140  1.0000 -0.5078610968
O   O3        1.0  0.16652  0.40872  0.82140  1.0000 -0.5078610968
O   O4        1.0  0.40872  0.16652  0.67860  1.0000 -0.5078610968
O   O5        1.0  0.08060  0.49840  0.20460  1.0000 -0.4430960224
O   O6        1.0  0.49840  0.08060  0.29540  1.0000 -0.4430960224
O   O7        1.0  0.91940  0.50160  0.79540  1.0000 -0.4453079891
O   O8        1.0  0.50160  0.91940  0.70460  1.0000 -0.4430960224
O   O9        1.0  0.61411  0.25011  0.80540  1.0000 -0.5078610968
O   O10       1.0  0.25011  0.61411  0.69460  1.0000 -0.5078610968
O   O11       1.0  0.38589  0.74989  0.19460  1.0000 -0.5078610968
O   O12       1.0  0.74989  0.38589  0.30540  1.0000 -0.5078610968
O   O13       1.0  0.82330  0.21650  0.93130  1.0000 -0.4430960224
O   O14       1.0  0.21650  0.82330  0.56870  1.0000 -0.4430960224
O   O15       1.0  0.17670  0.78350  0.06870  1.0000 -0.4430960224
O   O16       1.0  0.78350  0.17670  0.43130  1.0000 -0.4430960224
