# DDEC6 charges by PACMAN v1.1 (https://github.com/mtap-research/PACMAN-charge/)
data_2012[Zn][nan]3[FSR]2
_chemical_formula_sum              "Zn8 H96 C156 N4 O28"
_cell_length_a       11.9887
_cell_length_b       17.9807
_cell_length_c       18.6365
_cell_angle_alpha    90
_cell_angle_beta     90
_cell_angle_gamma    90

_symmetry_space_group_name_H-M    "P 1"
_symmetry_Int_Tables_number       1

loop_
  _symmetry_equiv_pos_as_xyz
  'x, y, z'

loop_
  _atom_site_type_symbol
  _atom_site_label
  _atom_site_symmetry_multiplicity
  _atom_site_fract_x
  _atom_site_fract_y
  _atom_site_fract_z
  _atom_site_occupancy
  _atom_site_charge
Zn  Zn1       1.0  0.38961  0.19758  0.00897  1.0000 0.9166803194
Zn  Zn2       1.0  0.11039  0.19758  0.99103  1.0000 0.9166803194
Zn  Zn3       1.0  0.61039  0.30242  0.00897  1.0000 0.9166803194
Zn  Zn4       1.0  0.88961  0.30242  0.99103  1.0000 0.9166803194
Zn  Zn5       1.0  0.61039  0.80242  0.99103  1.0000 0.9166803194
Zn  Zn6       1.0  0.88961  0.80242  0.00897  1.0000 0.9166803194
Zn  Zn7       1.0  0.38961  0.69758  0.99103  1.0000 0.9166803194
Zn  Zn8       1.0  0.11039  0.69758  0.00897  1.0000 0.9166803194
H   H1        1.0  0.87400  0.74330  0.79270  1.0000 0.1275878908
H   H2        1.0  0.62600  0.74330  0.20730  1.0000 0.1275878908
H   H3        1.0  0.12600  0.75670  0.79270  1.0000 0.1275878908
H   H4        1.0  0.37400  0.75670  0.20730  1.0000 0.1275878908
H   H5        1.0  0.12600  0.25670  0.20730  1.0000 0.1275878908
H   H6        1.0  0.37400  0.25670  0.79270  1.0000 0.1275878908
H   H7        1.0  0.87400  0.24330  0.20730  1.0000 0.1275878908
H   H8        1.0  0.62600  0.24330  0.79270  1.0000 0.1275878908
H   H9        1.0  0.55050  0.01030  0.92260  1.0000 0.1275878908
H   H10       1.0  0.94950  0.01030  0.07740  1.0000 0.1275878908
H   H11       1.0  0.44950  0.48970  0.92260  1.0000 0.1275878908
H   H12       1.0  0.05050  0.48970  0.07740  1.0000 0.1275878908
H   H13       1.0  0.44950  0.98970  0.07740  1.0000 0.1275878908
H   H14       1.0  0.05050  0.98970  0.92260  1.0000 0.1275878908
H   H15       1.0  0.55050  0.51030  0.07740  1.0000 0.1275878908
H   H16       1.0  0.94950  0.51030  0.92260  1.0000 0.1275878908
H   H17       1.0  0.88340  0.82960  0.23540  1.0000 0.1195510794
H   H18       1.0  0.61660  0.82960  0.76460  1.0000 0.1195510794
H   H19       1.0  0.11660  0.67040  0.23540  1.0000 0.1195510794
H   H20       1.0  0.38340  0.67040  0.76460  1.0000 0.1195510794
H   H21       1.0  0.11660  0.17040  0.76460  1.0000 0.1195510794
H   H22       1.0  0.38340  0.17040  0.23540  1.0000 0.1195510794
H   H23       1.0  0.88340  0.32960  0.76460  1.0000 0.1195510794
H   H24       1.0  0.61660  0.32960  0.23540  1.0000 0.1195510794
H   H25       1.0  0.64910  0.92030  0.86160  1.0000 0.1195510794
H   H26       1.0  0.85090  0.92030  0.13840  1.0000 0.1195510794
H   H27       1.0  0.35090  0.57970  0.86160  1.0000 0.1195510794
H   H28       1.0  0.14910  0.57970  0.13840  1.0000 0.1195510794
H   H29       1.0  0.35090  0.07970  0.13840  1.0000 0.1195510794
H   H30       1.0  0.14910  0.07970  0.86160  1.0000 0.1195510794
H   H31       1.0  0.64910  0.42030  0.13840  1.0000 0.1195510794
H   H32       1.0  0.85090  0.42030  0.86160  1.0000 0.1195510794
H   H33       1.0  0.88610  0.83070  0.35850  1.0000 0.1121318663
H   H34       1.0  0.61390  0.83070  0.64150  1.0000 0.1121318663
H   H35       1.0  0.11390  0.66930  0.35850  1.0000 0.1121318663
H   H36       1.0  0.38610  0.66930  0.64150  1.0000 0.1121318663
H   H37       1.0  0.11390  0.16930  0.64150  1.0000 0.1121318663
H   H38       1.0  0.38610  0.16930  0.35850  1.0000 0.1121318663
H   H39       1.0  0.88610  0.33070  0.64150  1.0000 0.1121318663
H   H40       1.0  0.61390  0.33070  0.35850  1.0000 0.1121318663
H   H41       1.0  0.85470  0.80380  0.59010  1.0000 0.1195510794
H   H42       1.0  0.64530  0.80380  0.40990  1.0000 0.1195510794
H   H43       1.0  0.14530  0.69620  0.59010  1.0000 0.1195510794
H   H44       1.0  0.35470  0.69620  0.40990  1.0000 0.1195510794
H   H45       1.0  0.14530  0.19620  0.40990  1.0000 0.1195510794
H   H46       1.0  0.35470  0.19620  0.59010  1.0000 0.1195510794
H   H47       1.0  0.85470  0.30380  0.40990  1.0000 0.1195510794
H   H48       1.0  0.64530  0.30380  0.59010  1.0000 0.1195510794
H   H49       1.0  0.89650  0.06510  0.82640  1.0000 0.1121318663
H   H50       1.0  0.60350  0.06510  0.17360  1.0000 0.1121318663
H   H51       1.0  0.10350  0.43490  0.82640  1.0000 0.1121318663
H   H52       1.0  0.39650  0.43490  0.17360  1.0000 0.1121318663
H   H53       1.0  0.10350  0.93490  0.17360  1.0000 0.1121318663
H   H54       1.0  0.39650  0.93490  0.82640  1.0000 0.1121318663
H   H55       1.0  0.89650  0.56510  0.17360  1.0000 0.1121318663
H   H56       1.0  0.60350  0.56510  0.82640  1.0000 0.1121318663
H   H57       1.0  0.79580  0.15520  0.88470  1.0000 0.1195510794
H   H58       1.0  0.70420  0.15520  0.11530  1.0000 0.1195510794
H   H59       1.0  0.20420  0.34480  0.88470  1.0000 0.1195510794
H   H60       1.0  0.29580  0.34480  0.11530  1.0000 0.1195510794
H   H61       1.0  0.20420  0.84480  0.11530  1.0000 0.1195510794
H   H62       1.0  0.29580  0.84480  0.88470  1.0000 0.1195510794
H   H63       1.0  0.79580  0.65520  0.11530  1.0000 0.1195510794
H   H64       1.0  0.70420  0.65520  0.88470  1.0000 0.1195510794
H   H65       1.0  0.79030  0.83700  0.85690  1.0000 0.1275878908
H   H66       1.0  0.70970  0.83700  0.14310  1.0000 0.1275878908
H   H67       1.0  0.20970  0.66300  0.85690  1.0000 0.1275878908
H   H68       1.0  0.29030  0.66300  0.14310  1.0000 0.1275878908
H   H69       1.0  0.20970  0.16300  0.14310  1.0000 0.1275878908
H   H70       1.0  0.29030  0.16300  0.85690  1.0000 0.1275878908
H   H71       1.0  0.79030  0.33700  0.14310  1.0000 0.1275878908
H   H72       1.0  0.70970  0.33700  0.85690  1.0000 0.1275878908
H   H73       1.0  0.85810  0.80550  0.46760  1.0000 0.1121318663
H   H74       1.0  0.64190  0.80550  0.53240  1.0000 0.1121318663
H   H75       1.0  0.14190  0.69450  0.46760  1.0000 0.1121318663
H   H76       1.0  0.35810  0.69450  0.53240  1.0000 0.1121318663
H   H77       1.0  0.14190  0.19450  0.53240  1.0000 0.1121318663
H   H78       1.0  0.35810  0.19450  0.46760  1.0000 0.1121318663
H   H79       1.0  0.85810  0.30550  0.53240  1.0000 0.1121318663
H   H80       1.0  0.64190  0.30550  0.46760  1.0000 0.1121318663
H   H81       1.0  0.00860  0.89360  0.66090  1.0000 0.1275878908
H   H82       1.0  0.49140  0.89360  0.33910  1.0000 0.1275878908
H   H83       1.0  0.99140  0.60640  0.66090  1.0000 0.1275878908
H   H84       1.0  0.50860  0.60640  0.33910  1.0000 0.1275878908
H   H85       1.0  0.99140  0.10640  0.33910  1.0000 0.1275878908
H   H86       1.0  0.50860  0.10640  0.66090  1.0000 0.1275878908
H   H87       1.0  0.00860  0.39360  0.33910  1.0000 0.1275878908
H   H88       1.0  0.49140  0.39360  0.66090  1.0000 0.1275878908
H   H89       1.0  0.92550  0.98850  0.72620  1.0000 0.1121318663
H   H90       1.0  0.57450  0.98850  0.27380  1.0000 0.1121318663
H   H91       1.0  0.07450  0.51150  0.72620  1.0000 0.1121318663
H   H92       1.0  0.42550  0.51150  0.27380  1.0000 0.1121318663
H   H93       1.0  0.07450  0.01150  0.27380  1.0000 0.1121318663
H   H94       1.0  0.42550  0.01150  0.72620  1.0000 0.1121318663
H   H95       1.0  0.92550  0.48850  0.27380  1.0000 0.1121318663
H   H96       1.0  0.57450  0.48850  0.72620  1.0000 0.1121318663
C   C1        1.0  0.59850  0.15070  0.94760  1.0000 0.5872086194
C   C2        1.0  0.90150  0.15070  0.05240  1.0000 0.5872086194
C   C3        1.0  0.40150  0.34930  0.94760  1.0000 0.5872086194
C   C4        1.0  0.09850  0.34930  0.05240  1.0000 0.5872086194
C   C5        1.0  0.40150  0.84930  0.05240  1.0000 0.5872086194
C   C6        1.0  0.09850  0.84930  0.94760  1.0000 0.5872086194
C   C7        1.0  0.59850  0.65070  0.05240  1.0000 0.5872086194
C   C8        1.0  0.90150  0.65070  0.94760  1.0000 0.5872086194
C   C9        1.0  0.66270  0.09230  0.91000  1.0000 -0.0394670161
C   C10       1.0  0.83730  0.09230  0.09000  1.0000 -0.0394670161
C   C11       1.0  0.33730  0.40770  0.91000  1.0000 -0.0394670161
C   C12       1.0  0.16270  0.40770  0.09000  1.0000 -0.0394670161
C   C13       1.0  0.33730  0.90770  0.09000  1.0000 -0.0394670161
C   C14       1.0  0.16270  0.90770  0.91000  1.0000 -0.0394670161
C   C15       1.0  0.66270  0.59230  0.09000  1.0000 -0.0394670161
C   C16       1.0  0.83730  0.59230  0.91000  1.0000 -0.0394670161
C   C17       1.0  0.88370  0.79250  0.77860  1.0000 -0.1694427821
C   C18       1.0  0.61630  0.79250  0.22140  1.0000 -0.1694427821
C   C19       1.0  0.11630  0.70750  0.77860  1.0000 -0.1694427821
C   C20       1.0  0.38370  0.70750  0.22140  1.0000 -0.1694427821
C   C21       1.0  0.11630  0.20750  0.22140  1.0000 -0.1694427821
C   C22       1.0  0.38370  0.20750  0.77860  1.0000 -0.1694427821
C   C23       1.0  0.88370  0.29250  0.22140  1.0000 -0.1694427821
C   C24       1.0  0.61630  0.29250  0.77860  1.0000 -0.1694427821
C   C25       1.0  0.94810  0.80850  0.71960  1.0000 0.1691514478
C   C26       1.0  0.55190  0.80850  0.28040  1.0000 0.1691514478
C   C27       1.0  0.05190  0.69150  0.71960  1.0000 0.1691514478
C   C28       1.0  0.44810  0.69150  0.28040  1.0000 0.1691514478
C   C29       1.0  0.05190  0.19150  0.28040  1.0000 0.1691514478
C   C30       1.0  0.44810  0.19150  0.71960  1.0000 0.1691514478
C   C31       1.0  0.94810  0.30850  0.28040  1.0000 0.1691514478
C   C32       1.0  0.55190  0.30850  0.71960  1.0000 0.1691514478
C   C33       1.0  0.61970  0.02170  0.90290  1.0000 -0.0819298252
C   C34       1.0  0.88030  0.02170  0.09710  1.0000 -0.0819298252
C   C35       1.0  0.38030  0.47830  0.90290  1.0000 -0.0819298252
C   C36       1.0  0.11970  0.47830  0.09710  1.0000 -0.0819298252
C   C37       1.0  0.38030  0.97830  0.09710  1.0000 -0.0819298252
C   C38       1.0  0.11970  0.97830  0.90290  1.0000 -0.0819298252
C   C39       1.0  0.61970  0.52170  0.09710  1.0000 -0.0819298252
C   C40       1.0  0.88030  0.52170  0.90290  1.0000 -0.0819298252
C   C41       1.0  0.93090  0.79750  0.25990  1.0000 -0.0970005625
C   C42       1.0  0.56910  0.79750  0.74010  1.0000 -0.0970005625
C   C43       1.0  0.06910  0.70250  0.25990  1.0000 -0.0970005625
C   C44       1.0  0.43090  0.70250  0.74010  1.0000 -0.0970005625
C   C45       1.0  0.06910  0.20250  0.74010  1.0000 -0.0970005625
C   C46       1.0  0.43090  0.20250  0.25990  1.0000 -0.0970005625
C   C47       1.0  0.93090  0.29750  0.74010  1.0000 -0.0970005625
C   C48       1.0  0.56910  0.29750  0.25990  1.0000 -0.0970005625
C   C49       1.0  0.00000  0.75000  0.60420  1.0000 0.1790805665
C   C50       1.0  0.50000  0.75000  0.39580  1.0000 0.1790805665
C   C51       1.0  0.00000  0.25000  0.39580  1.0000 0.1790805665
C   C52       1.0  0.50000  0.25000  0.60420  1.0000 0.1790805665
C   C53       1.0  0.67950  0.96760  0.86640  1.0000 -0.1227757352
C   C54       1.0  0.82050  0.96760  0.13360  1.0000 -0.1227757352
C   C55       1.0  0.32050  0.53240  0.86640  1.0000 -0.1227757352
C   C56       1.0  0.17950  0.53240  0.13360  1.0000 -0.1227757352
C   C57       1.0  0.32050  0.03240  0.13360  1.0000 -0.1227757352
C   C58       1.0  0.17950  0.03240  0.86640  1.0000 -0.1227757352
C   C59       1.0  0.67950  0.46760  0.13360  1.0000 -0.1227757352
C   C60       1.0  0.82050  0.46760  0.86640  1.0000 -0.1227757352
C   C61       1.0  0.00000  0.75000  0.37320  1.0000 0.0816918743
C   C62       1.0  0.50000  0.75000  0.62680  1.0000 0.0816918743
C   C63       1.0  0.00000  0.25000  0.62680  1.0000 0.0816918743
C   C64       1.0  0.50000  0.25000  0.37320  1.0000 0.0816918743
C   C65       1.0  0.00000  0.75000  0.14130  1.0000 0.5872086194
C   C66       1.0  0.50000  0.75000  0.85870  1.0000 0.5872086194
C   C67       1.0  0.00000  0.25000  0.85870  1.0000 0.5872086194
C   C68       1.0  0.50000  0.25000  0.14130  1.0000 0.5872086194
C   C69       1.0  0.00000  0.75000  0.45290  1.0000 0.0483213198
C   C70       1.0  0.50000  0.75000  0.54710  1.0000 0.0483213198
C   C71       1.0  0.00000  0.25000  0.54710  1.0000 0.0483213198
C   C72       1.0  0.50000  0.25000  0.45290  1.0000 0.0483213198
C   C73       1.0  0.78360  0.98230  0.83670  1.0000 0.0816918743
C   C74       1.0  0.71640  0.98230  0.16330  1.0000 0.0816918743
C   C75       1.0  0.21640  0.51770  0.83670  1.0000 0.0816918743
C   C76       1.0  0.28360  0.51770  0.16330  1.0000 0.0816918743
C   C77       1.0  0.21640  0.01770  0.16330  1.0000 0.0816918743
C   C78       1.0  0.28360  0.01770  0.83670  1.0000 0.0816918743
C   C79       1.0  0.78360  0.48230  0.16330  1.0000 0.0816918743
C   C80       1.0  0.71640  0.48230  0.83670  1.0000 0.0816918743
C   C81       1.0  0.84500  0.92330  0.79780  1.0000 0.0564937127
C   C82       1.0  0.65500  0.92330  0.20220  1.0000 0.0564937127
C   C83       1.0  0.15500  0.57670  0.79780  1.0000 0.0564937127
C   C84       1.0  0.34500  0.57670  0.20220  1.0000 0.0564937127
C   C85       1.0  0.15500  0.07670  0.20220  1.0000 0.0564937127
C   C86       1.0  0.34500  0.07670  0.79780  1.0000 0.0564937127
C   C87       1.0  0.84500  0.42330  0.20220  1.0000 0.0564937127
C   C88       1.0  0.65500  0.42330  0.79780  1.0000 0.0564937127
C   C89       1.0  0.93210  0.79770  0.33410  1.0000 -0.1565265301
C   C90       1.0  0.56790  0.79770  0.66590  1.0000 -0.1565265301
C   C91       1.0  0.06790  0.70230  0.33410  1.0000 -0.1565265301
C   C92       1.0  0.43210  0.70230  0.66590  1.0000 -0.1565265301
C   C93       1.0  0.06790  0.20230  0.66590  1.0000 -0.1565265301
C   C94       1.0  0.43210  0.20230  0.33410  1.0000 -0.1565265301
C   C95       1.0  0.93210  0.29770  0.66590  1.0000 -0.1565265301
C   C96       1.0  0.56790  0.29770  0.33410  1.0000 -0.1565265301
C   C97       1.0  0.91420  0.78210  0.56590  1.0000 -0.1811541206
C   C98       1.0  0.58580  0.78210  0.43410  1.0000 -0.1811541206
C   C99       1.0  0.08580  0.71790  0.56590  1.0000 -0.1811541206
C   C100      1.0  0.41420  0.71790  0.43410  1.0000 -0.1811541206
C   C101      1.0  0.08580  0.21790  0.43410  1.0000 -0.1811541206
C   C102      1.0  0.41420  0.21790  0.56590  1.0000 -0.1811541206
C   C103      1.0  0.91420  0.28210  0.43410  1.0000 -0.1811541206
C   C104      1.0  0.58580  0.28210  0.56590  1.0000 -0.1811541206
C   C105      1.0  0.82660  0.05370  0.84500  1.0000 -0.1403256747
C   C106      1.0  0.67340  0.05370  0.15500  1.0000 -0.1403256747
C   C107      1.0  0.17340  0.44630  0.84500  1.0000 -0.1403256747
C   C108      1.0  0.32660  0.44630  0.15500  1.0000 -0.1403256747
C   C109      1.0  0.17340  0.94630  0.15500  1.0000 -0.1403256747
C   C110      1.0  0.32660  0.94630  0.84500  1.0000 -0.1403256747
C   C111      1.0  0.82660  0.55370  0.15500  1.0000 -0.1403256747
C   C112      1.0  0.67340  0.55370  0.84500  1.0000 -0.1403256747
C   C113      1.0  0.00000  0.75000  0.22180  1.0000 -0.032416759
C   C114      1.0  0.50000  0.75000  0.77820  1.0000 -0.032416759
C   C115      1.0  0.00000  0.25000  0.77820  1.0000 -0.032416759
C   C116      1.0  0.50000  0.25000  0.22180  1.0000 -0.032416759
C   C117      1.0  0.76630  0.10750  0.88040  1.0000 -0.0917054283
C   C118      1.0  0.73370  0.10750  0.11960  1.0000 -0.0917054283
C   C119      1.0  0.23370  0.39250  0.88040  1.0000 -0.0917054283
C   C120      1.0  0.26630  0.39250  0.11960  1.0000 -0.0917054283
C   C121      1.0  0.23370  0.89250  0.11960  1.0000 -0.0917054283
C   C122      1.0  0.26630  0.89250  0.88040  1.0000 -0.0917054283
C   C123      1.0  0.76630  0.60750  0.11960  1.0000 -0.0917054283
C   C124      1.0  0.73370  0.60750  0.88040  1.0000 -0.0917054283
C   C125      1.0  0.83330  0.84900  0.81700  1.0000 -0.1055055651
C   C126      1.0  0.66667  0.84900  0.18300  1.0000 -0.1055055651
C   C127      1.0  0.16670  0.65100  0.81700  1.0000 -0.1055055651
C   C128      1.0  0.33333  0.65100  0.18300  1.0000 -0.1055055651
C   C129      1.0  0.16670  0.15100  0.18300  1.0000 -0.1055055651
C   C130      1.0  0.33333  0.15100  0.81700  1.0000 -0.1055055651
C   C131      1.0  0.83330  0.34900  0.18300  1.0000 -0.1055055651
C   C132      1.0  0.66667  0.34900  0.81700  1.0000 -0.1055055651
C   C133      1.0  0.91620  0.78240  0.49210  1.0000 -0.1323745911
C   C134      1.0  0.58380  0.78240  0.50790  1.0000 -0.1323745911
C   C135      1.0  0.08380  0.71760  0.49210  1.0000 -0.1323745911
C   C136      1.0  0.41620  0.71760  0.50790  1.0000 -0.1323745911
C   C137      1.0  0.08380  0.21760  0.50790  1.0000 -0.1323745911
C   C138      1.0  0.41620  0.21760  0.49210  1.0000 -0.1323745911
C   C139      1.0  0.91620  0.28240  0.50790  1.0000 -0.1323745911
C   C140      1.0  0.58380  0.28240  0.49210  1.0000 -0.1323745911
C   C141      1.0  0.96400  0.88210  0.70020  1.0000 -0.1895057962
C   C142      1.0  0.53600  0.88210  0.29980  1.0000 -0.1895057962
C   C143      1.0  0.03600  0.61790  0.70020  1.0000 -0.1895057962
C   C144      1.0  0.46400  0.61790  0.29980  1.0000 -0.1895057962
C   C145      1.0  0.03600  0.11790  0.29980  1.0000 -0.1895057962
C   C146      1.0  0.46400  0.11790  0.70020  1.0000 -0.1895057962
C   C147      1.0  0.96400  0.38210  0.29980  1.0000 -0.1895057962
C   C148      1.0  0.53600  0.38210  0.70020  1.0000 -0.1895057962
C   C149      1.0  0.91340  0.93920  0.73930  1.0000 -0.1323745911
C   C150      1.0  0.58660  0.93920  0.26070  1.0000 -0.1323745911
C   C151      1.0  0.08660  0.56080  0.73930  1.0000 -0.1323745911
C   C152      1.0  0.41340  0.56080  0.26070  1.0000 -0.1323745911
C   C153      1.0  0.08660  0.06080  0.26070  1.0000 -0.1323745911
C   C154      1.0  0.41340  0.06080  0.73930  1.0000 -0.1323745911
C   C155      1.0  0.91340  0.43920  0.26070  1.0000 -0.1323745911
C   C156      1.0  0.58660  0.43920  0.73930  1.0000 -0.1323745911
N   N1        1.0  0.00000  0.75000  0.68040  1.0000 -0.1895057962
N   N2        1.0  0.50000  0.75000  0.31960  1.0000 -0.1895057962
N   N3        1.0  0.00000  0.25000  0.31960  1.0000 -0.1895057962
N   N4        1.0  0.50000  0.25000  0.68040  1.0000 -0.1895057962
O   O1        1.0  0.25000  0.14680  0.00000  1.0000 -0.7239961716
O   O2        1.0  0.75000  0.35320  0.00000  1.0000 -0.7305495831
O   O3        1.0  0.75000  0.85320  0.00000  1.0000 -0.7305495831
O   O4        1.0  0.25000  0.64680  0.00000  1.0000 -0.7239961716
O   O5        1.0  0.50520  0.13231  0.97342  1.0000 -0.5199793595
O   O6        1.0  0.99480  0.13231  0.02658  1.0000 -0.5199793595
O   O7        1.0  0.49480  0.36769  0.97342  1.0000 -0.5199793595
O   O8        1.0  0.00520  0.36769  0.02658  1.0000 -0.5199793595
O   O9        1.0  0.49480  0.86769  0.02658  1.0000 -0.5199793595
O   O10       1.0  0.00520  0.86769  0.97342  1.0000 -0.5199793595
O   O11       1.0  0.50520  0.63231  0.02658  1.0000 -0.5199793595
O   O12       1.0  0.99480  0.63231  0.97342  1.0000 -0.5199793595
O   O13       1.0  0.92230  0.78368  0.11050  1.0000 -0.5260262283
O   O14       1.0  0.57770  0.78368  0.88950  1.0000 -0.5260262283
O   O15       1.0  0.07770  0.71632  0.11050  1.0000 -0.5260262283
O   O16       1.0  0.42230  0.71632  0.88950  1.0000 -0.5260262283
O   O17       1.0  0.07770  0.21632  0.88950  1.0000 -0.5260262283
O   O18       1.0  0.42230  0.21632  0.11050  1.0000 -0.5260262283
O   O19       1.0  0.92230  0.28368  0.88950  1.0000 -0.5260262283
O   O20       1.0  0.57770  0.28368  0.11050  1.0000 -0.5260262283
O   O21       1.0  0.64020  0.21458  0.95100  1.0000 -0.5357689875
O   O22       1.0  0.85980  0.21458  0.04900  1.0000 -0.5357689875
O   O23       1.0  0.35980  0.28542  0.95100  1.0000 -0.5357689875
O   O24       1.0  0.14020  0.28542  0.04900  1.0000 -0.5357689875
O   O25       1.0  0.35980  0.78542  0.04900  1.0000 -0.5357689875
O   O26       1.0  0.14020  0.78542  0.95100  1.0000 -0.5357689875
O   O27       1.0  0.64020  0.71458  0.04900  1.0000 -0.5357689875
O   O28       1.0  0.85980  0.71458  0.95100  1.0000 -0.5357689875
