# DDEC6 charges by PACMAN v1.1 (https://github.com/mtap-research/PACMAN-charge/)
data_2012[Sm][nan]3[FSR]5
_chemical_formula_sum              "Sm8 H80 C160 O88"
_cell_length_a       24.003
_cell_length_b       11.365
_cell_length_c       38.2153
_cell_angle_alpha    90
_cell_angle_beta     121.379
_cell_angle_gamma    90

_symmetry_space_group_name_H-M    "P 1"
_symmetry_Int_Tables_number       1

loop_
  _symmetry_equiv_pos_as_xyz
  'x, y, z'

loop_
  _atom_site_type_symbol
  _atom_site_label
  _atom_site_symmetry_multiplicity
  _atom_site_fract_x
  _atom_site_fract_y
  _atom_site_fract_z
  _atom_site_occupancy
  _atom_site_charge
Sm  Sm1       1.0  0.21519  0.75991  0.62728  1.0000 2.1154063299
Sm  Sm2       1.0  0.78481  0.25991  0.87272  1.0000 2.1154063299
Sm  Sm3       1.0  0.78481  0.24009  0.37272  1.0000 2.1154063299
Sm  Sm4       1.0  0.21519  0.74009  0.12728  1.0000 2.1154063299
Sm  Sm5       1.0  0.27001  0.26873  0.39846  1.0000 2.096428807
Sm  Sm6       1.0  0.72999  0.76873  0.10154  1.0000 2.096428807
Sm  Sm7       1.0  0.72999  0.73127  0.60154  1.0000 2.096428807
Sm  Sm8       1.0  0.27001  0.23127  0.89846  1.0000 2.096428807
H   H1        1.0  0.15140  0.64480  0.73130  1.0000 0.1394673289
H   H2        1.0  0.84860  0.14480  0.76870  1.0000 0.1394673289
H   H3        1.0  0.84860  0.35520  0.26870  1.0000 0.1394673289
H   H4        1.0  0.15140  0.85520  0.23130  1.0000 0.1394673289
H   H5        1.0  0.28560  0.43690  0.72940  1.0000 0.1394673289
H   H6        1.0  0.71440  0.93690  0.77060  1.0000 0.1394673289
H   H7        1.0  0.71440  0.56310  0.27060  1.0000 0.1394673289
H   H8        1.0  0.28560  0.06310  0.22940  1.0000 0.1394673289
H   H9        1.0  0.04550  0.65360  0.48290  1.0000 0.1394673289
H   H10       1.0  0.95450  0.15360  0.01710  1.0000 0.1394673289
H   H11       1.0  0.95450  0.34640  0.51710  1.0000 0.1394673289
H   H12       1.0  0.04550  0.84640  0.98290  1.0000 0.1394673289
H   H13       1.0  0.04890  0.43320  0.56680  1.0000 0.1485069535
H   H14       1.0  0.95110  0.93320  0.93320  1.0000 0.1485069535
H   H15       1.0  0.95110  0.56680  0.43320  1.0000 0.1485069535
H   H16       1.0  0.04890  0.06680  0.06680  1.0000 0.1485069535
H   H17       1.0  0.07610  0.84730  0.52530  1.0000 0.1235417032
H   H18       1.0  0.92390  0.34730  0.97470  1.0000 0.1235417032
H   H19       1.0  0.92390  0.15270  0.47470  1.0000 0.1235417032
H   H20       1.0  0.07610  0.65270  0.02530  1.0000 0.1235417032
H   H21       1.0  0.99160  0.12610  0.54460  1.0000 0.1322639415
H   H22       1.0  0.00840  0.62610  0.95540  1.0000 0.1322639415
H   H23       1.0  0.00840  0.87390  0.45540  1.0000 0.1322639415
H   H24       1.0  0.99160  0.37390  0.04460  1.0000 0.1322639415
H   H25       1.0  0.18710  0.88460  0.52740  1.0000 0.1322639415
H   H26       1.0  0.81290  0.38460  0.97260  1.0000 0.1322639415
H   H27       1.0  0.81290  0.11540  0.47260  1.0000 0.1322639415
H   H28       1.0  0.18710  0.61540  0.02740  1.0000 0.1322639415
H   H29       1.0  0.14170  0.93270  0.46010  1.0000 0.1394673289
H   H30       1.0  0.85830  0.43270  0.03990  1.0000 0.1394673289
H   H31       1.0  0.85830  0.06730  0.53990  1.0000 0.1394673289
H   H32       1.0  0.14170  0.56730  0.96010  1.0000 0.1394673289
H   H33       1.0  0.26730  0.20050  0.49090  1.0000 0.1322639415
H   H34       1.0  0.73270  0.70050  0.00910  1.0000 0.1322639415
H   H35       1.0  0.73270  0.79950  0.50910  1.0000 0.1322639415
H   H36       1.0  0.26730  0.29950  0.99090  1.0000 0.1322639415
H   H37       1.0  0.31620  0.14950  0.55940  1.0000 0.1394673289
H   H38       1.0  0.68380  0.64950  0.94060  1.0000 0.1394673289
H   H39       1.0  0.68380  0.85050  0.44060  1.0000 0.1394673289
H   H40       1.0  0.31620  0.35050  0.05940  1.0000 0.1394673289
H   H41       1.0  0.37970  0.44700  0.58930  1.0000 0.1394673289
H   H42       1.0  0.62030  0.94700  0.91070  1.0000 0.1394673289
H   H43       1.0  0.62030  0.55300  0.41070  1.0000 0.1394673289
H   H44       1.0  0.37970  0.05300  0.08930  1.0000 0.1394673289
H   H45       1.0  0.34000  0.39340  0.52170  1.0000 0.1322639415
H   H46       1.0  0.66000  0.89340  0.97830  1.0000 0.1322639415
H   H47       1.0  0.66000  0.60660  0.47830  1.0000 0.1322639415
H   H48       1.0  0.34000  0.10660  0.02170  1.0000 0.1322639415
H   H49       1.0  0.22220  0.67820  0.48390  1.0000 0.1322639415
H   H50       1.0  0.77780  0.17820  0.01610  1.0000 0.1322639415
H   H51       1.0  0.77780  0.32180  0.51610  1.0000 0.1322639415
H   H52       1.0  0.22220  0.82180  0.98390  1.0000 0.1322639415
H   H53       1.0  0.25960  0.72560  0.55160  1.0000 0.1235417032
H   H54       1.0  0.74040  0.22560  0.94840  1.0000 0.1235417032
H   H55       1.0  0.74040  0.27440  0.44840  1.0000 0.1235417032
H   H56       1.0  0.25960  0.77440  0.05160  1.0000 0.1235417032
H   H57       1.0  0.15810  0.53300  0.78390  1.0000 0.1394673289
H   H58       1.0  0.84190  0.03300  0.71610  1.0000 0.1394673289
H   H59       1.0  0.84190  0.46700  0.21610  1.0000 0.1394673289
H   H60       1.0  0.15810  0.96700  0.28390  1.0000 0.1394673289
H   H61       1.0  0.29000  0.32150  0.78100  1.0000 0.1485069535
H   H62       1.0  0.71000  0.82150  0.71900  1.0000 0.1485069535
H   H63       1.0  0.71000  0.67850  0.21900  1.0000 0.1485069535
H   H64       1.0  0.29000  0.17850  0.28100  1.0000 0.1485069535
H   H65       1.0  0.44260  0.95670  0.43050  1.0000 0.1485069535
H   H66       1.0  0.55740  0.45670  0.06950  1.0000 0.1485069535
H   H67       1.0  0.55740  0.04330  0.56950  1.0000 0.1485069535
H   H68       1.0  0.44260  0.54330  0.93050  1.0000 0.1485069535
H   H69       1.0  0.45890  0.13620  0.52590  1.0000 0.1394673289
H   H70       1.0  0.54110  0.63620  0.97410  1.0000 0.1394673289
H   H71       1.0  0.54110  0.86380  0.47410  1.0000 0.1394673289
H   H72       1.0  0.45890  0.36380  0.02590  1.0000 0.1394673289
H   H73       1.0  0.42400  0.34970  0.48280  1.0000 0.1235417032
H   H74       1.0  0.57600  0.84970  0.01720  1.0000 0.1235417032
H   H75       1.0  0.57600  0.65030  0.51720  1.0000 0.1235417032
H   H76       1.0  0.42400  0.15030  0.98280  1.0000 0.1235417032
H   H77       1.0  0.49260  0.62490  0.44970  1.0000 0.1322639415
H   H78       1.0  0.50740  0.12490  0.05030  1.0000 0.1322639415
H   H79       1.0  0.50740  0.37510  0.55030  1.0000 0.1322639415
H   H80       1.0  0.49260  0.87510  0.94970  1.0000 0.1322639415
C   C1        1.0  0.21640  0.62750  0.69260  1.0000 0.5802558168
C   C2        1.0  0.78360  0.12750  0.80740  1.0000 0.5802558168
C   C3        1.0  0.78360  0.37250  0.30740  1.0000 0.5802558168
C   C4        1.0  0.21640  0.87250  0.19260  1.0000 0.5802558168
C   C5        1.0  0.21880  0.55370  0.72560  1.0000 -0.0029797195
C   C6        1.0  0.78120  0.05370  0.77440  1.0000 -0.0029797195
C   C7        1.0  0.78120  0.44630  0.27440  1.0000 -0.0029797195
C   C8        1.0  0.21880  0.94630  0.22560  1.0000 -0.0029797195
C   C9        1.0  0.18000  0.58110  0.74170  1.0000 -0.0686520348
C   C10       1.0  0.82000  0.08110  0.75830  1.0000 -0.0647278548
C   C11       1.0  0.82000  0.41890  0.25830  1.0000 -0.0686520348
C   C12       1.0  0.18000  0.91890  0.24170  1.0000 -0.0686520348
C   C13       1.0  0.26010  0.45600  0.74040  1.0000 -0.0686520348
C   C14       1.0  0.73990  0.95600  0.75960  1.0000 -0.0686520348
C   C15       1.0  0.73990  0.54400  0.25960  1.0000 -0.0686520348
C   C16       1.0  0.26010  0.04400  0.24040  1.0000 -0.0686520348
C   C17       1.0  0.11700  0.61490  0.56290  1.0000 0.5593134417
C   C18       1.0  0.88300  0.11490  0.93710  1.0000 0.5593134417
C   C19       1.0  0.88300  0.38510  0.43710  1.0000 0.5593134417
C   C20       1.0  0.11700  0.88510  0.06290  1.0000 0.5593134417
C   C21       1.0  0.05680  0.55510  0.53060  1.0000 0.0186653427
C   C22       1.0  0.94320  0.05510  0.96940  1.0000 0.0186653427
C   C23       1.0  0.94320  0.44490  0.46940  1.0000 0.0186653427
C   C24       1.0  0.05680  0.94490  0.03060  1.0000 0.0186653427
C   C25       1.0  0.02710  0.59260  0.48980  1.0000 -0.0892927588
C   C26       1.0  0.97290  0.09260  0.01020  1.0000 -0.0892927588
C   C27       1.0  0.97290  0.40740  0.51020  1.0000 -0.0892927588
C   C28       1.0  0.02710  0.90740  0.98980  1.0000 -0.0892927588
C   C29       1.0  0.02880  0.46030  0.53990  1.0000 -0.078871013
C   C30       1.0  0.97120  0.96030  0.96010  1.0000 -0.078871013
C   C31       1.0  0.97120  0.53970  0.46010  1.0000 -0.078871013
C   C32       1.0  0.02880  0.03970  0.03990  1.0000 -0.078871013
C   C33       1.0  0.08350  0.96660  0.58840  1.0000 0.6118789456
C   C34       1.0  0.91650  0.46660  0.91160  1.0000 0.6118789456
C   C35       1.0  0.91650  0.03340  0.41160  1.0000 0.6118789456
C   C36       1.0  0.08350  0.53340  0.08840  1.0000 0.6118789456
C   C37       1.0  0.04160  0.98550  0.54270  1.0000 0.0186653427
C   C38       1.0  0.95840  0.48550  0.95730  1.0000 0.0186653427
C   C39       1.0  0.95840  0.01450  0.45730  1.0000 0.0186653427
C   C40       1.0  0.04160  0.51450  0.04270  1.0000 0.0186653427
C   C41       1.0  0.04590  0.90840  0.51530  1.0000 -0.0686520348
C   C42       1.0  0.95410  0.40840  0.98470  1.0000 -0.0686520348
C   C43       1.0  0.95410  0.09160  0.48470  1.0000 -0.0686520348
C   C44       1.0  0.04590  0.59160  0.01530  1.0000 -0.0686520348
C   C45       1.0  0.99510  0.07560  0.52670  1.0000 -0.0892927588
C   C46       1.0  0.00490  0.57560  0.97330  1.0000 -0.0892927588
C   C47       1.0  0.00490  0.92440  0.47330  1.0000 -0.0892927588
C   C48       1.0  0.99510  0.42440  0.02670  1.0000 -0.0892927588
C   C49       1.0  0.28690  0.98210  0.59580  1.0000 0.6118789456
C   C50       1.0  0.71310  0.48210  0.90420  1.0000 0.6118789456
C   C51       1.0  0.71310  0.01790  0.40420  1.0000 0.6118789456
C   C52       1.0  0.28690  0.51790  0.09580  1.0000 0.6118789456
C   C53       1.0  0.25620  0.01060  0.55090  1.0000 0.0186653427
C   C54       1.0  0.74380  0.51060  0.94910  1.0000 0.0186653427
C   C55       1.0  0.74380  0.98940  0.44910  1.0000 0.0186653427
C   C56       1.0  0.25620  0.48940  0.05090  1.0000 0.0186653427
C   C57       1.0  0.20380  0.94790  0.52030  1.0000 -0.0892927588
C   C58       1.0  0.79620  0.44790  0.97970  1.0000 -0.0892927588
C   C59       1.0  0.79620  0.05210  0.47970  1.0000 -0.0892927588
C   C60       1.0  0.20380  0.55210  0.02030  1.0000 -0.0892927588
C   C61       1.0  0.17620  0.97730  0.48000  1.0000 -0.078871013
C   C62       1.0  0.82380  0.47730  0.02000  1.0000 -0.078871013
C   C63       1.0  0.82380  0.02270  0.52000  1.0000 -0.078871013
C   C64       1.0  0.17620  0.52270  0.98000  1.0000 -0.078871013
C   C65       1.0  0.19900  0.07370  0.46810  1.0000 -0.0105089322
C   C66       1.0  0.80100  0.57370  0.03190  1.0000 -0.0105089322
C   C67       1.0  0.80100  0.92630  0.53190  1.0000 -0.0105089322
C   C68       1.0  0.19900  0.42630  0.96810  1.0000 -0.0105089322
C   C69       1.0  0.25140  0.13670  0.49830  1.0000 -0.0686520348
C   C70       1.0  0.74860  0.63670  0.00170  1.0000 -0.0686520348
C   C71       1.0  0.74860  0.86330  0.50170  1.0000 -0.0686520348
C   C72       1.0  0.25140  0.36330  0.99830  1.0000 -0.0686520348
C   C73       1.0  0.28070  0.10670  0.53950  1.0000 -0.1001547919
C   C74       1.0  0.71930  0.60670  0.96050  1.0000 -0.1001547919
C   C75       1.0  0.71930  0.89330  0.46050  1.0000 -0.1001547919
C   C76       1.0  0.28070  0.39330  0.03950  1.0000 -0.1001547919
C   C77       1.0  0.16790  0.10800  0.42450  1.0000 0.6118789456
C   C78       1.0  0.83210  0.60800  0.07550  1.0000 0.6118789456
C   C79       1.0  0.83210  0.89200  0.57550  1.0000 0.6118789456
C   C80       1.0  0.16790  0.39200  0.92450  1.0000 0.6118789456
C   C81       1.0  0.34050  0.61470  0.62070  1.0000 0.6118789456
C   C82       1.0  0.65950  0.11470  0.87930  1.0000 0.6118789456
C   C83       1.0  0.65950  0.38530  0.37930  1.0000 0.6118789456
C   C84       1.0  0.34050  0.88530  0.12070  1.0000 0.6118789456
C   C85       1.0  0.32110  0.58880  0.57750  1.0000 -0.0105089322
C   C86       1.0  0.67890  0.08880  0.92250  1.0000 -0.0105089322
C   C87       1.0  0.67890  0.41120  0.42250  1.0000 -0.0105089322
C   C88       1.0  0.32110  0.91120  0.07750  1.0000 -0.0105089322
C   C89       1.0  0.34680  0.49130  0.56820  1.0000 -0.0892927588
C   C90       1.0  0.65320  0.99130  0.93180  1.0000 -0.0892927588
C   C91       1.0  0.65320  0.50870  0.43180  1.0000 -0.0892927588
C   C92       1.0  0.34680  0.00870  0.06820  1.0000 -0.0892927588
C   C93       1.0  0.32360  0.45990  0.52750  1.0000 -0.078871013
C   C94       1.0  0.67640  0.95990  0.97250  1.0000 -0.078871013
C   C95       1.0  0.67640  0.54010  0.47250  1.0000 -0.078871013
C   C96       1.0  0.32360  0.04010  0.02750  1.0000 -0.078871013
C   C97       1.0  0.27590  0.52830  0.49560  1.0000 0.0085276221
C   C98       1.0  0.72410  0.02830  0.00440  1.0000 0.0085276221
C   C99       1.0  0.72410  0.47170  0.50440  1.0000 0.0085276221
C   C100      1.0  0.27590  0.97170  0.99560  1.0000 0.0085276221
C   C101      1.0  0.25260  0.63010  0.50490  1.0000 -0.078871013
C   C102      1.0  0.74740  0.13010  0.99510  1.0000 -0.078871013
C   C103      1.0  0.74740  0.36990  0.49510  1.0000 -0.078871013
C   C104      1.0  0.25260  0.86990  0.00490  1.0000 -0.078871013
C   C105      1.0  0.27530  0.65860  0.54560  1.0000 -0.0686520348
C   C106      1.0  0.72470  0.15860  0.95440  1.0000 -0.0686520348
C   C107      1.0  0.72470  0.34140  0.45440  1.0000 -0.0686520348
C   C108      1.0  0.27530  0.84140  0.04560  1.0000 -0.0686520348
C   C109      1.0  0.24920  0.49210  0.45210  1.0000 0.5866872623
C   C110      1.0  0.75080  0.99210  0.04790  1.0000 0.5866872623
C   C111      1.0  0.75080  0.50790  0.54790  1.0000 0.5866872623
C   C112      1.0  0.24920  0.00790  0.95210  1.0000 0.5866872623
C   C113      1.0  0.23160  0.34350  0.82200  1.0000 0.5802558168
C   C114      1.0  0.76840  0.84350  0.67800  1.0000 0.5802558168
C   C115      1.0  0.76840  0.65650  0.17800  1.0000 0.5802558168
C   C116      1.0  0.23160  0.15650  0.32200  1.0000 0.5802558168
C   C117      1.0  0.22540  0.41750  0.78790  1.0000 0.0040093904
C   C118      1.0  0.77460  0.91750  0.71210  1.0000 0.0085276221
C   C119      1.0  0.77460  0.58250  0.21210  1.0000 0.0085276221
C   C120      1.0  0.22540  0.08250  0.28790  1.0000 0.0040093904
C   C121      1.0  0.18360  0.51390  0.77290  1.0000 -0.0686520348
C   C122      1.0  0.81640  0.01390  0.72710  1.0000 -0.0686520348
C   C123      1.0  0.81640  0.48610  0.22710  1.0000 -0.0686520348
C   C124      1.0  0.18360  0.98610  0.27290  1.0000 -0.0686520348
C   C125      1.0  0.26300  0.38720  0.77140  1.0000 -0.078871013
C   C126      1.0  0.73700  0.88720  0.72860  1.0000 -0.078871013
C   C127      1.0  0.73700  0.61280  0.22860  1.0000 -0.078871013
C   C128      1.0  0.26300  0.11280  0.27140  1.0000 -0.078871013
C   C129      1.0  0.37840  0.12010  0.44640  1.0000 0.5672180905
C   C130      1.0  0.62160  0.62010  0.05360  1.0000 0.5672180905
C   C131      1.0  0.62160  0.87990  0.55360  1.0000 0.5672180905
C   C132      1.0  0.37840  0.37990  0.94640  1.0000 0.5672180905
C   C133      1.0  0.44110  0.05700  0.47380  1.0000 0.0085276221
C   C134      1.0  0.55890  0.55700  0.02620  1.0000 0.0085276221
C   C135      1.0  0.55890  0.94300  0.52620  1.0000 0.0085276221
C   C136      1.0  0.44110  0.44300  0.97380  1.0000 0.0085276221
C   C137      1.0  0.46560  0.97430  0.45830  1.0000 -0.078871013
C   C138      1.0  0.53440  0.47430  0.04170  1.0000 -0.078871013
C   C139      1.0  0.53440  0.02570  0.54170  1.0000 -0.078871013
C   C140      1.0  0.46560  0.52570  0.95830  1.0000 -0.078871013
C   C141      1.0  0.47540  0.08180  0.51550  1.0000 -0.078871013
C   C142      1.0  0.52460  0.58180  0.98450  1.0000 -0.078871013
C   C143      1.0  0.52460  0.91820  0.48450  1.0000 -0.078871013
C   C144      1.0  0.47540  0.41820  0.01550  1.0000 -0.078871013
C   C145      1.0  0.39530  0.46970  0.41550  1.0000 0.618471603
C   C146      1.0  0.60470  0.96970  0.08450  1.0000 0.618471603
C   C147      1.0  0.60470  0.53030  0.58450  1.0000 0.618471603
C   C148      1.0  0.39530  0.03030  0.91550  1.0000 0.618471603
C   C149      1.0  0.44840  0.48530  0.45880  1.0000 -0.0105089322
C   C150      1.0  0.55160  0.98530  0.04120  1.0000 -0.0105089322
C   C151      1.0  0.55160  0.51470  0.54120  1.0000 -0.0105089322
C   C152      1.0  0.44840  0.01470  0.95880  1.0000 -0.0105089322
C   C153      1.0  0.45410  0.41010  0.48950  1.0000 -0.078871013
C   C154      1.0  0.54590  0.91010  0.01050  1.0000 -0.078871013
C   C155      1.0  0.54590  0.58990  0.51050  1.0000 -0.078871013
C   C156      1.0  0.45410  0.08990  0.98950  1.0000 -0.078871013
C   C157      1.0  0.49530  0.57500  0.46980  1.0000 -0.0892927588
C   C158      1.0  0.50470  0.07500  0.03020  1.0000 -0.0892927588
C   C159      1.0  0.50470  0.42500  0.53020  1.0000 -0.0892927588
C   C160      1.0  0.49530  0.92500  0.96980  1.0000 -0.0892927588
O   O1        1.0  0.27753  0.87940  0.68843  1.0000 -0.4110322044
O   O2        1.0  0.72247  0.37940  0.81157  1.0000 -0.4110322044
O   O3        1.0  0.72247  0.12060  0.31157  1.0000 -0.4110322044
O   O4        1.0  0.27753  0.62060  0.18843  1.0000 -0.4110322044
O   O5        1.0  0.17625  0.71270  0.67675  1.0000 -0.5275219128
O   O6        1.0  0.82375  0.21270  0.82325  1.0000 -0.5275219128
O   O7        1.0  0.82375  0.28730  0.32325  1.0000 -0.5275219128
O   O8        1.0  0.17625  0.78730  0.17675  1.0000 -0.524056022
O   O9        1.0  0.25582  0.60330  0.68042  1.0000 -0.5701694534
O   O10       1.0  0.74418  0.10330  0.81958  1.0000 -0.5701694534
O   O11       1.0  0.74418  0.39670  0.31958  1.0000 -0.5701694534
O   O12       1.0  0.25582  0.89670  0.18042  1.0000 -0.5701694534
O   O13       1.0  0.18715  0.41430  0.36055  1.0000 -0.246785079
O   O14       1.0  0.81285  0.91430  0.13945  1.0000 -0.2417184607
O   O15       1.0  0.81285  0.58570  0.63945  1.0000 -0.246785079
O   O16       1.0  0.18715  0.08570  0.86055  1.0000 -0.246785079
O   O17       1.0  0.13552  0.59270  0.60052  1.0000 -0.5869309054
O   O18       1.0  0.86448  0.09270  0.89948  1.0000 -0.5869309054
O   O19       1.0  0.86448  0.40730  0.39948  1.0000 -0.5869309054
O   O20       1.0  0.13552  0.90730  0.10052  1.0000 -0.5869309054
O   O21       1.0  0.14707  0.68660  0.55397  1.0000 -0.5869309054
O   O22       1.0  0.85293  0.18660  0.94603  1.0000 -0.5869309054
O   O23       1.0  0.85293  0.31340  0.44603  1.0000 -0.5869309054
O   O24       1.0  0.14707  0.81340  0.05397  1.0000 -0.5869309054
O   O25       1.0  0.12495  0.88270  0.60095  1.0000 -0.6590317533
O   O26       1.0  0.87505  0.38270  0.89905  1.0000 -0.6590317533
O   O27       1.0  0.87505  0.11730  0.39905  1.0000 -0.6590317533
O   O28       1.0  0.12495  0.61730  0.10095  1.0000 -0.6590317533
O   O29       1.0  0.07496  0.03140  0.61206  1.0000 -0.4110322044
O   O30       1.0  0.92504  0.53140  0.88794  1.0000 -0.4110322044
O   O31       1.0  0.92504  0.96860  0.38794  1.0000 -0.4110322044
O   O32       1.0  0.07496  0.46860  0.11206  1.0000 -0.4110322044
O   O33       1.0  0.25552  0.90620  0.60392  1.0000 -0.6458925054
O   O34       1.0  0.74448  0.40620  0.89608  1.0000 -0.6458925054
O   O35       1.0  0.74448  0.09380  0.39608  1.0000 -0.6458925054
O   O36       1.0  0.25552  0.59380  0.10392  1.0000 -0.6458925054
O   O37       1.0  0.33589  0.03510  0.62129  1.0000 -0.362027903
O   O38       1.0  0.66411  0.53510  0.87871  1.0000 -0.362027903
O   O39       1.0  0.66411  0.96490  0.37871  1.0000 -0.362027903
O   O40       1.0  0.33589  0.46490  0.12129  1.0000 -0.362027903
O   O41       1.0  0.19753  0.17450  0.41343  1.0000 -0.6207658843
O   O42       1.0  0.80247  0.67450  0.08657  1.0000 -0.6207658843
O   O43       1.0  0.80247  0.82550  0.58657  1.0000 -0.6207658843
O   O44       1.0  0.19753  0.32550  0.91343  1.0000 -0.6207658843
O   O45       1.0  0.11175  0.06700  0.39955  1.0000 -0.3840115861
O   O46       1.0  0.88825  0.56700  0.10045  1.0000 -0.3840115861
O   O47       1.0  0.88825  0.93300  0.60045  1.0000 -0.3840115861
O   O48       1.0  0.11175  0.43300  0.89955  1.0000 -0.3840115861
O   O49       1.0  0.30023  0.66490  0.62653  1.0000 -0.6119478987
O   O50       1.0  0.69977  0.16490  0.87347  1.0000 -0.6119478987
O   O51       1.0  0.69977  0.33510  0.37347  1.0000 -0.6119478987
O   O52       1.0  0.30023  0.83510  0.12653  1.0000 -0.6119478987
O   O53       1.0  0.39674  0.58660  0.64924  1.0000 -0.362027903
O   O54       1.0  0.60326  0.08660  0.85076  1.0000 -0.362027903
O   O55       1.0  0.60326  0.41340  0.35076  1.0000 -0.362027903
O   O56       1.0  0.39674  0.91340  0.14924  1.0000 -0.362027903
O   O57       1.0  0.27438  0.40130  0.44678  1.0000 -0.6207658843
O   O58       1.0  0.72562  0.90130  0.05322  1.0000 -0.6207658843
O   O59       1.0  0.72562  0.59870  0.55322  1.0000 -0.6207658843
O   O60       1.0  0.27438  0.09870  0.94678  1.0000 -0.6207658843
O   O61       1.0  0.20445  0.55060  0.42345  1.0000 -0.3714757756
O   O62       1.0  0.79555  0.05060  0.07655  1.0000 -0.3714757756
O   O63       1.0  0.79555  0.44940  0.57655  1.0000 -0.3714757756
O   O64       1.0  0.20445  0.94940  0.92345  1.0000 -0.3714757756
O   O65       1.0  0.26063  0.24640  0.83103  1.0000 -0.5531408236
O   O66       1.0  0.73937  0.74640  0.66897  1.0000 -0.5531408236
O   O67       1.0  0.73937  0.75360  0.16897  1.0000 -0.5531408236
O   O68       1.0  0.26063  0.25360  0.33103  1.0000 -0.5531408236
O   O69       1.0  0.20774  0.38060  0.84314  1.0000 -0.5780062572
O   O70       1.0  0.79226  0.88060  0.65686  1.0000 -0.5780062572
O   O71       1.0  0.79226  0.61940  0.15686  1.0000 -0.5780062572
O   O72       1.0  0.20774  0.11940  0.34314  1.0000 -0.5780062572
O   O73       1.0  0.35293  0.11300  0.40803  1.0000 -0.5780062572
O   O74       1.0  0.64707  0.61300  0.09197  1.0000 -0.5780062572
O   O75       1.0  0.64707  0.88700  0.59197  1.0000 -0.5780062572
O   O76       1.0  0.35293  0.38700  0.90803  1.0000 -0.5780062572
O   O77       1.0  0.35248  0.17860  0.46198  1.0000 -0.6020251558
O   O78       1.0  0.64752  0.67860  0.03802  1.0000 -0.6020251558
O   O79       1.0  0.64752  0.82140  0.53802  1.0000 -0.6020251558
O   O80       1.0  0.35248  0.32140  0.96198  1.0000 -0.6020251558
O   O81       1.0  0.35417  0.39000  0.40697  1.0000 -0.6273012207
O   O82       1.0  0.64583  0.89000  0.09303  1.0000 -0.6273012207
O   O83       1.0  0.64583  0.61000  0.59303  1.0000 -0.6273012207
O   O84       1.0  0.35417  0.11000  0.90697  1.0000 -0.6273012207
O   O85       1.0  0.39249  0.53850  0.38859  1.0000 -0.4186202631
O   O86       1.0  0.60751  0.03850  0.11141  1.0000 -0.4186202631
O   O87       1.0  0.60751  0.46150  0.61141  1.0000 -0.4186202631
O   O88       1.0  0.39249  0.96150  0.88859  1.0000 -0.4186202631
