# DDEC6 charges by PACMAN v1.1 (https://github.com/mtap-research/PACMAN-charge/)
data_2012[Co][nan]3[FSR]3
_chemical_formula_sum              "Co10 H136 C212 N16 O38"
_cell_length_a       16.1652
_cell_length_b       16.1652
_cell_length_c       29.4964
_cell_angle_alpha    74.316
_cell_angle_beta     105.684
_cell_angle_gamma    116.215

_symmetry_space_group_name_H-M    "P 1"
_symmetry_Int_Tables_number       1

loop_
  _symmetry_equiv_pos_as_xyz
  'x, y, z'

loop_
  _atom_site_type_symbol
  _atom_site_label
  _atom_site_symmetry_multiplicity
  _atom_site_fract_x
  _atom_site_fract_y
  _atom_site_fract_z
  _atom_site_occupancy
  _atom_site_charge
Co  Co1       1.0  0.00000  0.00000  0.50000  1.0000 0.99800149
Co  Co2       1.0  0.00000  0.00000  0.00000  1.0000 0.99800149
Co  Co3       1.0  0.12525  0.21061  0.48300  1.0000 0.8490390519
Co  Co4       1.0  0.21061  0.12525  0.01700  1.0000 0.8440923829
Co  Co5       1.0  0.87475  0.78939  0.51700  1.0000 0.8440923829
Co  Co6       1.0  0.78939  0.87475  0.98300  1.0000 0.8440923829
Co  Co7       1.0  0.81996  0.96238  0.41910  1.0000 0.8490390519
Co  Co8       1.0  0.96238  0.81996  0.08090  1.0000 0.8490390519
Co  Co9       1.0  0.18004  0.03762  0.58090  1.0000 0.8490390519
Co  Co10      1.0  0.03762  0.18004  0.91910  1.0000 0.8490390519
H   H1        1.0  0.01980  0.28260  0.38660  1.0000 0.0983295917
H   H2        1.0  0.28260  0.01980  0.11340  1.0000 0.0983295917
H   H3        1.0  0.98020  0.71740  0.61340  1.0000 0.0983295917
H   H4        1.0  0.71740  0.98020  0.88660  1.0000 0.0983295917
H   H5        1.0  0.05030  0.36530  0.31240  1.0000 0.1298080517
H   H6        1.0  0.36530  0.05030  0.18760  1.0000 0.1298080517
H   H7        1.0  0.94970  0.63470  0.68760  1.0000 0.1298080517
H   H8        1.0  0.63470  0.94970  0.81240  1.0000 0.1298080517
H   H9        1.0  0.32370  0.45350  0.36740  1.0000 0.1298080517
H   H10       1.0  0.45350  0.32370  0.13260  1.0000 0.1298080517
H   H11       1.0  0.67630  0.54650  0.63260  1.0000 0.1298080517
H   H12       1.0  0.54650  0.67630  0.86740  1.0000 0.1298080517
H   H13       1.0  0.28530  0.36990  0.44010  1.0000 0.0903294323
H   H14       1.0  0.36990  0.28530  0.05990  1.0000 0.0903294323
H   H15       1.0  0.71470  0.63010  0.55990  1.0000 0.0903294323
H   H16       1.0  0.63010  0.71470  0.94010  1.0000 0.0903294323
H   H17       1.0  0.11440  0.51900  0.26200  1.0000 0.1203346451
H   H18       1.0  0.51900  0.11440  0.23800  1.0000 0.1203346451
H   H19       1.0  0.88560  0.48100  0.73800  1.0000 0.1203346451
H   H20       1.0  0.48100  0.88560  0.76200  1.0000 0.1203346451
H   H21       1.0  0.29640  0.62160  0.17120  1.0000 0.1390075626
H   H22       1.0  0.62160  0.29640  0.32880  1.0000 0.1390075626
H   H23       1.0  0.70360  0.37840  0.82880  1.0000 0.1390075626
H   H24       1.0  0.37840  0.70360  0.67120  1.0000 0.1390075626
H   H25       1.0  0.32550  0.43570  0.28890  1.0000 0.1489031987
H   H26       1.0  0.43570  0.32550  0.21110  1.0000 0.1489031987
H   H27       1.0  0.67450  0.56430  0.71110  1.0000 0.1489031987
H   H28       1.0  0.56430  0.67450  0.78890  1.0000 0.1489031987
H   H29       1.0  0.02030  0.52970  0.16890  1.0000 0.1298080517
H   H30       1.0  0.52970  0.02030  0.33110  1.0000 0.1298080517
H   H31       1.0  0.97970  0.47030  0.83110  1.0000 0.1298080517
H   H32       1.0  0.47030  0.97970  0.66890  1.0000 0.1298080517
H   H33       1.0  0.94170  0.61930  0.12290  1.0000 0.0983295917
H   H34       1.0  0.61930  0.94170  0.37710  1.0000 0.0983295917
H   H35       1.0  0.05830  0.38070  0.87710  1.0000 0.0903294323
H   H36       1.0  0.38070  0.05830  0.62290  1.0000 0.0983295917
H   H37       1.0  0.16230  0.84650  0.13910  1.0000 0.0983295917
H   H38       1.0  0.84650  0.16230  0.36090  1.0000 0.0983295917
H   H39       1.0  0.83770  0.15350  0.86090  1.0000 0.0983295917
H   H40       1.0  0.15350  0.83770  0.63910  1.0000 0.0983295917
H   H41       1.0  0.24930  0.76330  0.18210  1.0000 0.1390075626
H   H42       1.0  0.76330  0.24930  0.31790  1.0000 0.1390075626
H   H43       1.0  0.75070  0.23670  0.81790  1.0000 0.1390075626
H   H44       1.0  0.23670  0.75070  0.68210  1.0000 0.1390075626
H   H45       1.0  0.46870  0.61030  0.14090  1.0000 0.1390075626
H   H46       1.0  0.61030  0.46870  0.35910  1.0000 0.1390075626
H   H47       1.0  0.53130  0.38970  0.85910  1.0000 0.1390075626
H   H48       1.0  0.38970  0.53130  0.64090  1.0000 0.1390075626
H   H49       1.0  0.68120  0.82680  0.19550  1.0000 0.1104321697
H   H50       1.0  0.82680  0.68120  0.30450  1.0000 0.1104321697
H   H51       1.0  0.31880  0.17320  0.80450  1.0000 0.1104321697
H   H52       1.0  0.17320  0.31880  0.69550  1.0000 0.1104321697
H   H53       1.0  0.49970  0.62850  0.27750  1.0000 0.1298080517
H   H54       1.0  0.62850  0.49970  0.22250  1.0000 0.1298080517
H   H55       1.0  0.50030  0.37150  0.72250  1.0000 0.1298080517
H   H56       1.0  0.37150  0.50030  0.77750  1.0000 0.1298080517
H   H57       1.0  0.57450  0.63530  0.09550  1.0000 0.1298080517
H   H58       1.0  0.63530  0.57450  0.40450  1.0000 0.1298080517
H   H59       1.0  0.42550  0.36470  0.90450  1.0000 0.1298080517
H   H60       1.0  0.36470  0.42550  0.59550  1.0000 0.1298080517
H   H61       1.0  0.64290  0.69150  0.02920  1.0000 0.0983295917
H   H62       1.0  0.69150  0.64290  0.47080  1.0000 0.0983295917
H   H63       1.0  0.35710  0.30850  0.97080  1.0000 0.0983295917
H   H64       1.0  0.30850  0.35710  0.52920  1.0000 0.0983295917
H   H65       1.0  0.72420  0.94760  0.04570  1.0000 0.1104321697
H   H66       1.0  0.94760  0.72420  0.45430  1.0000 0.1104321697
H   H67       1.0  0.27580  0.05240  0.95430  1.0000 0.1104321697
H   H68       1.0  0.05240  0.27580  0.54570  1.0000 0.1104321697
H   H69       1.0  0.66270  0.89910  0.11350  1.0000 0.1203346451
H   H70       1.0  0.89910  0.66270  0.38650  1.0000 0.1203346451
H   H71       1.0  0.33730  0.10090  0.88650  1.0000 0.1203346451
H   H72       1.0  0.10090  0.33730  0.61350  1.0000 0.1203346451
H   H73       1.0  0.77650  0.86250  0.26180  1.0000 0.1203346451
H   H74       1.0  0.86250  0.77650  0.23820  1.0000 0.1203346451
H   H75       1.0  0.22350  0.13750  0.73820  1.0000 0.1203346451
H   H76       1.0  0.13750  0.22350  0.76180  1.0000 0.1203346451
H   H77       1.0  0.85430  0.93610  0.32550  1.0000 0.0983295917
H   H78       1.0  0.93610  0.85430  0.17450  1.0000 0.0983295917
H   H79       1.0  0.14570  0.06390  0.67450  1.0000 0.0983295917
H   H80       1.0  0.06390  0.14570  0.82550  1.0000 0.0983295917
H   H81       1.0  0.64410  0.79050  0.39110  1.0000 0.0983295917
H   H82       1.0  0.79050  0.64410  0.10890  1.0000 0.0983295917
H   H83       1.0  0.35590  0.20950  0.60890  1.0000 0.0983295917
H   H84       1.0  0.20950  0.35590  0.89110  1.0000 0.0983295917
H   H85       1.0  0.55880  0.71660  0.32800  1.0000 0.1203346451
H   H86       1.0  0.71660  0.55880  0.17200  1.0000 0.1203346451
H   H87       1.0  0.44120  0.28340  0.67200  1.0000 0.1203346451
H   H88       1.0  0.28340  0.44120  0.82800  1.0000 0.1203346451
H   H89       1.0  0.72820  0.04540  0.47420  1.0000 0.1203346451
H   H90       1.0  0.04540  0.72820  0.02580  1.0000 0.1203346451
H   H91       1.0  0.27180  0.95460  0.52580  1.0000 0.1203346451
H   H92       1.0  0.95460  0.27180  0.97420  1.0000 0.1203346451
H   H93       1.0  0.60880  0.09740  0.45580  1.0000 0.1203346451
H   H94       1.0  0.09740  0.60880  0.04420  1.0000 0.1203346451
H   H95       1.0  0.39120  0.90260  0.54420  1.0000 0.1203346451
H   H96       1.0  0.90260  0.39120  0.95580  1.0000 0.1203346451
H   H97       1.0  0.79400  0.36200  0.43560  1.0000 0.1390075626
H   H98       1.0  0.36200  0.79400  0.06440  1.0000 0.1390075626
H   H99       1.0  0.20600  0.63800  0.56440  1.0000 0.1390075626
H   H100      1.0  0.63800  0.20600  0.93560  1.0000 0.1390075626
H   H101      1.0  0.91390  0.31110  0.45370  1.0000 0.1104321697
H   H102      1.0  0.31110  0.91390  0.04630  1.0000 0.1104321697
H   H103      1.0  0.08610  0.68890  0.54630  1.0000 0.1104321697
H   H104      1.0  0.68890  0.08610  0.95370  1.0000 0.1104321697
H   H105      1.0  0.58350  0.16470  0.51290  1.0000 0.1298080517
H   H106      1.0  0.16470  0.58350  0.98710  1.0000 0.1298080517
H   H107      1.0  0.41650  0.83530  0.48710  1.0000 0.1298080517
H   H108      1.0  0.83530  0.41650  0.01290  1.0000 0.1298080517
H   H109      1.0  0.45170  0.12430  0.54350  1.0000 0.1104321697
H   H110      1.0  0.12430  0.45170  0.95650  1.0000 0.1104321697
H   H111      1.0  0.54830  0.87570  0.45650  1.0000 0.1104321697
H   H112      1.0  0.87570  0.54830  0.04350  1.0000 0.1104321697
H   H113      1.0  0.35420  0.26760  0.42490  1.0000 0.0983295917
H   H114      1.0  0.26760  0.35420  0.07510  1.0000 0.0983295917
H   H115      1.0  0.64580  0.73240  0.57510  1.0000 0.0983295917
H   H116      1.0  0.73240  0.64580  0.92490  1.0000 0.0983295917
H   H117      1.0  0.48270  0.30270  0.39280  1.0000 0.1390075626
H   H118      1.0  0.30270  0.48270  0.10720  1.0000 0.1390075626
H   H119      1.0  0.51730  0.69730  0.60720  1.0000 0.1390075626
H   H120      1.0  0.69730  0.51730  0.89280  1.0000 0.1390075626
H   H121      1.0  0.03260  0.88220  0.69730  1.0000 0.1104321697
H   H122      1.0  0.88220  0.03260  0.80270  1.0000 0.1104321697
H   H123      1.0  0.96740  0.11780  0.30270  1.0000 0.1104321697
H   H124      1.0  0.11780  0.96740  0.19730  1.0000 0.1104321697
H   H125      1.0  0.94570  0.82050  0.75720  1.0000 0.1298080517
H   H126      1.0  0.82050  0.94570  0.74280  1.0000 0.1298080517
H   H127      1.0  0.05430  0.17950  0.24280  1.0000 0.1298080517
H   H128      1.0  0.17950  0.05430  0.25720  1.0000 0.1298080517
H   H129      1.0  0.71160  0.78340  0.66040  1.0000 0.1298080517
H   H130      1.0  0.78340  0.71160  0.83960  1.0000 0.1298080517
H   H131      1.0  0.28840  0.21660  0.33960  1.0000 0.1298080517
H   H132      1.0  0.21660  0.28840  0.16040  1.0000 0.1298080517
H   H133      1.0  0.79810  0.84030  0.59990  1.0000 0.1104321697
H   H134      1.0  0.84030  0.79810  0.90010  1.0000 0.1104321697
H   H135      1.0  0.20190  0.15970  0.40010  1.0000 0.1104321697
H   H136      1.0  0.15970  0.20190  0.09990  1.0000 0.1104321697
C   C1        1.0  0.08179  0.31643  0.38245  1.0000 0.0903294323
C   C2        1.0  0.31643  0.08179  0.11755  1.0000 0.0903294323
C   C3        1.0  0.91821  0.68357  0.61755  1.0000 0.0903294323
C   C4        1.0  0.68357  0.91821  0.88245  1.0000 0.0903294323
C   C5        1.0  0.09955  0.36605  0.33769  1.0000 -0.2017204392
C   C6        1.0  0.36605  0.09955  0.16231  1.0000 -0.2017204392
C   C7        1.0  0.90045  0.63395  0.66231  1.0000 -0.2017204392
C   C8        1.0  0.63395  0.90045  0.83769  1.0000 -0.2017204392
C   C9        1.0  0.19100  0.41690  0.33059  1.0000 0.1203346451
C   C10       1.0  0.41690  0.19100  0.16941  1.0000 0.1203346451
C   C11       1.0  0.80900  0.58310  0.66941  1.0000 0.1203346451
C   C12       1.0  0.58310  0.80900  0.83059  1.0000 0.1203346451
C   C13       1.0  0.26117  0.41835  0.37024  1.0000 -0.2017204392
C   C14       1.0  0.41835  0.26117  0.12976  1.0000 -0.2017204392
C   C15       1.0  0.73883  0.58165  0.62976  1.0000 -0.2017204392
C   C16       1.0  0.58165  0.73883  0.87024  1.0000 -0.2017204392
C   C17       1.0  0.23745  0.36737  0.41381  1.0000 0.0903294323
C   C18       1.0  0.36737  0.23745  0.08619  1.0000 0.0903294323
C   C19       1.0  0.76255  0.63263  0.58619  1.0000 0.0903294323
C   C20       1.0  0.63263  0.76255  0.91381  1.0000 0.0903294323
C   C21       1.0  0.21612  0.46954  0.28348  1.0000 0.0809923645
C   C22       1.0  0.46954  0.21612  0.21652  1.0000 0.0809923645
C   C23       1.0  0.78388  0.53046  0.71652  1.0000 0.0809923645
C   C24       1.0  0.53046  0.78388  0.78348  1.0000 0.0809923645
C   C25       1.0  0.16743  0.52197  0.25376  1.0000 -0.2098383685
C   C26       1.0  0.52197  0.16743  0.24624  1.0000 -0.2098383685
C   C27       1.0  0.83257  0.47803  0.74624  1.0000 -0.2098383685
C   C28       1.0  0.47803  0.83257  0.75376  1.0000 -0.2098383685
C   C29       1.0  0.19730  0.57904  0.21165  1.0000 0.0903294323
C   C30       1.0  0.57904  0.19730  0.28835  1.0000 0.0903294323
C   C31       1.0  0.80270  0.42096  0.78835  1.0000 0.0903294323
C   C32       1.0  0.42096  0.80270  0.71165  1.0000 0.0903294323
C   C33       1.0  0.27513  0.58257  0.19887  1.0000 -0.252389675
C   C34       1.0  0.58257  0.27513  0.30113  1.0000 -0.252389675
C   C35       1.0  0.72487  0.41743  0.80113  1.0000 -0.252389675
C   C36       1.0  0.41743  0.72487  0.69887  1.0000 -0.252389675
C   C37       1.0  0.32096  0.52704  0.22799  1.0000 0.2523110449
C   C38       1.0  0.52704  0.32096  0.27201  1.0000 0.2523110449
C   C39       1.0  0.67904  0.47296  0.77201  1.0000 0.2523110449
C   C40       1.0  0.47296  0.67904  0.72799  1.0000 0.2523110449
C   C41       1.0  0.29313  0.47175  0.26972  1.0000 -0.2417435405
C   C42       1.0  0.47175  0.29313  0.23028  1.0000 -0.2417435405
C   C43       1.0  0.70687  0.52825  0.73028  1.0000 -0.2417435405
C   C44       1.0  0.52825  0.70687  0.76972  1.0000 -0.2417435405
C   C45       1.0  0.14474  0.63630  0.18136  1.0000 0.1104321697
C   C46       1.0  0.63630  0.14474  0.31864  1.0000 0.1104321697
C   C47       1.0  0.85526  0.36370  0.81864  1.0000 0.1104321697
C   C48       1.0  0.36370  0.85526  0.68136  1.0000 0.1104321697
C   C49       1.0  0.05154  0.59460  0.16286  1.0000 -0.2017204392
C   C50       1.0  0.59460  0.05154  0.33714  1.0000 -0.2017204392
C   C51       1.0  0.94846  0.40540  0.83714  1.0000 -0.2017204392
C   C52       1.0  0.40540  0.94846  0.66286  1.0000 -0.2017204392
C   C53       1.0  0.00473  0.64911  0.13539  1.0000 0.0809923645
C   C54       1.0  0.64911  0.00473  0.36461  1.0000 0.0809923645
C   C55       1.0  0.99527  0.35089  0.86461  1.0000 0.0809923645
C   C56       1.0  0.35089  0.99527  0.63539  1.0000 0.0809923645
C   C57       1.0  0.13327  0.78139  0.14433  1.0000 0.0903294323
C   C58       1.0  0.78139  0.13327  0.35567  1.0000 0.0903294323
C   C59       1.0  0.86673  0.21861  0.85567  1.0000 0.0903294323
C   C60       1.0  0.21861  0.86673  0.64433  1.0000 0.0903294323
C   C61       1.0  0.18583  0.73193  0.17103  1.0000 -0.2017204392
C   C62       1.0  0.73193  0.18583  0.32897  1.0000 -0.2017204392
C   C63       1.0  0.81417  0.26807  0.82897  1.0000 -0.2017204392
C   C64       1.0  0.26807  0.81417  0.67103  1.0000 -0.2017204392
C   C65       1.0  0.47243  0.60835  0.20976  1.0000 0.2523110449
C   C66       1.0  0.60835  0.47243  0.29024  1.0000 0.2523110449
C   C67       1.0  0.52757  0.39165  0.79024  1.0000 0.2523110449
C   C68       1.0  0.39165  0.52757  0.70976  1.0000 0.2523110449
C   C69       1.0  0.50162  0.64234  0.16632  1.0000 -0.252389675
C   C70       1.0  0.64234  0.50162  0.33368  1.0000 -0.252389675
C   C71       1.0  0.49838  0.35766  0.83368  1.0000 -0.252389675
C   C72       1.0  0.35766  0.49838  0.66632  1.0000 -0.252389675
C   C73       1.0  0.58071  0.72489  0.16065  1.0000 0.0809923645
C   C74       1.0  0.72489  0.58071  0.33935  1.0000 0.0809923645
C   C75       1.0  0.41929  0.27511  0.83935  1.0000 0.0809923645
C   C76       1.0  0.27511  0.41929  0.66065  1.0000 0.0809923645
C   C77       1.0  0.62888  0.77094  0.19929  1.0000 -0.2098383685
C   C78       1.0  0.77094  0.62888  0.30071  1.0000 -0.2098383685
C   C79       1.0  0.37112  0.22906  0.80071  1.0000 -0.2098383685
C   C80       1.0  0.22906  0.37112  0.69929  1.0000 -0.2098383685
C   C81       1.0  0.60053  0.73527  0.24348  1.0000 0.0983295917
C   C82       1.0  0.73527  0.60053  0.25652  1.0000 0.0983295917
C   C83       1.0  0.39947  0.26473  0.75652  1.0000 0.0983295917
C   C84       1.0  0.26473  0.39947  0.74348  1.0000 0.0903294323
C   C85       1.0  0.52049  0.65305  0.24830  1.0000 -0.2553443869
C   C86       1.0  0.65305  0.52049  0.25170  1.0000 -0.252389675
C   C87       1.0  0.47951  0.34695  0.75170  1.0000 -0.252389675
C   C88       1.0  0.34695  0.47951  0.74830  1.0000 -0.252389675
C   C89       1.0  0.61474  0.76066  0.11434  1.0000 0.1104321697
C   C90       1.0  0.76066  0.61474  0.38566  1.0000 0.1104321697
C   C91       1.0  0.38526  0.23934  0.88566  1.0000 0.1104321697
C   C92       1.0  0.23934  0.38526  0.61434  1.0000 0.1104321697
C   C93       1.0  0.60704  0.69950  0.08681  1.0000 -0.2017204392
C   C94       1.0  0.69950  0.60704  0.41319  1.0000 -0.2017204392
C   C95       1.0  0.39296  0.30050  0.91319  1.0000 -0.2017204392
C   C96       1.0  0.30050  0.39296  0.58681  1.0000 -0.2017204392
C   C97       1.0  0.64760  0.73402  0.04664  1.0000 0.069311321
C   C98       1.0  0.73402  0.64760  0.45336  1.0000 0.069311321
C   C99       1.0  0.35240  0.26598  0.95336  1.0000 0.069311321
C   C100      1.0  0.26598  0.35240  0.54664  1.0000 0.069311321
C   C101      1.0  0.69562  0.88360  0.05653  1.0000 0.0903294323
C   C102      1.0  0.88360  0.69562  0.44347  1.0000 0.0903294323
C   C103      1.0  0.30438  0.11640  0.94347  1.0000 0.0903294323
C   C104      1.0  0.11640  0.30438  0.55653  1.0000 0.0903294323
C   C105      1.0  0.65853  0.85505  0.09724  1.0000 -0.2017204392
C   C106      1.0  0.85505  0.65853  0.40276  1.0000 -0.2098383685
C   C107      1.0  0.34147  0.14495  0.90276  1.0000 -0.2017204392
C   C108      1.0  0.14495  0.34147  0.59724  1.0000 -0.2017204392
C   C109      1.0  0.65530  0.78308  0.28553  1.0000 0.1104321697
C   C110      1.0  0.78308  0.65530  0.21447  1.0000 0.1104321697
C   C111      1.0  0.34470  0.21692  0.71447  1.0000 0.1104321697
C   C112      1.0  0.21692  0.34470  0.78553  1.0000 0.1104321697
C   C113      1.0  0.74628  0.84792  0.28742  1.0000 -0.2205272259
C   C114      1.0  0.84792  0.74628  0.21258  1.0000 -0.2205272259
C   C115      1.0  0.25372  0.15208  0.71258  1.0000 -0.2205272259
C   C116      1.0  0.15208  0.25372  0.78742  1.0000 -0.2205272259
C   C117      1.0  0.79341  0.89165  0.32625  1.0000 0.0809923645
C   C118      1.0  0.89165  0.79341  0.17375  1.0000 0.0809923645
C   C119      1.0  0.20659  0.10835  0.67375  1.0000 0.0809923645
C   C120      1.0  0.10835  0.20659  0.82625  1.0000 0.0809923645
C   C121      1.0  0.67100  0.80746  0.36399  1.0000 0.0537043104
C   C122      1.0  0.80746  0.67100  0.13601  1.0000 0.0537043104
C   C123      1.0  0.32900  0.19254  0.63601  1.0000 0.0537043104
C   C124      1.0  0.19254  0.32900  0.86399  1.0000 0.0537043104
C   C125      1.0  0.61901  0.76195  0.32609  1.0000 -0.2098383685
C   C126      1.0  0.76195  0.61901  0.17391  1.0000 -0.2098383685
C   C127      1.0  0.38099  0.23805  0.67391  1.0000 -0.2098383685
C   C128      1.0  0.23805  0.38099  0.82609  1.0000 -0.2098383685
C   C129      1.0  0.91207  0.14193  0.47280  1.0000 0.5693210626
C   C130      1.0  0.14193  0.91207  0.02720  1.0000 0.5693210626
C   C131      1.0  0.08793  0.85807  0.52720  1.0000 0.5693210626
C   C132      1.0  0.85807  0.08793  0.97280  1.0000 0.5693210626
C   C133      1.0  0.83353  0.17279  0.46523  1.0000 -0.0540460915
C   C134      1.0  0.17279  0.83353  0.03477  1.0000 -0.0540460915
C   C135      1.0  0.16647  0.82721  0.53477  1.0000 -0.0540460915
C   C136      1.0  0.82721  0.16647  0.96523  1.0000 -0.0540460915
C   C137      1.0  0.74185  0.10923  0.46622  1.0000 -0.0837731974
C   C138      1.0  0.10923  0.74185  0.03378  1.0000 -0.0837731974
C   C139      1.0  0.25815  0.89077  0.53378  1.0000 -0.0837731974
C   C140      1.0  0.89077  0.25815  0.96622  1.0000 -0.0837731974
C   C141      1.0  0.67039  0.14019  0.45544  1.0000 -0.2205272259
C   C142      1.0  0.14019  0.67039  0.04456  1.0000 -0.2205272259
C   C143      1.0  0.32961  0.85981  0.54456  1.0000 -0.2205272259
C   C144      1.0  0.85981  0.32961  0.95544  1.0000 -0.2205272259
C   C145      1.0  0.69105  0.23387  0.44424  1.0000 0.230841961
C   C146      1.0  0.23387  0.69105  0.05576  1.0000 0.230841961
C   C147      1.0  0.30895  0.76613  0.55576  1.0000 0.230841961
C   C148      1.0  0.76613  0.30895  0.94424  1.0000 0.230841961
C   C149      1.0  0.78112  0.29828  0.44332  1.0000 -0.2098383685
C   C150      1.0  0.29828  0.78112  0.05668  1.0000 -0.2098383685
C   C151      1.0  0.21888  0.70172  0.55668  1.0000 -0.2098383685
C   C152      1.0  0.70172  0.21888  0.94332  1.0000 -0.2098383685
C   C153      1.0  0.85241  0.26771  0.45401  1.0000 -0.0997495333
C   C154      1.0  0.26771  0.85241  0.04599  1.0000 -0.0997495333
C   C155      1.0  0.14759  0.73229  0.54599  1.0000 -0.0997495333
C   C156      1.0  0.73229  0.14759  0.95401  1.0000 -0.0997495333
C   C157      1.0  0.54629  0.23781  0.44990  1.0000 0.2523110449
C   C158      1.0  0.23781  0.54629  0.05010  1.0000 0.2523110449
C   C159      1.0  0.45371  0.76219  0.55010  1.0000 0.2523110449
C   C160      1.0  0.76219  0.45371  0.94990  1.0000 0.2523110449
C   C161      1.0  0.53669  0.18463  0.49495  1.0000 -0.2098383685
C   C162      1.0  0.18463  0.53669  0.00505  1.0000 -0.2098383685
C   C163      1.0  0.46331  0.81537  0.50505  1.0000 -0.2098383685
C   C164      1.0  0.81537  0.46331  0.99495  1.0000 -0.2098383685
C   C165      1.0  0.45808  0.16116  0.51339  1.0000 -0.0997495333
C   C166      1.0  0.16116  0.45808  0.98661  1.0000 -0.0997495333
C   C167      1.0  0.54192  0.83884  0.48661  1.0000 -0.0997495333
C   C168      1.0  0.83884  0.54192  0.01339  1.0000 -0.0997495333
C   C169      1.0  0.38851  0.19151  0.48781  1.0000 -0.0540460915
C   C170      1.0  0.19151  0.38851  0.01219  1.0000 -0.0540460915
C   C171      1.0  0.61149  0.80849  0.51219  1.0000 -0.0540460915
C   C172      1.0  0.80849  0.61149  0.98781  1.0000 -0.0551464481
C   C173      1.0  0.39991  0.24583  0.44254  1.0000 -0.0997495333
C   C174      1.0  0.24583  0.39991  0.05746  1.0000 -0.0997495333
C   C175      1.0  0.60009  0.75417  0.55746  1.0000 -0.0997495333
C   C176      1.0  0.75417  0.60009  0.94254  1.0000 -0.0997495333
C   C177      1.0  0.47713  0.26783  0.42341  1.0000 -0.2098383685
C   C178      1.0  0.26783  0.47713  0.07659  1.0000 -0.2098383685
C   C179      1.0  0.52287  0.73217  0.57659  1.0000 -0.2098383685
C   C180      1.0  0.73217  0.52287  0.92341  1.0000 -0.2098383685
C   C181      1.0  0.30383  0.16893  0.50772  1.0000 0.5639320353
C   C182      1.0  0.16893  0.30383  0.99228  1.0000 0.5639320353
C   C183      1.0  0.69617  0.83107  0.49228  1.0000 0.5639320353
C   C184      1.0  0.83107  0.69617  0.00772  1.0000 0.5639320353
C   C185      1.0  0.98209  0.91103  0.60311  1.0000 0.5693210626
C   C186      1.0  0.91103  0.98209  0.89689  1.0000 0.5693210626
C   C187      1.0  0.01791  0.08897  0.39689  1.0000 0.5693210626
C   C188      1.0  0.08897  0.01791  0.10311  1.0000 0.5693210626
C   C189      1.0  0.92509  0.86911  0.64198  1.0000 -0.0540460915
C   C190      1.0  0.86911  0.92509  0.85802  1.0000 -0.0540460915
C   C191      1.0  0.07491  0.13089  0.35802  1.0000 -0.0540460915
C   C192      1.0  0.13089  0.07491  0.14198  1.0000 -0.0540460915
C   C193      1.0  0.96778  0.86230  0.68965  1.0000 -0.0997495333
C   C194      1.0  0.86230  0.96778  0.81035  1.0000 -0.0997495333
C   C195      1.0  0.03222  0.13770  0.31035  1.0000 -0.0997495333
C   C196      1.0  0.13770  0.03222  0.18965  1.0000 -0.0997495333
C   C197      1.0  0.91646  0.82698  0.72541  1.0000 -0.2205272259
C   C198      1.0  0.82698  0.91646  0.77459  1.0000 -0.2205272259
C   C199      1.0  0.08354  0.17302  0.27459  1.0000 -0.2205272259
C   C200      1.0  0.17302  0.08354  0.22541  1.0000 -0.2205272259
C   C201      1.0  0.82085  0.80087  0.71419  1.0000 0.230841961
C   C202      1.0  0.80087  0.82085  0.78581  1.0000 0.230841961
C   C203      1.0  0.17915  0.19913  0.28581  1.0000 0.230841961
C   C204      1.0  0.19913  0.17915  0.21419  1.0000 0.230841961
C   C205      1.0  0.77652  0.80408  0.66768  1.0000 -0.2098383685
C   C206      1.0  0.80408  0.77652  0.83232  1.0000 -0.2098383685
C   C207      1.0  0.22348  0.19592  0.33232  1.0000 -0.2098383685
C   C208      1.0  0.19592  0.22348  0.16768  1.0000 -0.2098383685
C   C209      1.0  0.82835  0.83809  0.63163  1.0000 -0.0867583787
C   C210      1.0  0.83809  0.82835  0.86837  1.0000 -0.0867583787
C   C211      1.0  0.17165  0.16191  0.36837  1.0000 -0.0867583787
C   C212      1.0  0.16191  0.17165  0.13163  1.0000 -0.0867583787
N   N1        1.0  0.14943  0.31461  0.42025  1.0000 -0.2417435405
N   N2        1.0  0.31461  0.14943  0.07975  1.0000 -0.2417435405
N   N3        1.0  0.85057  0.68539  0.57975  1.0000 -0.2417435405
N   N4        1.0  0.68539  0.85057  0.92025  1.0000 -0.2417435405
N   N5        1.0  0.04412  0.74240  0.12555  1.0000 -0.2417435405
N   N6        1.0  0.74240  0.04412  0.37445  1.0000 -0.2417435405
N   N7        1.0  0.95588  0.25760  0.87445  1.0000 -0.2417435405
N   N8        1.0  0.25760  0.95588  0.62555  1.0000 -0.2417435405
N   N9        1.0  0.69348  0.82516  0.03121  1.0000 -0.2289450899
N   N10       1.0  0.82516  0.69348  0.46879  1.0000 -0.2289450899
N   N11       1.0  0.30652  0.17484  0.96879  1.0000 -0.2289450899
N   N12       1.0  0.17484  0.30652  0.53121  1.0000 -0.2289450899
N   N13       1.0  0.75738  0.87440  0.36473  1.0000 -0.2289450899
N   N14       1.0  0.87440  0.75738  0.13527  1.0000 -0.2289450899
N   N15       1.0  0.24262  0.12560  0.63527  1.0000 -0.2289450899
N   N16       1.0  0.12560  0.24262  0.86473  1.0000 -0.2289450899
O   O1        1.0  0.39540  0.52426  0.21406  1.0000 -0.2205272259
O   O2        1.0  0.52426  0.39540  0.28594  1.0000 -0.2205272259
O   O3        1.0  0.60460  0.47574  0.78594  1.0000 -0.2205272259
O   O4        1.0  0.47574  0.60460  0.71406  1.0000 -0.2205272259
O   O5        1.0  0.62346  0.27120  0.42847  1.0000 -0.2289450899
O   O6        1.0  0.27120  0.62346  0.07153  1.0000 -0.2289450899
O   O7        1.0  0.37654  0.72880  0.57153  1.0000 -0.2289450899
O   O8        1.0  0.72880  0.37654  0.92847  1.0000 -0.2289450899
O   O9        1.0  0.76660  0.76660  0.75000  1.0000 -0.2417435405
O   O10       1.0  0.23340  0.23340  0.25000  1.0000 -0.2417435405
O   O11       1.0  0.99225  0.20543  0.47242  1.0000 -0.5405171772
O   O12       1.0  0.20543  0.99225  0.02758  1.0000 -0.5405171772
O   O13       1.0  0.00775  0.79457  0.52758  1.0000 -0.5405171772
O   O14       1.0  0.79457  0.00775  0.97242  1.0000 -0.5405171772
O   O15       1.0  0.89256  0.05530  0.47857  1.0000 -0.5314962974
O   O16       1.0  0.05530  0.89256  0.02143  1.0000 -0.5314962974
O   O17       1.0  0.10744  0.94470  0.52143  1.0000 -0.5314962974
O   O18       1.0  0.94470  0.10744  0.97857  1.0000 -0.5314962974
O   O19       1.0  0.29076  0.10988  0.54572  1.0000 -0.5500319114
O   O20       1.0  0.10988  0.29076  0.95428  1.0000 -0.5500319114
O   O21       1.0  0.70924  0.89012  0.45428  1.0000 -0.5500319114
O   O22       1.0  0.89012  0.70924  0.04572  1.0000 -0.5500319114
O   O23       1.0  0.25183  0.21077  0.48500  1.0000 -0.5405171772
O   O24       1.0  0.21077  0.25183  0.01500  1.0000 -0.5405171772
O   O25       1.0  0.74817  0.78923  0.51500  1.0000 -0.5405171772
O   O26       1.0  0.78923  0.74817  0.98500  1.0000 -0.5405171772
O   O27       1.0  0.06979  0.94571  0.61597  1.0000 -0.5500319114
O   O28       1.0  0.94571  0.06979  0.88403  1.0000 -0.5500319114
O   O29       1.0  0.93021  0.05429  0.38403  1.0000 -0.5500319114
O   O30       1.0  0.05429  0.93021  0.11597  1.0000 -0.5500319114
O   O31       1.0  0.93956  0.91036  0.56019  1.0000 -0.5314962974
O   O32       1.0  0.91036  0.93956  0.93981  1.0000 -0.5314962974
O   O33       1.0  0.06044  0.08964  0.43981  1.0000 -0.5314962974
O   O34       1.0  0.08964  0.06044  0.06019  1.0000 -0.5314962974
O   O35       1.0  0.09326  0.09988  0.53866  1.0000 -0.7735923191
O   O36       1.0  0.09988  0.09326  0.96134  1.0000 -0.7735923191
O   O37       1.0  0.90674  0.90012  0.46134  1.0000 -0.775581803
O   O38       1.0  0.90012  0.90674  0.03866  1.0000 -0.775581803
