# DDEC6 charges by PACMAN v1.1 (https://github.com/mtap-research/PACMAN-charge/)
data_2012[Yb][mog]3[FSR]1
_chemical_formula_sum              "Yb6 H20 C40 N4 O48"
_cell_length_a       14.0488
_cell_length_b       14.0488
_cell_length_c       9.7641
_cell_angle_alpha    75.8038
_cell_angle_beta     104.196
_cell_angle_gamma    85.0469

_symmetry_space_group_name_H-M    "P 1"
_symmetry_Int_Tables_number       1

loop_
  _symmetry_equiv_pos_as_xyz
  'x, y, z'

loop_
  _atom_site_type_symbol
  _atom_site_label
  _atom_site_symmetry_multiplicity
  _atom_site_fract_x
  _atom_site_fract_y
  _atom_site_fract_z
  _atom_site_occupancy
  _atom_site_charge
Yb  Yb1       1.0  0.19712  0.63093  0.84363  1.0000 2.0077103262
Yb  Yb2       1.0  0.63093  0.19712  0.65637  1.0000 2.0077103262
Yb  Yb3       1.0  0.80288  0.36908  0.15637  1.0000 2.0077103262
Yb  Yb4       1.0  0.36907  0.80288  0.34363  1.0000 2.0077103262
Yb  Yb5       1.0  0.78127  0.78127  0.75000  1.0000 2.0185456757
Yb  Yb6       1.0  0.21873  0.21873  0.25000  1.0000 2.0185456757
H   H1        1.0  0.85480  0.73900  0.36640  1.0000 0.1429663335
H   H2        1.0  0.73900  0.85480  0.13360  1.0000 0.1429663335
H   H3        1.0  0.14520  0.26100  0.63360  1.0000 0.1429663335
H   H4        1.0  0.26100  0.14520  0.86640  1.0000 0.1429663335
H   H5        1.0  0.02530  0.59430  0.19000  1.0000 0.1429663335
H   H6        1.0  0.59430  0.02530  0.31000  1.0000 0.1429663335
H   H7        1.0  0.97470  0.40570  0.81000  1.0000 0.1429663335
H   H8        1.0  0.40570  0.97470  0.69000  1.0000 0.1429663335
H   H9        1.0  0.88050  0.68990  0.16390  1.0000 0.1516565417
H   H10       1.0  0.68990  0.88050  0.33610  1.0000 0.1516565417
H   H11       1.0  0.11950  0.31010  0.83610  1.0000 0.1516565417
H   H12       1.0  0.31010  0.11950  0.66390  1.0000 0.1516565417
H   H13       1.0  0.93600  0.83200  0.87300  1.0000 0.3523890858
H   H14       1.0  0.83200  0.93600  0.62700  1.0000 0.3523890858
H   H15       1.0  0.06400  0.16800  0.12700  1.0000 0.3523890858
H   H16       1.0  0.16800  0.06400  0.37300  1.0000 0.3523890858
H   H17       1.0  0.98300  0.73900  0.89700  1.0000 0.3939100016
H   H18       1.0  0.73900  0.98300  0.60300  1.0000 0.3939100016
H   H19       1.0  0.01700  0.26100  0.10300  1.0000 0.3939100016
H   H20       1.0  0.26100  0.01700  0.39700  1.0000 0.3939100016
C   C1        1.0  0.07700  0.61440  0.52160  1.0000 0.5151885633
C   C2        1.0  0.61440  0.07700  0.97840  1.0000 0.5151885633
C   C3        1.0  0.92300  0.38560  0.47840  1.0000 0.5151885633
C   C4        1.0  0.38560  0.92300  0.02160  1.0000 0.5151885633
C   C5        1.0  0.32040  0.66540  0.13780  1.0000 0.5090290976
C   C6        1.0  0.66540  0.32040  0.36220  1.0000 0.5090290976
C   C7        1.0  0.67960  0.33460  0.86220  1.0000 0.5090290976
C   C8        1.0  0.33460  0.67960  0.63780  1.0000 0.5090290976
C   C9        1.0  0.96800  0.71220  0.62990  1.0000 0.6893198376
C   C10       1.0  0.71220  0.96800  0.87010  1.0000 0.6893198376
C   C11       1.0  0.03200  0.28780  0.37010  1.0000 0.6893198376
C   C12       1.0  0.28780  0.03200  0.12990  1.0000 0.6893198376
C   C13       1.0  0.22870  0.74570  0.08580  1.0000 0.5090290976
C   C14       1.0  0.74570  0.22870  0.41420  1.0000 0.5090290976
C   C15       1.0  0.77130  0.25430  0.91420  1.0000 0.5090290976
C   C16       1.0  0.25430  0.77130  0.58580  1.0000 0.5090290976
C   C17       1.0  0.83130  0.55030  0.91630  1.0000 0.5090290976
C   C18       1.0  0.55030  0.83130  0.58370  1.0000 0.5090290976
C   C19       1.0  0.16870  0.44970  0.08370  1.0000 0.5090290976
C   C20       1.0  0.44970  0.16870  0.41630  1.0000 0.5090290976
C   C21       1.0  0.98660  0.67620  0.50520  1.0000 -0.182200637
C   C22       1.0  0.67620  0.98660  0.99480  1.0000 -0.182200637
C   C23       1.0  0.01340  0.32380  0.49480  1.0000 -0.182200637
C   C24       1.0  0.32380  0.01340  0.00520  1.0000 -0.182200637
C   C25       1.0  0.91490  0.70110  0.37520  1.0000 -0.0032146138
C   C26       1.0  0.70110  0.91490  0.12480  1.0000 -0.0032146138
C   C27       1.0  0.08510  0.29890  0.62480  1.0000 -0.0032146138
C   C28       1.0  0.29890  0.08510  0.87520  1.0000 -0.0032146138
C   C29       1.0  0.01450  0.61470  0.26940  1.0000 0.1213956137
C   C30       1.0  0.61470  0.01450  0.23060  1.0000 0.1213956137
C   C31       1.0  0.98550  0.38530  0.73060  1.0000 0.1213956137
C   C32       1.0  0.38530  0.98550  0.76940  1.0000 0.1213956137
C   C33       1.0  0.92940  0.67100  0.25330  1.0000 -0.1464597995
C   C34       1.0  0.67100  0.92940  0.24670  1.0000 -0.1464597995
C   C35       1.0  0.07060  0.32900  0.74670  1.0000 -0.1464597995
C   C36       1.0  0.32900  0.07060  0.75330  1.0000 -0.1464597995
C   C37       1.0  0.75670  0.59450  0.98600  1.0000 0.5090290976
C   C38       1.0  0.59450  0.75670  0.51400  1.0000 0.5090290976
C   C39       1.0  0.24330  0.40550  0.01400  1.0000 0.5090290976
C   C40       1.0  0.40550  0.24330  0.48600  1.0000 0.5090290976
N   N1        1.0  0.08590  0.58670  0.39960  1.0000 -0.2975859757
N   N2        1.0  0.58670  0.08590  0.10040  1.0000 -0.2975859757
N   N3        1.0  0.91410  0.41330  0.60040  1.0000 -0.2975859757
N   N4        1.0  0.41330  0.91410  0.89960  1.0000 -0.2975859757
O   O1        1.0  0.14920  0.58220  0.63550  1.0000 -0.5797607716
O   O2        1.0  0.58220  0.14920  0.86450  1.0000 -0.5797607716
O   O3        1.0  0.85080  0.41780  0.36450  1.0000 -0.5797607716
O   O4        1.0  0.41780  0.85080  0.13550  1.0000 -0.5797607716
O   O5        1.0  0.32920  0.61360  0.05390  1.0000 -0.5437957759
O   O6        1.0  0.61360  0.32920  0.44610  1.0000 -0.5437957759
O   O7        1.0  0.67080  0.38640  0.94610  1.0000 -0.5437957759
O   O8        1.0  0.38640  0.67080  0.55390  1.0000 -0.5437957759
O   O9        1.0  0.03480  0.69000  0.75170  1.0000 -0.6398672576
O   O10       1.0  0.69000  0.03480  0.74830  1.0000 -0.6398672576
O   O11       1.0  0.96520  0.31000  0.24830  1.0000 -0.6398672576
O   O12       1.0  0.31000  0.96520  0.25170  1.0000 -0.6398672576
O   O13       1.0  0.84910  0.60950  0.81290  1.0000 -0.5213872309
O   O14       1.0  0.60950  0.84910  0.68710  1.0000 -0.5213872309
O   O15       1.0  0.15090  0.39050  0.18710  1.0000 -0.5213872309
O   O16       1.0  0.39050  0.15090  0.31290  1.0000 -0.5213872309
O   O17       1.0  0.88500  0.76300  0.60780  1.0000 -0.6244821067
O   O18       1.0  0.76300  0.88500  0.89220  1.0000 -0.6244821067
O   O19       1.0  0.11500  0.23700  0.39220  1.0000 -0.6244821067
O   O20       1.0  0.23700  0.11500  0.10780  1.0000 -0.6244821067
O   O21       1.0  0.93380  0.77100  0.91210  1.0000 -0.7378538366
O   O22       1.0  0.77100  0.93380  0.58790  1.0000 -0.7378538366
O   O23       1.0  0.06620  0.22900  0.08790  1.0000 -0.7378538366
O   O24       1.0  0.22900  0.06620  0.41210  1.0000 -0.7378538366
O   O25       1.0  0.16910  0.75050  0.96400  1.0000 -0.5518024827
O   O26       1.0  0.75050  0.16910  0.53600  1.0000 -0.5518024827
O   O27       1.0  0.83090  0.24950  0.03600  1.0000 -0.5518024827
O   O28       1.0  0.24950  0.83090  0.46400  1.0000 -0.5518024827
O   O29       1.0  0.86640  0.46040  0.97390  1.0000 -0.5607789869
O   O30       1.0  0.46040  0.86640  0.52610  1.0000 -0.5607789869
O   O31       1.0  0.13360  0.53960  0.02610  1.0000 -0.5607789869
O   O32       1.0  0.53960  0.13360  0.47390  1.0000 -0.5607789869
O   O33       1.0  0.37930  0.65970  0.25980  1.0000 -0.5139406438
O   O34       1.0  0.65970  0.37930  0.24020  1.0000 -0.5139406438
O   O35       1.0  0.62070  0.34030  0.74020  1.0000 -0.5139406438
O   O36       1.0  0.34030  0.62070  0.75980  1.0000 -0.5139406438
O   O37       1.0  0.22050  0.80050  0.16720  1.0000 -0.5518024827
O   O38       1.0  0.80050  0.22050  0.33280  1.0000 -0.5518024827
O   O39       1.0  0.77950  0.19950  0.83280  1.0000 -0.5518024827
O   O40       1.0  0.19950  0.77950  0.66720  1.0000 -0.5518024827
O   O41       1.0  0.72200  0.68520  0.93190  1.0000 -0.5797607716
O   O42       1.0  0.68520  0.72200  0.56810  1.0000 -0.5797607716
O   O43       1.0  0.27800  0.31480  0.06810  1.0000 -0.5797607716
O   O44       1.0  0.31480  0.27800  0.43190  1.0000 -0.5797607716
O   O45       1.0  0.73440  0.53640  0.08910  1.0000 -0.5281984921
O   O46       1.0  0.53640  0.73440  0.41090  1.0000 -0.5281984921
O   O47       1.0  0.26560  0.46360  0.91090  1.0000 -0.5281984921
O   O48       1.0  0.46360  0.26560  0.58910  1.0000 -0.5281984921
