# DDEC6 charges by PACMAN v1.1 (https://github.com/mtap-research/PACMAN-charge/)
data_2012[Cu][rob]3[FSR]1
_chemical_formula_sum              "Cu4 H48 C44 N4 O16"
_cell_length_a       14.4029
_cell_length_b       14.4029
_cell_length_c       8.725
_cell_angle_alpha    85.4837
_cell_angle_beta     94.5163
_cell_angle_gamma    126.007

_symmetry_space_group_name_H-M    "P 1"
_symmetry_Int_Tables_number       1

loop_
  _symmetry_equiv_pos_as_xyz
  'x, y, z'

loop_
  _atom_site_type_symbol
  _atom_site_label
  _atom_site_symmetry_multiplicity
  _atom_site_fract_x
  _atom_site_fract_y
  _atom_site_fract_z
  _atom_site_occupancy
  _atom_site_charge
Cu  Cu1       1.0  0.41062  0.99590  0.93818  1.0000 0.7501659804
Cu  Cu2       1.0  0.99590  0.41062  0.56182  1.0000 0.7501659804
Cu  Cu3       1.0  0.58938  0.00410  0.06182  1.0000 0.7501659804
Cu  Cu4       1.0  0.00410  0.58938  0.43818  1.0000 0.7501659804
H   H1        1.0  0.58560  0.95740  0.53410  1.0000 0.1410510131
H   H2        1.0  0.95740  0.58560  0.96590  1.0000 0.1410510131
H   H3        1.0  0.41440  0.04260  0.46590  1.0000 0.1410510131
H   H4        1.0  0.04260  0.41440  0.03410  1.0000 0.1410510131
H   H5        1.0  0.56950  0.85270  0.63080  1.0000 0.1268727668
H   H6        1.0  0.85270  0.56950  0.86920  1.0000 0.1268727668
H   H7        1.0  0.43050  0.14730  0.36920  1.0000 0.1268727668
H   H8        1.0  0.14730  0.43050  0.13080  1.0000 0.1268727668
H   H9        1.0  0.42490  0.78730  0.43450  1.0000 0.0974454247
H   H10       1.0  0.78730  0.42490  0.06550  1.0000 0.0974454247
H   H11       1.0  0.57510  0.21270  0.56550  1.0000 0.0974454247
H   H12       1.0  0.21270  0.57510  0.93450  1.0000 0.0974454247
H   H13       1.0  0.38480  0.85620  0.50010  1.0000 0.0974454247
H   H14       1.0  0.85620  0.38480  0.99990  1.0000 0.0974454247
H   H15       1.0  0.61520  0.14380  0.49990  1.0000 0.0974454247
H   H16       1.0  0.14380  0.61520  0.00010  1.0000 0.0974454247
H   H17       1.0  0.33900  0.73920  0.73190  1.0000 0.1410510131
H   H18       1.0  0.73920  0.33900  0.76810  1.0000 0.1410510131
H   H19       1.0  0.66100  0.26080  0.26810  1.0000 0.1410510131
H   H20       1.0  0.26080  0.66100  0.23190  1.0000 0.1410510131
H   H21       1.0  0.36560  0.66500  0.64990  1.0000 0.1268727668
H   H22       1.0  0.66500  0.36560  0.85010  1.0000 0.1268727668
H   H23       1.0  0.63440  0.33500  0.35010  1.0000 0.1268727668
H   H24       1.0  0.33500  0.63440  0.14990  1.0000 0.1268727668
H   H25       1.0  0.36400  0.15620  0.75460  1.0000 0.1127114073
H   H26       1.0  0.15620  0.36400  0.74540  1.0000 0.1127114073
H   H27       1.0  0.63600  0.84380  0.24540  1.0000 0.1127114073
H   H28       1.0  0.84380  0.63600  0.25460  1.0000 0.1127114073
H   H29       1.0  0.23840  0.15700  0.57990  1.0000 0.1410510131
H   H30       1.0  0.15700  0.23840  0.92010  1.0000 0.1410510131
H   H31       1.0  0.76160  0.84300  0.42010  1.0000 0.1410510131
H   H32       1.0  0.84300  0.76160  0.07990  1.0000 0.1410510131
H   H33       1.0  0.03360  0.81520  0.62430  1.0000 0.1410510131
H   H34       1.0  0.81520  0.03360  0.87570  1.0000 0.1410510131
H   H35       1.0  0.96640  0.18480  0.37570  1.0000 0.1410510131
H   H36       1.0  0.18480  0.96640  0.12430  1.0000 0.1410510131
H   H37       1.0  0.16330  0.82370  0.79950  1.0000 0.1174172686
H   H38       1.0  0.82370  0.16330  0.70050  1.0000 0.1174172686
H   H39       1.0  0.83670  0.17630  0.20050  1.0000 0.1174172686
H   H40       1.0  0.17630  0.83670  0.29950  1.0000 0.1174172686
H   H41       1.0  0.98470  0.90930  0.42300  1.0000 0.1127114073
H   H42       1.0  0.90930  0.98470  0.07700  1.0000 0.1127114073
H   H43       1.0  0.01530  0.09070  0.57700  1.0000 0.1127114073
H   H44       1.0  0.09070  0.01530  0.92300  1.0000 0.1127114073
H   H45       1.0  0.07640  0.03940  0.37990  1.0000 0.1174172686
H   H46       1.0  0.03940  0.07640  0.12010  1.0000 0.1174172686
H   H47       1.0  0.92360  0.96060  0.62010  1.0000 0.1174172686
H   H48       1.0  0.96060  0.92360  0.87990  1.0000 0.1174172686
C   C1        1.0  0.53207  0.94293  0.75170  1.0000 0.6182856672
C   C2        1.0  0.94293  0.53207  0.74830  1.0000 0.6182856672
C   C3        1.0  0.46793  0.05707  0.24830  1.0000 0.6182856672
C   C4        1.0  0.05707  0.46793  0.25170  1.0000 0.6182856672
C   C5        1.0  0.53616  0.89444  0.60570  1.0000 -0.3304716758
C   C6        1.0  0.89444  0.53616  0.89430  1.0000 -0.3304716758
C   C7        1.0  0.46384  0.10556  0.39430  1.0000 -0.3304716758
C   C8        1.0  0.10556  0.46384  0.10570  1.0000 -0.3304716758
C   C9        1.0  0.41732  0.81408  0.52810  1.0000 -0.0936917085
C   C10       1.0  0.81408  0.41732  0.97190  1.0000 -0.0936917085
C   C11       1.0  0.58268  0.18592  0.47190  1.0000 -0.0936917085
C   C12       1.0  0.18592  0.58268  0.02810  1.0000 -0.0936917085
C   C13       1.0  0.33650  0.71110  0.63300  1.0000 -0.3242110498
C   C14       1.0  0.71110  0.33650  0.86700  1.0000 -0.3242110498
C   C15       1.0  0.66350  0.28890  0.36700  1.0000 -0.3242110498
C   C16       1.0  0.28890  0.66350  0.13300  1.0000 -0.3242110498
C   C17       1.0  0.21187  0.63373  0.57630  1.0000 0.6182856672
C   C18       1.0  0.63373  0.21187  0.92370  1.0000 0.6182856672
C   C19       1.0  0.78813  0.36627  0.42370  1.0000 0.6182856672
C   C20       1.0  0.36627  0.78813  0.07630  1.0000 0.6182856672
C   C21       1.0  0.29598  0.08642  0.72880  1.0000 0.0839619563
C   C22       1.0  0.08642  0.29598  0.77120  1.0000 0.0839619563
C   C23       1.0  0.70402  0.91358  0.27120  1.0000 0.0839619563
C   C24       1.0  0.91358  0.70402  0.22880  1.0000 0.0839619563
C   C25       1.0  0.22101  0.08739  0.62220  1.0000 -0.2153013832
C   C26       1.0  0.08739  0.22101  0.87780  1.0000 -0.2153013832
C   C27       1.0  0.77899  0.91261  0.37780  1.0000 -0.2153013832
C   C28       1.0  0.91261  0.77899  0.12220  1.0000 -0.2153013832
C   C29       1.0  0.12113  0.98667  0.57810  1.0000 0.1577452236
C   C30       1.0  0.98667  0.12113  0.92190  1.0000 0.1577452236
C   C31       1.0  0.87887  0.01333  0.42190  1.0000 0.1577452236
C   C32       1.0  0.01333  0.87887  0.07810  1.0000 0.1577452236
C   C33       1.0  0.10062  0.88618  0.64910  1.0000 -0.2074165381
C   C34       1.0  0.88618  0.10062  0.85090  1.0000 -0.2074165381
C   C35       1.0  0.89938  0.11382  0.35090  1.0000 -0.2074165381
C   C36       1.0  0.11382  0.89938  0.14910  1.0000 -0.2074165381
C   C37       1.0  0.17864  0.89196  0.75450  1.0000 0.0839619563
C   C38       1.0  0.89196  0.17864  0.74550  1.0000 0.0839619563
C   C39       1.0  0.82136  0.10804  0.24550  1.0000 0.0839619563
C   C40       1.0  0.10804  0.82136  0.25450  1.0000 0.0839619563
C   C41       1.0  0.03550  0.98510  0.46460  1.0000 -0.248297248
C   C42       1.0  0.98510  0.03550  0.03540  1.0000 -0.248297248
C   C43       1.0  0.96450  0.01490  0.53540  1.0000 -0.248297248
C   C44       1.0  0.01490  0.96450  0.96460  1.0000 -0.248297248
N   N1        1.0  0.27654  0.99146  0.79650  1.0000 -0.248297248
N   N2        1.0  0.99146  0.27654  0.70350  1.0000 -0.248297248
N   N3        1.0  0.72346  0.00854  0.20350  1.0000 -0.248297248
N   N4        1.0  0.00854  0.72346  0.29650  1.0000 -0.248297248
O   O1        1.0  0.45612  0.95970  0.75680  1.0000 -0.5288606323
O   O2        1.0  0.95970  0.45612  0.74320  1.0000 -0.5288606323
O   O3        1.0  0.54388  0.04030  0.24320  1.0000 -0.5288606323
O   O4        1.0  0.04030  0.54388  0.25680  1.0000 -0.5288606323
O   O5        1.0  0.60388  0.96172  0.85990  1.0000 -0.5440415628
O   O6        1.0  0.96172  0.60388  0.64010  1.0000 -0.5440415628
O   O7        1.0  0.39612  0.03828  0.14010  1.0000 -0.5440415628
O   O8        1.0  0.03828  0.39612  0.35990  1.0000 -0.5440415628
O   O9        1.0  0.16110  0.52872  0.60790  1.0000 -0.5288606323
O   O10       1.0  0.52872  0.16110  0.89210  1.0000 -0.5288606323
O   O11       1.0  0.83890  0.47128  0.39210  1.0000 -0.5288606323
O   O12       1.0  0.47128  0.83890  0.10790  1.0000 -0.5288606323
O   O13       1.0  0.16828  0.67926  0.50680  1.0000 -0.5160545594
O   O14       1.0  0.67926  0.16828  0.99320  1.0000 -0.5160545594
O   O15       1.0  0.83172  0.32074  0.49320  1.0000 -0.5160545594
O   O16       1.0  0.32074  0.83172  0.00680  1.0000 -0.5160545594
