# DDEC6 charges by PACMAN v1.1 (https://github.com/mtap-research/PACMAN-charge/)
data_2012[Co][pcu]3[FSR]5
_chemical_formula_sum              "Co4 H64 C96 N8 O16"
_cell_length_a       12.228
_cell_length_b       13.654
_cell_length_c       16.958
_cell_angle_alpha    102.96
_cell_angle_beta     108.66
_cell_angle_gamma    87.9

_symmetry_space_group_name_H-M    "P 1"
_symmetry_Int_Tables_number       1

loop_
  _symmetry_equiv_pos_as_xyz
  'x, y, z'

loop_
  _atom_site_type_symbol
  _atom_site_label
  _atom_site_symmetry_multiplicity
  _atom_site_fract_x
  _atom_site_fract_y
  _atom_site_fract_z
  _atom_site_occupancy
  _atom_site_charge
Co  Co1       1.0  0.27462  0.36808  0.88435  1.0000 0.8394329273
Co  Co2       1.0  0.23372  0.37044  0.63827  1.0000 0.8336001658
Co  Co3       1.0  0.72538  0.63192  0.11565  1.0000 0.8394329273
Co  Co4       1.0  0.76628  0.62956  0.36173  1.0000 0.8336001658
H   H1        1.0  0.42750  0.18650  0.90600  1.0000 0.1097415593
H   H2        1.0  0.41880  0.02120  0.90820  1.0000 0.1274776222
H   H3        1.0  0.07450  0.02650  0.82170  1.0000 0.1371154113
H   H4        1.0  0.09440  0.19170  0.82490  1.0000 0.1097415593
H   H5        1.0  0.15870  0.86730  0.84620  1.0000 0.1274776222
H   H6        1.0  0.38940  0.87120  0.93200  1.0000 0.1203500037
H   H7        1.0  0.13190  0.71840  0.88530  1.0000 0.1274776222
H   H8        1.0  0.12540  0.55340  0.87870  1.0000 0.1097415593
H   H9        1.0  0.45750  0.54140  0.92950  1.0000 0.1203500037
H   H10       1.0  0.47490  0.70710  0.93750  1.0000 0.1371154113
H   H11       1.0  0.05550  0.37080  0.06780  1.0000 0.1203500037
H   H12       1.0  0.03210  0.36540  0.19500  1.0000 0.1097415593
H   H13       1.0  0.39780  0.38190  0.17450  1.0000 0.1203500037
H   H14       1.0  0.11520  0.35870  0.34780  1.0000 0.1203500037
H   H15       1.0  0.45850  0.37640  0.45860  1.0000 0.1274776222
H   H16       1.0  0.48320  0.38820  0.33270  1.0000 0.1097415593
H   H17       1.0  0.53000  0.37490  0.67630  1.0000 0.1274776222
H   H18       1.0  0.83670  0.35430  0.91950  1.0000 0.1203500037
H   H19       1.0  0.65070  0.35220  0.92160  1.0000 0.1097415593
H   H20       1.0  0.97580  0.35910  0.83840  1.0000 0.1274776222
H   H21       1.0  0.85300  0.36930  0.59070  1.0000 0.1203500037
H   H22       1.0  0.66870  0.37360  0.59550  1.0000 0.1203500037
H   H23       1.0  0.41160  0.20650  0.67030  1.0000 0.1097415593
H   H24       1.0  0.42940  0.04420  0.68490  1.0000 0.1371154113
H   H25       1.0  0.08440  0.01390  0.59670  1.0000 0.1274776222
H   H26       1.0  0.07810  0.18010  0.58760  1.0000 0.1097415593
H   H27       1.0  0.34210  0.88160  0.67400  1.0000 0.1274776222
H   H28       1.0  0.11180  0.86010  0.60910  1.0000 0.1274776222
H   H29       1.0  0.36270  0.73920  0.71910  1.0000 0.1274776222
H   H30       1.0  0.37350  0.57400  0.72630  1.0000 0.1010262766
H   H31       1.0  0.05540  0.52240  0.57860  1.0000 0.1097415593
H   H32       1.0  0.03710  0.68690  0.56730  1.0000 0.1513836765
H   H33       1.0  0.57250  0.81350  0.09400  1.0000 0.1097415593
H   H34       1.0  0.58120  0.97880  0.09180  1.0000 0.1274776222
H   H35       1.0  0.92550  0.97350  0.17830  1.0000 0.1371154113
H   H36       1.0  0.90560  0.80830  0.17510  1.0000 0.1097415593
H   H37       1.0  0.84130  0.13270  0.15380  1.0000 0.1274776222
H   H38       1.0  0.61060  0.12880  0.06800  1.0000 0.1203500037
H   H39       1.0  0.86810  0.28160  0.11470  1.0000 0.1274776222
H   H40       1.0  0.87460  0.44660  0.12130  1.0000 0.1097415593
H   H41       1.0  0.54250  0.45860  0.07050  1.0000 0.1203500037
H   H42       1.0  0.52510  0.29290  0.06250  1.0000 0.1371154113
H   H43       1.0  0.94450  0.62920  0.93220  1.0000 0.1203500037
H   H44       1.0  0.96790  0.63460  0.80500  1.0000 0.1097415593
H   H45       1.0  0.60220  0.61810  0.82550  1.0000 0.1203500037
H   H46       1.0  0.88480  0.64130  0.65220  1.0000 0.1203500037
H   H47       1.0  0.54150  0.62360  0.54140  1.0000 0.1274776222
H   H48       1.0  0.51680  0.61180  0.66730  1.0000 0.1097415593
H   H49       1.0  0.47000  0.62510  0.32370  1.0000 0.1274776222
H   H50       1.0  0.16330  0.64570  0.08050  1.0000 0.1203500037
H   H51       1.0  0.34930  0.64780  0.07840  1.0000 0.1097415593
H   H52       1.0  0.02420  0.64090  0.16160  1.0000 0.1274776222
H   H53       1.0  0.14700  0.63070  0.40930  1.0000 0.1203500037
H   H54       1.0  0.33130  0.62640  0.40450  1.0000 0.1203500037
H   H55       1.0  0.58840  0.79350  0.32970  1.0000 0.1097415593
H   H56       1.0  0.57060  0.95580  0.31510  1.0000 0.1371154113
H   H57       1.0  0.91560  0.98610  0.40330  1.0000 0.1274776222
H   H58       1.0  0.92190  0.81990  0.41240  1.0000 0.1097415593
H   H59       1.0  0.65790  0.11840  0.32600  1.0000 0.1274776222
H   H60       1.0  0.88820  0.13990  0.39090  1.0000 0.1274776222
H   H61       1.0  0.63730  0.26080  0.28090  1.0000 0.1274776222
H   H62       1.0  0.62650  0.42600  0.27370  1.0000 0.1010262766
H   H63       1.0  0.94460  0.47760  0.42140  1.0000 0.1097415593
H   H64       1.0  0.96290  0.31310  0.43270  1.0000 0.1513836765
C   C1        1.0  0.35550  0.15440  0.89040  1.0000 0.0900138628
C   C2        1.0  0.35070  0.05490  0.89180  1.0000 -0.2201260975
C   C3        1.0  0.24470  0.00350  0.86880  1.0000 0.1513836765
C   C4        1.0  0.14770  0.05730  0.84110  1.0000 -0.2075995928
C   C5        1.0  0.16110  0.15650  0.84270  1.0000 0.0900138628
C   C6        1.0  0.23240  0.89730  0.87140  1.0000 -0.1408482121
C   C7        1.0  0.31600  0.84070  0.90590  1.0000 -0.1609575323
C   C8        1.0  0.30440  0.73440  0.90700  1.0000 0.1513836765
C   C9        1.0  0.19970  0.68330  0.89270  1.0000 -0.2075995928
C   C10       1.0  0.19670  0.58470  0.88960  1.0000 0.0711294734
C   C11       1.0  0.39060  0.57790  0.91920  1.0000 0.0900138628
C   C12       1.0  0.40200  0.67720  0.92360  1.0000 -0.2006213691
C   C13       1.0  0.24510  0.37970  0.02670  1.0000 0.5371511602
C   C14       1.0  0.23180  0.37620  0.11020  1.0000 -0.0109599042
C   C15       1.0  0.11970  0.37150  0.11570  1.0000 -0.1100669902
C   C16       1.0  0.10620  0.36790  0.19140  1.0000 -0.1609575323
C   C17       1.0  0.20140  0.36790  0.26420  1.0000 0.0804724298
C   C18       1.0  0.31400  0.37590  0.25980  1.0000 0.0804724298
C   C19       1.0  0.32450  0.37850  0.17930  1.0000 -0.1528463241
C   C20       1.0  0.18890  0.36350  0.34400  1.0000 -0.1609575323
C   C21       1.0  0.28210  0.36600  0.41470  1.0000 -0.0004246242
C   C22       1.0  0.39450  0.37470  0.41040  1.0000 -0.1188618871
C   C23       1.0  0.40890  0.38070  0.33470  1.0000 -0.1528463241
C   C24       1.0  0.26890  0.36210  0.49950  1.0000 0.5337448144
C   C25       1.0  0.45010  0.37200  0.80210  1.0000 0.5597003722
C   C26       1.0  0.57060  0.36710  0.79820  1.0000 -0.0367062813
C   C27       1.0  0.59170  0.37040  0.72450  1.0000 -0.1609575323
C   C28       1.0  0.70570  0.36720  0.72000  1.0000 0.0804724298
C   C29       1.0  0.79930  0.36140  0.79360  1.0000 0.0804724298
C   C30       1.0  0.77580  0.35730  0.87040  1.0000 -0.1528463241
C   C31       1.0  0.66500  0.35790  0.87210  1.0000 -0.1100669902
C   C32       1.0  0.91370  0.36140  0.78990  1.0000 -0.1609575323
C   C33       1.0  0.93290  0.36470  0.71540  1.0000 -0.0286866515
C   C34       1.0  0.83950  0.36820  0.64150  1.0000 -0.1188618871
C   C35       1.0  0.72960  0.37020  0.64450  1.0000 -0.1408482121
C   C36       1.0  0.05490  0.36420  0.71300  1.0000 0.5597003722
C   C37       1.0  0.34440  0.16770  0.65660  1.0000 0.0900138628
C   C38       1.0  0.35650  0.06940  0.66490  1.0000 -0.2006213691
C   C39       1.0  0.25900  0.00940  0.64320  1.0000 0.1513836765
C   C40       1.0  0.15270  0.05210  0.61310  1.0000 -0.2201260975
C   C41       1.0  0.14970  0.15280  0.60790  1.0000 0.1010262766
C   C42       1.0  0.26790  0.90330  0.65150  1.0000 -0.1261373735
C   C43       1.0  0.18630  0.83900  0.63130  1.0000 -0.1408482121
C   C44       1.0  0.19790  0.73400  0.63980  1.0000 0.1513836765
C   C45       1.0  0.29870  0.69600  0.68870  1.0000 -0.2252813554
C   C46       1.0  0.30520  0.59580  0.69260  1.0000 0.0900138628
C   C47       1.0  0.11940  0.56620  0.60620  1.0000 0.0900138628
C   C48       1.0  0.10730  0.66630  0.59950  1.0000 -0.2006213691
C   C49       1.0  0.64450  0.84560  0.10960  1.0000 0.0900138628
C   C50       1.0  0.64930  0.94510  0.10820  1.0000 -0.2201260975
C   C51       1.0  0.75530  0.99650  0.13120  1.0000 0.1513836765
C   C52       1.0  0.85230  0.94270  0.15890  1.0000 -0.2075995928
C   C53       1.0  0.83890  0.84350  0.15730  1.0000 0.0900138628
C   C54       1.0  0.76760  0.10270  0.12860  1.0000 -0.1408482121
C   C55       1.0  0.68400  0.15930  0.09410  1.0000 -0.1609575323
C   C56       1.0  0.69560  0.26560  0.09300  1.0000 0.1513836765
C   C57       1.0  0.80030  0.31670  0.10730  1.0000 -0.2075995928
C   C58       1.0  0.80330  0.41530  0.11040  1.0000 0.0711294734
C   C59       1.0  0.60940  0.42210  0.08080  1.0000 0.0900138628
C   C60       1.0  0.59800  0.32280  0.07640  1.0000 -0.2006213691
C   C61       1.0  0.75490  0.62030  0.97330  1.0000 0.5371511602
C   C62       1.0  0.76820  0.62380  0.88980  1.0000 -0.0109599042
C   C63       1.0  0.88030  0.62850  0.88430  1.0000 -0.1100669902
C   C64       1.0  0.89380  0.63210  0.80860  1.0000 -0.1609575323
C   C65       1.0  0.79860  0.63210  0.73580  1.0000 0.0804724298
C   C66       1.0  0.68600  0.62410  0.74020  1.0000 0.0804724298
C   C67       1.0  0.67550  0.62150  0.82070  1.0000 -0.1528463241
C   C68       1.0  0.81110  0.63650  0.65600  1.0000 -0.1609575323
C   C69       1.0  0.71790  0.63400  0.58530  1.0000 -0.0004246242
C   C70       1.0  0.60550  0.62530  0.58960  1.0000 -0.1188618871
C   C71       1.0  0.59110  0.61930  0.66530  1.0000 -0.1528463241
C   C72       1.0  0.73110  0.63790  0.50050  1.0000 0.5337448144
C   C73       1.0  0.54990  0.62800  0.19790  1.0000 0.5597003722
C   C74       1.0  0.42940  0.63290  0.20180  1.0000 -0.0367062813
C   C75       1.0  0.40830  0.62960  0.27550  1.0000 -0.1609575323
C   C76       1.0  0.29430  0.63280  0.28000  1.0000 0.0804724298
C   C77       1.0  0.20070  0.63860  0.20640  1.0000 0.0804724298
C   C78       1.0  0.22420  0.64270  0.12960  1.0000 -0.1528463241
C   C79       1.0  0.33500  0.64210  0.12790  1.0000 -0.1049072346
C   C80       1.0  0.08630  0.63860  0.21010  1.0000 -0.1609575323
C   C81       1.0  0.06710  0.63530  0.28460  1.0000 -0.0286866515
C   C82       1.0  0.16050  0.63180  0.35850  1.0000 -0.1188618871
C   C83       1.0  0.27040  0.62980  0.35550  1.0000 -0.1408482121
C   C84       1.0  0.94510  0.63580  0.28700  1.0000 0.5597003722
C   C85       1.0  0.65560  0.83230  0.34340  1.0000 0.0900138628
C   C86       1.0  0.64350  0.93060  0.33510  1.0000 -0.2006213691
C   C87       1.0  0.74100  0.99060  0.35680  1.0000 0.1513836765
C   C88       1.0  0.84730  0.94790  0.38690  1.0000 -0.2201260975
C   C89       1.0  0.85030  0.84720  0.39210  1.0000 0.1010262766
C   C90       1.0  0.73210  0.09670  0.34850  1.0000 -0.1261373735
C   C91       1.0  0.81370  0.16100  0.36870  1.0000 -0.1408482121
C   C92       1.0  0.80210  0.26600  0.36020  1.0000 0.1513836765
C   C93       1.0  0.70130  0.30400  0.31130  1.0000 -0.2252813554
C   C94       1.0  0.69480  0.40420  0.30740  1.0000 0.0900138628
C   C95       1.0  0.88060  0.43380  0.39380  1.0000 0.0900138628
C   C96       1.0  0.89270  0.33370  0.40050  1.0000 -0.2006213691
N   N1        1.0  0.26160  0.20690  0.86760  1.0000 -0.2201260975
N   N2        1.0  0.29020  0.52810  0.90120  1.0000 -0.2382227854
N   N3        1.0  0.24360  0.21160  0.63030  1.0000 -0.2382227854
N   N4        1.0  0.21780  0.52930  0.65020  1.0000 -0.2382227854
N   N5        1.0  0.73840  0.79310  0.13240  1.0000 -0.2201260975
N   N6        1.0  0.70980  0.47190  0.09880  1.0000 -0.2382227854
N   N7        1.0  0.75640  0.78840  0.36970  1.0000 -0.2382227854
N   N8        1.0  0.78220  0.47070  0.34980  1.0000 -0.2382227854
O   O1        1.0  0.15750  0.38260  0.96351  1.0000 -0.5509262061
O   O2        1.0  0.34520  0.37610  0.01931  1.0000 -0.5509262061
O   O3        1.0  0.35380  0.36730  0.56400  1.0000 -0.5298668123
O   O4        1.0  0.16700  0.35220  0.50216  1.0000 -0.5582354939
O   O5        1.0  0.43340  0.34970  0.86662  1.0000 -0.5582354939
O   O6        1.0  0.37290  0.39980  0.74400  1.0000 -0.5698528862
O   O7        1.0  0.13640  0.36010  0.77885  1.0000 -0.5698528862
O   O8        1.0  0.06930  0.36730  0.64366  1.0000 -0.5426483727
O   O9        1.0  0.84250  0.61740  0.03649  1.0000 -0.5509262061
O   O10       1.0  0.65480  0.62390  0.98069  1.0000 -0.5509262061
O   O11       1.0  0.64620  0.63270  0.43600  1.0000 -0.5298668123
O   O12       1.0  0.83300  0.64780  0.49784  1.0000 -0.5582354939
O   O13       1.0  0.56660  0.65030  0.13338  1.0000 -0.5582354939
O   O14       1.0  0.62710  0.60020  0.25600  1.0000 -0.5698528862
O   O15       1.0  0.86360  0.63990  0.22115  1.0000 -0.5698528862
O   O16       1.0  0.93070  0.63270  0.35634  1.0000 -0.5426483727
