# DDEC6 charges by PACMAN v1.1 (https://github.com/mtap-research/PACMAN-charge/)
data_2012[Fe][nan]3[FSR]7
_chemical_formula_sum              "Fe6 H6 C24 O18"
_cell_length_a       15.2317
_cell_length_b       15.2317
_cell_length_c       15.2317
_cell_angle_alpha    117.791
_cell_angle_beta     117.791
_cell_angle_gamma    117.791

_symmetry_space_group_name_H-M    "P 1"
_symmetry_Int_Tables_number       1

loop_
  _symmetry_equiv_pos_as_xyz
  'x, y, z'

loop_
  _atom_site_type_symbol
  _atom_site_label
  _atom_site_symmetry_multiplicity
  _atom_site_fract_x
  _atom_site_fract_y
  _atom_site_fract_z
  _atom_site_occupancy
  _atom_site_charge
Fe  Fe1       1.0  0.11323  0.52439  0.79258  1.0000 0.9839764135
Fe  Fe2       1.0  0.52439  0.79258  0.11323  1.0000 0.9839764135
Fe  Fe3       1.0  0.79258  0.11323  0.52439  1.0000 0.9839764135
Fe  Fe4       1.0  0.88677  0.47561  0.20742  1.0000 0.9839764135
Fe  Fe5       1.0  0.47561  0.20742  0.88677  1.0000 0.9839764135
Fe  Fe6       1.0  0.20742  0.88677  0.47561  1.0000 0.9839764135
H   H1        1.0  0.34330  0.80580  0.36290  1.0000 0.1463155595
H   H2        1.0  0.80580  0.36290  0.34330  1.0000 0.1463155595
H   H3        1.0  0.36290  0.34330  0.80580  1.0000 0.1463155595
H   H4        1.0  0.65670  0.19420  0.63710  1.0000 0.1463155595
H   H5        1.0  0.19420  0.63710  0.65670  1.0000 0.1463155595
H   H6        1.0  0.63710  0.65670  0.19420  1.0000 0.1463155595
C   C1        1.0  0.34835  0.73601  0.17444  1.0000 0.6132549343
C   C2        1.0  0.73601  0.17444  0.34835  1.0000 0.6132549343
C   C3        1.0  0.17444  0.34835  0.73601  1.0000 0.6132549343
C   C4        1.0  0.65165  0.26399  0.82556  1.0000 0.6132549343
C   C5        1.0  0.26399  0.82556  0.65165  1.0000 0.6132549343
C   C6        1.0  0.82556  0.65165  0.26399  1.0000 0.6132549343
C   C7        1.0  0.16591  0.61188  0.08261  1.0000 -0.1091475564
C   C8        1.0  0.61188  0.08261  0.16591  1.0000 -0.1091475564
C   C9        1.0  0.08261  0.16591  0.61188  1.0000 -0.1091475564
C   C10       1.0  0.83409  0.38812  0.91739  1.0000 -0.1091475564
C   C11       1.0  0.38812  0.91739  0.83409  1.0000 -0.1091475564
C   C12       1.0  0.91739  0.83409  0.38812  1.0000 -0.1091475564
C   C13       1.0  0.96715  0.42695  0.86270  1.0000 0.246337642
C   C14       1.0  0.42695  0.86270  0.96715  1.0000 0.246337642
C   C15       1.0  0.86270  0.96715  0.42695  1.0000 0.246337642
C   C16       1.0  0.03285  0.57305  0.13730  1.0000 0.246337642
C   C17       1.0  0.57305  0.13730  0.03285  1.0000 0.246337642
C   C18       1.0  0.13730  0.03285  0.57305  1.0000 0.246337642
C   C19       1.0  0.19879  0.68091  0.20900  1.0000 -0.1890624317
C   C20       1.0  0.68091  0.20900  0.19879  1.0000 -0.1890624317
C   C21       1.0  0.20900  0.19879  0.68091  1.0000 -0.1890624317
C   C22       1.0  0.80121  0.31909  0.79100  1.0000 -0.1890624317
C   C23       1.0  0.31909  0.79100  0.80121  1.0000 -0.1890624317
C   C24       1.0  0.79100  0.80121  0.31909  1.0000 -0.1890624317
O   O1        1.0  0.32227  0.68003  0.05880  1.0000 -0.5738563838
O   O2        1.0  0.68003  0.05880  0.32227  1.0000 -0.5738563838
O   O3        1.0  0.05880  0.32227  0.68003  1.0000 -0.5738563838
O   O4        1.0  0.67773  0.31997  0.94120  1.0000 -0.5738563838
O   O5        1.0  0.31997  0.94120  0.67773  1.0000 -0.5738563838
O   O6        1.0  0.94120  0.67773  0.31997  1.0000 -0.5738563838
O   O7        1.0  0.51800  0.89310  0.36160  1.0000 -0.5111914975
O   O8        1.0  0.89310  0.36160  0.51800  1.0000 -0.5111914975
O   O9        1.0  0.36160  0.51800  0.89310  1.0000 -0.5111914975
O   O10       1.0  0.48200  0.10690  0.63840  1.0000 -0.5111914975
O   O11       1.0  0.10690  0.63840  0.48200  1.0000 -0.5111914975
O   O12       1.0  0.63840  0.48200  0.10690  1.0000 -0.5111914975
O   O13       1.0  0.93458  0.35810  0.73432  1.0000 -0.6066266798
O   O14       1.0  0.35810  0.73432  0.93458  1.0000 -0.6066266798
O   O15       1.0  0.73432  0.93458  0.35810  1.0000 -0.6066266798
O   O16       1.0  0.06542  0.64190  0.26568  1.0000 -0.6066266798
O   O17       1.0  0.64190  0.26568  0.06542  1.0000 -0.6066266798
O   O18       1.0  0.26568  0.06542  0.64190  1.0000 -0.6066266798
