# DDEC6 charges by PACMAN v1.1 (https://github.com/mtap-research/PACMAN-charge/)
data_2012[Cu][ths]3[FSR]1
_chemical_formula_sum              "Cu8 C24 O48"
_cell_length_a       8.636
_cell_length_b       34.0813
_cell_length_c       8.7156
_cell_angle_alpha    90
_cell_angle_beta     107.632
_cell_angle_gamma    90

_symmetry_space_group_name_H-M    "P 1"
_symmetry_Int_Tables_number       1

loop_
  _symmetry_equiv_pos_as_xyz
  'x, y, z'

loop_
  _atom_site_type_symbol
  _atom_site_label
  _atom_site_symmetry_multiplicity
  _atom_site_fract_x
  _atom_site_fract_y
  _atom_site_fract_z
  _atom_site_occupancy
  _atom_site_charge
Cu  Cu1       1.0  0.51715  0.79649  0.25048  1.0000 0.9173189089
Cu  Cu2       1.0  0.98285  0.29649  0.74952  1.0000 0.9173189089
Cu  Cu3       1.0  0.48285  0.20351  0.74952  1.0000 0.9173189089
Cu  Cu4       1.0  0.01715  0.70351  0.25048  1.0000 0.9173189089
Cu  Cu5       1.0  0.50139  0.95440  0.26140  1.0000 0.9076512441
Cu  Cu6       1.0  0.99861  0.45440  0.73860  1.0000 0.9076512441
Cu  Cu7       1.0  0.49861  0.04560  0.73860  1.0000 0.9076512441
Cu  Cu8       1.0  0.00139  0.54560  0.26140  1.0000 0.9076512441
C   C1        1.0  0.43660  0.87670  0.18130  1.0000 0.5664181546
C   C2        1.0  0.06340  0.37670  0.81870  1.0000 0.5664181546
C   C3        1.0  0.56340  0.12330  0.81870  1.0000 0.5664181546
C   C4        1.0  0.93660  0.62330  0.18130  1.0000 0.5664181546
C   C5        1.0  0.59260  0.87402  0.33010  1.0000 0.5570866451
C   C6        1.0  0.90740  0.37402  0.66990  1.0000 0.5570866451
C   C7        1.0  0.40740  0.12598  0.66990  1.0000 0.5570866451
C   C8        1.0  0.09260  0.62598  0.33010  1.0000 0.5570866451
C   C9        1.0  0.27830  0.74133  0.18770  1.0000 0.5485131875
C   C10       1.0  0.22170  0.24133  0.81230  1.0000 0.5485131875
C   C11       1.0  0.72170  0.25867  0.81230  1.0000 0.5485131875
C   C12       1.0  0.77830  0.75867  0.18770  1.0000 0.5485131875
C   C13       1.0  0.26530  0.76367  0.33800  1.0000 0.5295581107
C   C14       1.0  0.23470  0.26367  0.66200  1.0000 0.5295581107
C   C15       1.0  0.73470  0.23633  0.66200  1.0000 0.5295581107
C   C16       1.0  0.76530  0.73633  0.33800  1.0000 0.5295581107
C   C17       1.0  0.57870  0.98872  0.99950  1.0000 0.5485131875
C   C18       1.0  0.92130  0.48872  0.00050  1.0000 0.5485131875
C   C19       1.0  0.42130  0.01128  0.00050  1.0000 0.5485131875
C   C20       1.0  0.07870  0.51128  0.99950  1.0000 0.5485131875
C   C21       1.0  0.43010  0.98792  0.51490  1.0000 0.5361770675
C   C22       1.0  0.06990  0.48792  0.48510  1.0000 0.5361770675
C   C23       1.0  0.56990  0.01208  0.48510  1.0000 0.5295581107
C   C24       1.0  0.93010  0.51208  0.51490  1.0000 0.5295581107
O   O1        1.0  0.38773  0.84628  0.10470  1.0000 -0.4102071911
O   O2        1.0  0.11227  0.34628  0.89530  1.0000 -0.4102071911
O   O3        1.0  0.61227  0.15372  0.89530  1.0000 -0.4102071911
O   O4        1.0  0.88773  0.65372  0.10470  1.0000 -0.4102071911
O   O5        1.0  0.37154  0.90999  0.14994  1.0000 -0.4378616825
O   O6        1.0  0.12846  0.40999  0.85006  1.0000 -0.433783935
O   O7        1.0  0.62846  0.09001  0.85006  1.0000 -0.433783935
O   O8        1.0  0.87154  0.59001  0.14994  1.0000 -0.4378616825
O   O9        1.0  0.63933  0.83990  0.37835  1.0000 -0.4497958564
O   O10       1.0  0.86067  0.33990  0.62165  1.0000 -0.4497958564
O   O11       1.0  0.36067  0.16010  0.62165  1.0000 -0.4497958564
O   O12       1.0  0.13933  0.66010  0.37835  1.0000 -0.4497958564
O   O13       1.0  0.65972  0.90490  0.38774  1.0000 -0.4102071911
O   O14       1.0  0.84028  0.40490  0.61226  1.0000 -0.4102071911
O   O15       1.0  0.34028  0.09510  0.61226  1.0000 -0.4102071911
O   O16       1.0  0.15972  0.59510  0.38774  1.0000 -0.4102071911
O   O17       1.0  0.35562  0.79389  0.37609  1.0000 -0.4560349301
O   O18       1.0  0.14438  0.29389  0.62391  1.0000 -0.4497958564
O   O19       1.0  0.64438  0.20611  0.62391  1.0000 -0.4497958564
O   O20       1.0  0.85562  0.70611  0.37609  1.0000 -0.4560349301
O   O21       1.0  0.17262  0.75170  0.41039  1.0000 -0.3783220664
O   O22       1.0  0.32738  0.25170  0.58961  1.0000 -0.3783220664
O   O23       1.0  0.82738  0.24830  0.58961  1.0000 -0.3783220664
O   O24       1.0  0.67262  0.74830  0.41039  1.0000 -0.3783220664
O   O25       1.0  0.38178  0.75386  0.12472  1.0000 -0.4497958564
O   O26       1.0  0.11822  0.25386  0.87528  1.0000 -0.4497958564
O   O27       1.0  0.61822  0.24614  0.87528  1.0000 -0.4497958564
O   O28       1.0  0.88178  0.74614  0.12472  1.0000 -0.4497958564
O   O29       1.0  0.18764  0.71249  0.13983  1.0000 -0.4170193761
O   O30       1.0  0.31236  0.21249  0.86017  1.0000 -0.4170193761
O   O31       1.0  0.81236  0.28751  0.86017  1.0000 -0.4170193761
O   O32       1.0  0.68764  0.78751  0.13983  1.0000 -0.4170193761
O   O33       1.0  0.61595  0.95934  0.09343  1.0000 -0.4497958564
O   O34       1.0  0.88405  0.45934  0.90657  1.0000 -0.4497958564
O   O35       1.0  0.38405  0.04066  0.90657  1.0000 -0.4497958564
O   O36       1.0  0.11595  0.54066  0.09343  1.0000 -0.4497958564
O   O37       1.0  0.65590  0.00022  0.91095  1.0000 -0.3783220664
O   O38       1.0  0.84410  0.50022  0.08905  1.0000 -0.3783220664
O   O39       1.0  0.34410  0.99978  0.08905  1.0000 -0.3783220664
O   O40       1.0  0.15590  0.49978  0.91095  1.0000 -0.3783220664
O   O41       1.0  0.38596  0.95805  0.42958  1.0000 -0.4378616825
O   O42       1.0  0.11404  0.45805  0.57042  1.0000 -0.4378616825
O   O43       1.0  0.61404  0.04195  0.57042  1.0000 -0.4378616825
O   O44       1.0  0.88596  0.54195  0.42958  1.0000 -0.4378616825
O   O45       1.0  0.37228  0.00023  0.62075  1.0000 -0.4378616825
O   O46       1.0  0.12772  0.50023  0.37925  1.0000 -0.4378616825
O   O47       1.0  0.62772  0.99977  0.37925  1.0000 -0.4378616825
O   O48       1.0  0.87228  0.49977  0.62075  1.0000 -0.4378616825
