# DDEC6 charges by PACMAN v1.1 (https://github.com/mtap-research/PACMAN-charge/)
data_2012[Cu][tfw]3[FSR]2
_chemical_formula_sum              "Cu4 H28 C34 N20 O8"
_cell_length_a       15.0567
_cell_length_b       15.0567
_cell_length_c       9.2741
_cell_angle_alpha    87.4756
_cell_angle_beta     92.5244
_cell_angle_gamma    143.662

_symmetry_space_group_name_H-M    "P 1"
_symmetry_Int_Tables_number       1

loop_
  _symmetry_equiv_pos_as_xyz
  'x, y, z'

loop_
  _atom_site_type_symbol
  _atom_site_label
  _atom_site_symmetry_multiplicity
  _atom_site_fract_x
  _atom_site_fract_y
  _atom_site_fract_z
  _atom_site_occupancy
  _atom_site_charge
Cu  Cu1       1.0  0.02313  0.63821  0.87996  1.0000 0.6187791315
Cu  Cu2       1.0  0.63821  0.02313  0.62004  1.0000 0.6187791315
Cu  Cu3       1.0  0.97687  0.36179  0.12004  1.0000 0.6187791315
Cu  Cu4       1.0  0.36179  0.97687  0.37996  1.0000 0.6187791315
H   H1        1.0  0.54960  0.29560  0.14310  1.0000 0.1502229361
H   H2        1.0  0.29560  0.54960  0.35690  1.0000 0.1502229361
H   H3        1.0  0.45040  0.70440  0.85690  1.0000 0.1502229361
H   H4        1.0  0.70440  0.45040  0.64310  1.0000 0.1502229361
H   H5        1.0  0.73470  0.36830  0.03560  1.0000 0.1111436052
H   H6        1.0  0.36830  0.73470  0.46440  1.0000 0.1111436052
H   H7        1.0  0.26530  0.63170  0.96440  1.0000 0.1111436052
H   H8        1.0  0.63170  0.26530  0.53560  1.0000 0.1111436052
H   H9        1.0  0.77160  0.70140  0.04340  1.0000 0.1381382582
H   H10       1.0  0.70140  0.77160  0.45660  1.0000 0.1381382582
H   H11       1.0  0.22840  0.29860  0.95660  1.0000 0.1381382582
H   H12       1.0  0.29860  0.22840  0.54340  1.0000 0.1381382582
H   H13       1.0  0.94800  0.76000  0.93070  1.0000 0.1209354749
H   H14       1.0  0.76000  0.94800  0.56930  1.0000 0.1209354749
H   H15       1.0  0.05200  0.24000  0.06930  1.0000 0.1209354749
H   H16       1.0  0.24000  0.05200  0.43070  1.0000 0.1209354749
H   H17       1.0  0.43920  0.39660  0.10830  1.0000 0.1209354749
H   H18       1.0  0.39660  0.43920  0.39170  1.0000 0.1209354749
H   H19       1.0  0.56080  0.60340  0.89170  1.0000 0.1209354749
H   H20       1.0  0.60340  0.56080  0.60830  1.0000 0.1209354749
H   H21       1.0  0.47130  0.36730  0.25440  1.0000 0.1209354749
H   H22       1.0  0.36730  0.47130  0.24560  1.0000 0.1209354749
H   H23       1.0  0.52870  0.63270  0.74560  1.0000 0.1209354749
H   H24       1.0  0.63270  0.52870  0.75440  1.0000 0.1209354749
H   H25       1.0  0.64520  0.61480  0.32240  1.0000 0.0987259087
H   H26       1.0  0.61480  0.64520  0.17760  1.0000 0.0987259087
H   H27       1.0  0.35480  0.38520  0.67760  1.0000 0.0987259087
H   H28       1.0  0.38520  0.35480  0.82240  1.0000 0.0987259087
C   C1        1.0  0.63110  0.39230  0.10220  1.0000 -0.1878765138
C   C2        1.0  0.39230  0.63110  0.39780  1.0000 -0.1878765138
C   C3        1.0  0.36890  0.60770  0.89780  1.0000 -0.1878765138
C   C4        1.0  0.60770  0.36890  0.60220  1.0000 -0.1878765138
C   C5        1.0  0.74160  0.43620  0.03680  1.0000 0.0935373095
C   C6        1.0  0.43620  0.74160  0.46320  1.0000 0.0935373095
C   C7        1.0  0.25840  0.56380  0.96320  1.0000 0.0935373095
C   C8        1.0  0.56380  0.25840  0.53680  1.0000 0.0935373095
C   C9        1.0  0.76110  0.63090  0.04260  1.0000 -0.2087286698
C   C10       1.0  0.63090  0.76110  0.45740  1.0000 -0.2087286698
C   C11       1.0  0.23890  0.36910  0.95740  1.0000 -0.2087286698
C   C12       1.0  0.36910  0.23890  0.54260  1.0000 -0.2087286698
C   C13       1.0  0.63880  0.49100  0.10840  1.0000 0.1773481754
C   C14       1.0  0.49100  0.63880  0.39160  1.0000 0.1773481754
C   C15       1.0  0.36120  0.50900  0.89160  1.0000 0.1773481754
C   C16       1.0  0.50900  0.36120  0.60840  1.0000 0.1773481754
C   C17       1.0  0.86720  0.66580  0.97620  1.0000 0.0987259087
C   C18       1.0  0.66580  0.86720  0.52380  1.0000 0.0987259087
C   C19       1.0  0.13280  0.33420  0.02380  1.0000 0.0987259087
C   C20       1.0  0.33420  0.13280  0.47620  1.0000 0.0987259087
C   C21       1.0  0.51710  0.44350  0.18040  1.0000 -0.2647758039
C   C22       1.0  0.44350  0.51710  0.31960  1.0000 -0.2647758039
C   C23       1.0  0.48290  0.55650  0.81960  1.0000 -0.2647758039
C   C24       1.0  0.55650  0.48290  0.68040  1.0000 -0.2647758039
C   C25       1.0  0.56910  0.56910  0.25000  1.0000 -0.1423525872
C   C26       1.0  0.43090  0.43090  0.75000  1.0000 -0.1423525872
C   C27       1.0  0.20510  0.79870  0.14040  1.0000 0.1381382582
C   C28       1.0  0.79870  0.20510  0.35960  1.0000 0.1381382582
C   C29       1.0  0.79490  0.20130  0.85960  1.0000 0.1381382582
C   C30       1.0  0.20130  0.79490  0.64040  1.0000 0.1381382582
C   C31       1.0  0.25680  0.93240  0.09920  1.0000 0.5357079891
C   C32       1.0  0.93240  0.25680  0.40080  1.0000 0.5357079891
C   C33       1.0  0.74320  0.06760  0.90080  1.0000 0.5357079891
C   C34       1.0  0.06760  0.74320  0.59920  1.0000 0.5357079891
N   N1        1.0  0.85977  0.57123  0.97400  1.0000 -0.2087286698
N   N2        1.0  0.57123  0.85977  0.52600  1.0000 -0.2087286698
N   N3        1.0  0.14023  0.42877  0.02600  1.0000 -0.2087286698
N   N4        1.0  0.42877  0.14023  0.47400  1.0000 -0.2087286698
N   N5        1.0  0.11548  0.67232  0.07230  1.0000 -0.1950320365
N   N6        1.0  0.67232  0.11548  0.42770  1.0000 -0.1950320365
N   N7        1.0  0.88452  0.32768  0.92770  1.0000 -0.1950320365
N   N8        1.0  0.32768  0.88452  0.57230  1.0000 -0.1950320365
N   N9        1.0  0.10113  0.58867  0.15920  1.0000 -0.0829184453
N   N10       1.0  0.58867  0.10113  0.34080  1.0000 -0.0829184453
N   N11       1.0  0.89887  0.41133  0.84080  1.0000 -0.0829184453
N   N12       1.0  0.41133  0.89887  0.65920  1.0000 -0.0829184453
N   N13       1.0  0.17905  0.66195  0.27970  1.0000 -0.0565213213
N   N14       1.0  0.66195  0.17905  0.22030  1.0000 -0.0565213213
N   N15       1.0  0.82095  0.33805  0.72030  1.0000 -0.0565213213
N   N16       1.0  0.33805  0.82095  0.77970  1.0000 -0.0565213213
N   N17       1.0  0.24507  0.79513  0.26900  1.0000 -0.2087286698
N   N18       1.0  0.79513  0.24507  0.23100  1.0000 -0.2087286698
N   N19       1.0  0.75493  0.20487  0.73100  1.0000 -0.2087286698
N   N20       1.0  0.20487  0.75493  0.76900  1.0000 -0.2087286698
O   O1        1.0  0.33430  0.02890  0.19830  1.0000 -0.5132632764
O   O2        1.0  0.02890  0.33430  0.30170  1.0000 -0.5132632764
O   O3        1.0  0.66570  0.97110  0.80170  1.0000 -0.5132632764
O   O4        1.0  0.97110  0.66570  0.69830  1.0000 -0.5132632764
O   O5        1.0  0.22222  0.93718  0.97960  1.0000 -0.5255242052
O   O6        1.0  0.93718  0.22222  0.52040  1.0000 -0.5255242052
O   O7        1.0  0.77778  0.06282  0.02040  1.0000 -0.5255242052
O   O8        1.0  0.06282  0.77778  0.47960  1.0000 -0.5255242052
