# DDEC6 charges by PACMAN v1.1 (https://github.com/mtap-research/PACMAN-charge/)
data_2012[SmCo][nan]3[FSR]1
_chemical_formula_sum              "Sm4 Co6 H40 C80 N16 O52"
_cell_length_a       10.446
_cell_length_b       7.5939
_cell_length_c       30.513
_cell_angle_alpha    90
_cell_angle_beta     99
_cell_angle_gamma    90

_symmetry_space_group_name_H-M    "P 1"
_symmetry_Int_Tables_number       1

loop_
  _symmetry_equiv_pos_as_xyz
  'x, y, z'

loop_
  _atom_site_type_symbol
  _atom_site_label
  _atom_site_symmetry_multiplicity
  _atom_site_fract_x
  _atom_site_fract_y
  _atom_site_fract_z
  _atom_site_occupancy
  _atom_site_charge
Sm  Sm1       1.0  0.55075  0.36944  0.76805  1.0000 2.1116487644
Sm  Sm2       1.0  0.44925  0.86944  0.73195  1.0000 2.1116487644
Sm  Sm3       1.0  0.44925  0.63056  0.23195  1.0000 2.1116487644
Sm  Sm4       1.0  0.55075  0.13056  0.26805  1.0000 2.1116487644
Co  Co1       1.0  0.00000  0.50000  0.00000  1.0000 0.8245687745
Co  Co2       1.0  1.00000  0.00000  0.50000  1.0000 0.8245687745
Co  Co3       1.0  0.28611  0.55068  0.86990  1.0000 0.9312398246
Co  Co4       1.0  0.71389  0.05068  0.63010  1.0000 0.9312398246
Co  Co5       1.0  0.71389  0.44932  0.13010  1.0000 0.9312398246
Co  Co6       1.0  0.28611  0.94932  0.36990  1.0000 0.9312398246
H   H1        1.0  0.75540  0.55080  0.91770  1.0000 0.1501276641
H   H2        1.0  0.24460  0.05080  0.58230  1.0000 0.1501276641
H   H3        1.0  0.24460  0.44920  0.08230  1.0000 0.1501276641
H   H4        1.0  0.75540  0.94920  0.41770  1.0000 0.1501276641
H   H5        1.0  0.79800  0.15070  0.87720  1.0000 0.1501276641
H   H6        1.0  0.20200  0.65070  0.62280  1.0000 0.1501276641
H   H7        1.0  0.20200  0.84930  0.12280  1.0000 0.1501276641
H   H8        1.0  0.79800  0.34930  0.37720  1.0000 0.1501276641
H   H9        1.0  0.12480  0.87880  0.98570  1.0000 0.1188943721
H   H10       1.0  0.87520  0.37880  0.51430  1.0000 0.1188943721
H   H11       1.0  0.87520  0.12120  0.01430  1.0000 0.1188943721
H   H12       1.0  0.12480  0.62120  0.48570  1.0000 0.1188943721
H   H13       1.0  0.92180  0.18160  0.78240  1.0000 0.1582160703
H   H14       1.0  0.07820  0.68160  0.71760  1.0000 0.1582160703
H   H15       1.0  0.07820  0.81840  0.21760  1.0000 0.1582160703
H   H16       1.0  0.92180  0.31840  0.28240  1.0000 0.1582160703
H   H17       1.0  0.97320  0.57030  0.81420  1.0000 0.1501276641
H   H18       1.0  0.02680  0.07030  0.68580  1.0000 0.1501276641
H   H19       1.0  0.02680  0.42970  0.18580  1.0000 0.1501276641
H   H20       1.0  0.97320  0.92970  0.31420  1.0000 0.1501276641
H   H21       1.0  0.31020  0.96870  0.87550  1.0000 0.1188943721
H   H22       1.0  0.68980  0.46870  0.62450  1.0000 0.1188943721
H   H23       1.0  0.68980  0.03130  0.12450  1.0000 0.1188943721
H   H24       1.0  0.31020  0.53130  0.37550  1.0000 0.1188943721
H   H25       1.0  0.03110  0.10820  0.93780  1.0000 0.3017283938
H   H26       1.0  0.96890  0.60820  0.56220  1.0000 0.3017283938
H   H27       1.0  0.96890  0.89180  0.06220  1.0000 0.3017283938
H   H28       1.0  0.03110  0.39180  0.43780  1.0000 0.3017283938
H   H29       1.0  0.16610  0.18520  0.83920  1.0000 0.3081552348
H   H30       1.0  0.83390  0.68520  0.66080  1.0000 0.3081552348
H   H31       1.0  0.83390  0.81480  0.16080  1.0000 0.3081552348
H   H32       1.0  0.16610  0.31480  0.33920  1.0000 0.3081552348
H   H33       1.0  0.41840  0.28040  0.91200  1.0000 0.3780539594
H   H34       1.0  0.58160  0.78040  0.58800  1.0000 0.3780539594
H   H35       1.0  0.58160  0.71960  0.08800  1.0000 0.3780539594
H   H36       1.0  0.41840  0.21960  0.41200  1.0000 0.3780539594
H   H37       1.0  0.44540  0.29160  0.86690  1.0000 0.3862329981
H   H38       1.0  0.55460  0.79160  0.63310  1.0000 0.3862329981
H   H39       1.0  0.55460  0.70840  0.13310  1.0000 0.3862329981
H   H40       1.0  0.44540  0.20840  0.36690  1.0000 0.3862329981
C   C1        1.0  0.10530  0.43060  0.92301  1.0000 0.4507016352
C   C2        1.0  0.89470  0.93060  0.57699  1.0000 0.4507016352
C   C3        1.0  0.89470  0.56940  0.07699  1.0000 0.4507016352
C   C4        1.0  0.10530  0.06940  0.42301  1.0000 0.4507016352
C   C5        1.0  0.21030  0.52910  0.95506  1.0000 0.4507016352
C   C6        1.0  0.78970  0.02910  0.54494  1.0000 0.4507016352
C   C7        1.0  0.78970  0.47090  0.04494  1.0000 0.4507016352
C   C8        1.0  0.21030  0.97090  0.45506  1.0000 0.4507016352
C   C9        1.0  0.55430  0.64650  0.86005  1.0000 0.6516806743
C   C10       1.0  0.44570  0.14650  0.63995  1.0000 0.6516806743
C   C11       1.0  0.44570  0.35350  0.13995  1.0000 0.6516806743
C   C12       1.0  0.55430  0.85350  0.36005  1.0000 0.6516806743
C   C13       1.0  0.67280  0.75170  0.87801  1.0000 -0.0188352937
C   C14       1.0  0.32720  0.25170  0.62199  1.0000 -0.0188352937
C   C15       1.0  0.32720  0.24830  0.12199  1.0000 -0.0188352937
C   C16       1.0  0.67280  0.74830  0.37801  1.0000 -0.0188352937
C   C17       1.0  0.76350  0.67060  0.90960  1.0000 -0.1811816816
C   C18       1.0  0.23650  0.17060  0.59040  1.0000 -0.1811816816
C   C19       1.0  0.23650  0.32940  0.09040  1.0000 -0.1811816816
C   C20       1.0  0.76350  0.82940  0.40960  1.0000 -0.1811816816
C   C21       1.0  0.86720  0.77430  0.92894  1.0000 0.1404977402
C   C22       1.0  0.13280  0.27430  0.57106  1.0000 0.1404977402
C   C23       1.0  0.13280  0.22570  0.07106  1.0000 0.1404977402
C   C24       1.0  0.86720  0.72570  0.42894  1.0000 0.1404977402
C   C25       1.0  0.88090  0.94790  0.91582  1.0000 0.1188943721
C   C26       1.0  0.11910  0.44790  0.58418  1.0000 0.1188943721
C   C27       1.0  0.11910  0.05210  0.08418  1.0000 0.1188943721
C   C28       1.0  0.88090  0.55210  0.41582  1.0000 0.1188943721
C   C29       1.0  0.78900  0.03090  0.88517  1.0000 -0.1811816816
C   C30       1.0  0.21100  0.53090  0.61483  1.0000 -0.1811816816
C   C31       1.0  0.21100  0.96910  0.11483  1.0000 -0.1851439514
C   C32       1.0  0.78900  0.46910  0.38517  1.0000 -0.1811816816
C   C33       1.0  0.68380  0.93150  0.86664  1.0000 -0.0710300078
C   C34       1.0  0.31620  0.43150  0.63336  1.0000 -0.0710300078
C   C35       1.0  0.31620  0.06850  0.13336  1.0000 -0.0710300078
C   C36       1.0  0.68380  0.56850  0.36664  1.0000 -0.0710300078
C   C37       1.0  0.58520  0.01050  0.83186  1.0000 0.6329654715
C   C38       1.0  0.41480  0.51050  0.66814  1.0000 0.6329654715
C   C39       1.0  0.41480  0.98950  0.16814  1.0000 0.6329654715
C   C40       1.0  0.58520  0.48950  0.33186  1.0000 0.6329654715
C   C41       1.0  0.04520  0.87180  0.96584  1.0000 0.1662570051
C   C42       1.0  0.95480  0.37180  0.53416  1.0000 0.1662570051
C   C43       1.0  0.95480  0.12820  0.03416  1.0000 0.1662570051
C   C44       1.0  0.04520  0.62820  0.46584  1.0000 0.1662570051
C   C45       1.0  0.73640  0.99970  0.73277  1.0000 0.6351139209
C   C46       1.0  0.26360  0.49970  0.76723  1.0000 0.6351139209
C   C47       1.0  0.26360  0.00030  0.26723  1.0000 0.6329654715
C   C48       1.0  0.73640  0.50030  0.23277  1.0000 0.6329654715
C   C49       1.0  0.84100  0.93760  0.76953  1.0000 -0.0188352937
C   C50       1.0  0.15900  0.43760  0.73047  1.0000 -0.0188352937
C   C51       1.0  0.15900  0.06240  0.23047  1.0000 -0.0188352937
C   C52       1.0  0.84100  0.56240  0.26953  1.0000 -0.0188352937
C   C53       1.0  0.93250  0.05900  0.78811  1.0000 -0.2113562675
C   C54       1.0  0.06750  0.55900  0.71189  1.0000 -0.2113562675
C   C55       1.0  0.06750  0.94100  0.21189  1.0000 -0.2113562675
C   C56       1.0  0.93250  0.44100  0.28811  1.0000 -0.2113562675
C   C57       1.0  0.04090  0.99280  0.81553  1.0000 0.1501276641
C   C58       1.0  0.95910  0.49280  0.68447  1.0000 0.1501276641
C   C59       1.0  0.95910  0.00720  0.18447  1.0000 0.1501276641
C   C60       1.0  0.04090  0.50720  0.31553  1.0000 0.1501276641
C   C61       1.0  0.05950  0.81190  0.82441  1.0000 0.1404977402
C   C62       1.0  0.94050  0.31190  0.67559  1.0000 0.1404977402
C   C63       1.0  0.94050  0.18810  0.17559  1.0000 0.1404977402
C   C64       1.0  0.05950  0.68810  0.32441  1.0000 0.1404977402
C   C65       1.0  0.96400  0.69210  0.80739  1.0000 -0.1531431564
C   C66       1.0  0.03600  0.19210  0.69261  1.0000 -0.1531431564
C   C67       1.0  0.03600  0.30790  0.19261  1.0000 -0.1531431564
C   C68       1.0  0.96400  0.80790  0.30739  1.0000 -0.1531431564
C   C69       1.0  0.85470  0.75550  0.78003  1.0000 -0.0710300078
C   C70       1.0  0.14530  0.25550  0.71997  1.0000 -0.0710300078
C   C71       1.0  0.14530  0.24450  0.21997  1.0000 -0.0710300078
C   C72       1.0  0.85470  0.74450  0.28003  1.0000 -0.0710300078
C   C73       1.0  0.74960  0.62690  0.76507  1.0000 0.6119541488
C   C74       1.0  0.25040  0.12690  0.73493  1.0000 0.6119541488
C   C75       1.0  0.25040  0.37310  0.23493  1.0000 0.6119541488
C   C76       1.0  0.74960  0.87310  0.26507  1.0000 0.6119541488
C   C77       1.0  0.22820  0.94570  0.85816  1.0000 0.195327606
C   C78       1.0  0.77180  0.44570  0.64184  1.0000 0.1947873942
C   C79       1.0  0.77180  0.05430  0.14184  1.0000 0.1947873942
C   C80       1.0  0.22820  0.55430  0.35816  1.0000 0.195327606
N   N1        1.0  0.97130  0.73160  0.96121  1.0000 -0.3745908775
N   N2        1.0  0.02870  0.23160  0.53879  1.0000 -0.3745908775
N   N3        1.0  0.02870  0.26840  0.03879  1.0000 -0.3745908775
N   N4        1.0  0.97130  0.76840  0.46121  1.0000 -0.3745908775
N   N5        1.0  0.99590  0.00370  0.93953  1.0000 -0.2473039889
N   N6        1.0  0.00410  0.50370  0.56047  1.0000 -0.2473039889
N   N7        1.0  0.00410  0.99630  0.06047  1.0000 -0.2473039889
N   N8        1.0  0.99590  0.49630  0.43953  1.0000 -0.2473039889
N   N9        1.0  0.17900  0.78760  0.85115  1.0000 -0.3761272767
N   N10       1.0  0.82100  0.28760  0.64885  1.0000 -0.3761272767
N   N11       1.0  0.82100  0.21240  0.14885  1.0000 -0.3761272767
N   N12       1.0  0.17900  0.71240  0.35115  1.0000 -0.3761272767
N   N13       1.0  0.15010  0.07130  0.83812  1.0000 -0.2473039889
N   N14       1.0  0.84990  0.57130  0.66188  1.0000 -0.2473039889
N   N15       1.0  0.84990  0.92870  0.16188  1.0000 -0.2473039889
N   N16       1.0  0.15010  0.42870  0.33812  1.0000 -0.2473039889
O   O1        1.0  0.00940  0.37000  0.93908  1.0000 -0.4987273106
O   O2        1.0  0.99060  0.87000  0.56092  1.0000 -0.4987273106
O   O3        1.0  0.99060  0.63000  0.06092  1.0000 -0.4987273106
O   O4        1.0  0.00940  0.13000  0.43908  1.0000 -0.4987273106
O   O5        1.0  0.19650  0.53610  0.99540  1.0000 -0.4987273106
O   O6        1.0  0.80350  0.03610  0.50460  1.0000 -0.4987273106
O   O7        1.0  0.80350  0.46390  0.00460  1.0000 -0.4987273106
O   O8        1.0  0.19650  0.96390  0.49540  1.0000 -0.4987273106
O   O9        1.0  0.12180  0.41650  0.88378  1.0000 -0.4987273106
O   O10       1.0  0.87820  0.91650  0.61622  1.0000 -0.4987273106
O   O11       1.0  0.87820  0.58350  0.11622  1.0000 -0.4987273106
O   O12       1.0  0.12180  0.08350  0.38378  1.0000 -0.4987273106
O   O13       1.0  0.30040  0.59320  0.93867  1.0000 -0.4864451327
O   O14       1.0  0.69960  0.09320  0.56133  1.0000 -0.4864451327
O   O15       1.0  0.69960  0.40680  0.06133  1.0000 -0.4864451327
O   O16       1.0  0.30040  0.90680  0.43867  1.0000 -0.4864451327
O   O17       1.0  0.45460  0.68270  0.87640  1.0000 -0.544279609
O   O18       1.0  0.54540  0.18270  0.62360  1.0000 -0.544279609
O   O19       1.0  0.54540  0.31730  0.12360  1.0000 -0.544279609
O   O20       1.0  0.45460  0.81730  0.37640  1.0000 -0.544279609
O   O21       1.0  0.56540  0.52400  0.83370  1.0000 -0.689740453
O   O22       1.0  0.43460  0.02400  0.66630  1.0000 -0.689740453
O   O23       1.0  0.43460  0.47600  0.16630  1.0000 -0.689740453
O   O24       1.0  0.56540  0.97600  0.33370  1.0000 -0.689740453
O   O25       1.0  0.58210  0.17570  0.82868  1.0000 -0.6716899016
O   O26       1.0  0.41790  0.67570  0.67132  1.0000 -0.6716899016
O   O27       1.0  0.41790  0.82430  0.17132  1.0000 -0.6716899016
O   O28       1.0  0.58210  0.32430  0.32868  1.0000 -0.6716899016
O   O29       1.0  0.50890  0.90890  0.80781  1.0000 -0.6548676231
O   O30       1.0  0.49110  0.40890  0.69219  1.0000 -0.6548676231
O   O31       1.0  0.49110  0.09110  0.19219  1.0000 -0.6548676231
O   O32       1.0  0.50890  0.59110  0.30781  1.0000 -0.6548676231
O   O33       1.0  0.75290  0.95810  0.69489  1.0000 -0.544279609
O   O34       1.0  0.24710  0.45810  0.80511  1.0000 -0.544279609
O   O35       1.0  0.24710  0.04190  0.30511  1.0000 -0.544279609
O   O36       1.0  0.75290  0.54190  0.19489  1.0000 -0.5451584795
O   O37       1.0  0.64060  0.08760  0.74198  1.0000 -0.7252219656
O   O38       1.0  0.35940  0.58760  0.75802  1.0000 -0.7252219656
O   O39       1.0  0.35940  0.91240  0.25802  1.0000 -0.7252219656
O   O40       1.0  0.64060  0.41240  0.24198  1.0000 -0.7252219656
O   O41       1.0  0.63560  0.68330  0.75036  1.0000 -0.7642212846
O   O42       1.0  0.36440  0.18330  0.74964  1.0000 -0.7642212846
O   O43       1.0  0.36440  0.31670  0.24964  1.0000 -0.7642212846
O   O44       1.0  0.63560  0.81670  0.25036  1.0000 -0.7642212846
O   O45       1.0  0.77020  0.46420  0.76936  1.0000 -0.6173594334
O   O46       1.0  0.22980  0.96420  0.73064  1.0000 -0.6173594334
O   O47       1.0  0.22980  0.53580  0.23064  1.0000 -0.6173594334
O   O48       1.0  0.77020  0.03580  0.26936  1.0000 -0.6173594334
O   O49       1.0  0.39180  0.30430  0.88492  1.0000 -0.6716899016
O   O50       1.0  0.60820  0.80430  0.61508  1.0000 -0.6716899016
O   O51       1.0  0.60820  0.69570  0.11508  1.0000 -0.6716899016
O   O52       1.0  0.39180  0.19570  0.38492  1.0000 -0.6716899016
