# DDEC6 charges by PACMAN v1.1 (https://github.com/mtap-research/PACMAN-charge/)
data_2012[Cd][ths]3[FSR]1
_chemical_formula_sum              "Cd4 H76 C96 N12 O20"
_cell_length_a       15.5684
_cell_length_b       15.5684
_cell_length_c       21.953
_cell_angle_alpha    52.9195
_cell_angle_beta     127.08
_cell_angle_gamma    137.078

_symmetry_space_group_name_H-M    "P 1"
_symmetry_Int_Tables_number       1

loop_
  _symmetry_equiv_pos_as_xyz
  'x, y, z'

loop_
  _atom_site_type_symbol
  _atom_site_label
  _atom_site_symmetry_multiplicity
  _atom_site_fract_x
  _atom_site_fract_y
  _atom_site_fract_z
  _atom_site_occupancy
  _atom_site_charge
Cd  Cd1       1.0  0.21937  0.84959  0.95565  1.0000 0.8484752961
Cd  Cd2       1.0  0.15041  0.78063  0.45565  1.0000 0.8484752961
Cd  Cd3       1.0  0.84959  0.21937  0.54435  1.0000 0.8484752961
Cd  Cd4       1.0  0.78063  0.15041  0.04435  1.0000 0.8484752961
H   H1        1.0  0.89790  0.49030  0.12130  1.0000 0.1108661519
H   H2        1.0  0.50970  0.10210  0.62130  1.0000 0.1108661519
H   H3        1.0  0.73310  0.40550  0.16200  1.0000 0.1108661519
H   H4        1.0  0.59450  0.26690  0.66200  1.0000 0.1108661519
H   H5        1.0  0.72370  0.72370  0.00130  1.0000 0.1108661519
H   H6        1.0  0.27630  0.27630  0.50130  1.0000 0.1108661519
H   H7        1.0  0.89530  0.80850  0.96760  1.0000 0.1219657856
H   H8        1.0  0.19150  0.10470  0.46760  1.0000 0.1219657856
H   H9        1.0  0.56390  0.31670  0.18190  1.0000 0.1312863185
H   H10       1.0  0.68330  0.43610  0.68190  1.0000 0.1312863185
H   H11       1.0  0.50740  0.15540  0.29710  1.0000 0.1436454357
H   H12       1.0  0.84460  0.49260  0.79710  1.0000 0.1436454357
H   H13       1.0  0.39670  0.95670  0.38690  1.0000 0.1108661519
H   H14       1.0  0.04330  0.60330  0.88690  1.0000 0.1108661519
H   H15       1.0  0.10050  0.97890  0.28720  1.0000 0.1219657856
H   H16       1.0  0.02110  0.89950  0.78720  1.0000 0.1219657856
H   H17       1.0  0.20360  0.18060  0.19520  1.0000 0.1312863185
H   H18       1.0  0.81940  0.79640  0.69520  1.0000 0.1312863185
H   H19       1.0  0.59950  0.65930  0.04680  1.0000 0.1219657856
H   H20       1.0  0.34070  0.40050  0.54680  1.0000 0.1219657856
H   H21       1.0  0.24520  0.44600  0.11030  1.0000 0.1312863185
H   H22       1.0  0.55400  0.75480  0.61030  1.0000 0.1312863185
H   H23       1.0  0.15810  0.56030  0.05130  1.0000 0.1006611103
H   H24       1.0  0.43970  0.84190  0.55130  1.0000 0.1006611103
H   H25       1.0  0.44810  0.87930  0.95770  1.0000 0.1006611103
H   H26       1.0  0.12070  0.55190  0.45770  1.0000 0.1006611103
H   H27       1.0  0.54080  0.77260  0.01110  1.0000 0.1312863185
H   H28       1.0  0.22740  0.45920  0.51110  1.0000 0.1312863185
H   H29       1.0  0.39770  0.28490  0.78410  1.0000 0.1599807852
H   H30       1.0  0.71510  0.60230  0.28410  1.0000 0.1599807852
H   H31       1.0  0.50450  0.27050  0.80400  1.0000 0.1436454357
H   H32       1.0  0.72950  0.49550  0.30400  1.0000 0.1436454357
H   H33       1.0  0.36640  0.21380  0.73620  1.0000 0.1599807852
H   H34       1.0  0.78620  0.63360  0.23620  1.0000 0.1599807852
H   H35       1.0  0.36580  0.93220  0.09470  1.0000 0.3062101268
H   H36       1.0  0.06780  0.63420  0.59470  1.0000 0.3062101268
H   H37       1.0  0.42580  0.89320  0.10340  1.0000 0.342008669
H   H38       1.0  0.10680  0.57420  0.60340  1.0000 0.342008669
H   H39       1.0  0.49030  0.89790  0.37870  1.0000 0.1108661519
H   H40       1.0  0.10210  0.50970  0.87870  1.0000 0.1108661519
H   H41       1.0  0.40550  0.73310  0.33800  1.0000 0.1108661519
H   H42       1.0  0.26690  0.59450  0.83800  1.0000 0.1108661519
H   H43       1.0  0.72370  0.72370  0.49870  1.0000 0.1108661519
H   H44       1.0  0.27630  0.27630  0.99870  1.0000 0.1108661519
H   H45       1.0  0.80850  0.89530  0.53240  1.0000 0.1219657856
H   H46       1.0  0.10470  0.19150  0.03240  1.0000 0.1219657856
H   H47       1.0  0.31670  0.56390  0.31810  1.0000 0.1312863185
H   H48       1.0  0.43610  0.68330  0.81810  1.0000 0.1312863185
H   H49       1.0  0.15540  0.50740  0.20290  1.0000 0.1436454357
H   H50       1.0  0.49260  0.84460  0.70290  1.0000 0.1436454357
H   H51       1.0  0.95670  0.39670  0.11310  1.0000 0.1108661519
H   H52       1.0  0.60330  0.04330  0.61310  1.0000 0.1108661519
H   H53       1.0  0.97890  0.10050  0.21280  1.0000 0.1219657856
H   H54       1.0  0.89950  0.02110  0.71280  1.0000 0.1219657856
H   H55       1.0  0.18060  0.20360  0.30480  1.0000 0.1312863185
H   H56       1.0  0.79640  0.81940  0.80480  1.0000 0.1312863185
H   H57       1.0  0.65930  0.59950  0.45320  1.0000 0.1219657856
H   H58       1.0  0.40050  0.34070  0.95320  1.0000 0.1219657856
H   H59       1.0  0.44600  0.24520  0.38970  1.0000 0.1312863185
H   H60       1.0  0.75480  0.55400  0.88970  1.0000 0.1312863185
H   H61       1.0  0.56030  0.15810  0.44870  1.0000 0.1006611103
H   H62       1.0  0.84190  0.43970  0.94870  1.0000 0.1006611103
H   H63       1.0  0.87930  0.44810  0.54230  1.0000 0.1006611103
H   H64       1.0  0.55190  0.12070  0.04230  1.0000 0.1006611103
H   H65       1.0  0.77260  0.54080  0.48890  1.0000 0.1312863185
H   H66       1.0  0.45920  0.22740  0.98890  1.0000 0.1312863185
H   H67       1.0  0.28490  0.39770  0.71590  1.0000 0.1599807852
H   H68       1.0  0.60230  0.71510  0.21590  1.0000 0.1599807852
H   H69       1.0  0.27050  0.50450  0.69600  1.0000 0.1436454357
H   H70       1.0  0.49550  0.72950  0.19600  1.0000 0.1436454357
H   H71       1.0  0.21380  0.36640  0.76380  1.0000 0.1599807852
H   H72       1.0  0.63360  0.78620  0.26380  1.0000 0.1599807852
H   H73       1.0  0.93220  0.36580  0.40530  1.0000 0.3062101268
H   H74       1.0  0.63420  0.06780  0.90530  1.0000 0.3062101268
H   H75       1.0  0.89320  0.42580  0.39660  1.0000 0.342008669
H   H76       1.0  0.57420  0.10680  0.89660  1.0000 0.342008669
C   C1        1.0  0.01870  0.71090  0.01560  1.0000 0.5473022648
C   C2        1.0  0.28910  0.98130  0.51560  1.0000 0.5473022648
C   C3        1.0  0.91310  0.65950  0.04080  1.0000 -0.024610754
C   C4        1.0  0.34050  0.08690  0.54080  1.0000 -0.024610754
C   C5        1.0  0.86400  0.53900  0.09780  1.0000 -0.104111554
C   C6        1.0  0.46100  0.13600  0.59780  1.0000 -0.104111554
C   C7        1.0  0.76400  0.48760  0.12130  1.0000 -0.1504035815
C   C8        1.0  0.51240  0.23600  0.62130  1.0000 -0.1504035815
C   C9        1.0  0.71010  0.55390  0.08650  1.0000 0.0706524087
C   C10       1.0  0.44610  0.28990  0.58650  1.0000 0.0706524087
C   C11       1.0  0.75920  0.67560  0.02730  1.0000 -0.1504035815
C   C12       1.0  0.32440  0.24080  0.52730  1.0000 -0.1504035815
C   C13       1.0  0.86120  0.72520  0.00690  1.0000 -0.0864552668
C   C14       1.0  0.27480  0.13880  0.50690  1.0000 -0.0864552668
C   C15       1.0  0.59980  0.49700  0.10950  1.0000 0.1219657856
C   C16       1.0  0.50300  0.40020  0.60950  1.0000 0.1219657856
C   C17       1.0  0.53820  0.37180  0.16050  1.0000 -0.2442823982
C   C18       1.0  0.62820  0.46180  0.66050  1.0000 -0.2442823982
C   C19       1.0  0.43830  0.32590  0.18050  1.0000 0.2065207457
C   C20       1.0  0.67410  0.56170  0.68050  1.0000 0.2065207457
C   C21       1.0  0.37000  0.19240  0.23640  1.0000 0.0837086068
C   C22       1.0  0.80760  0.63000  0.73640  1.0000 0.0837086068
C   C23       1.0  0.42450  0.12250  0.29420  1.0000 -0.1807254241
C   C24       1.0  0.87750  0.57550  0.79420  1.0000 -0.1807254241
C   C25       1.0  0.35810  0.00390  0.34820  1.0000 0.0837086068
C   C26       1.0  0.99610  0.64190  0.84820  1.0000 0.0837086068
C   C27       1.0  0.18570  0.01710  0.29020  1.0000 0.0879182742
C   C28       1.0  0.98290  0.81430  0.79020  1.0000 0.0879182742
C   C29       1.0  0.24570  0.13670  0.23430  1.0000 -0.1807254241
C   C30       1.0  0.86330  0.75430  0.73430  1.0000 -0.1807254241
C   C31       1.0  0.55760  0.57140  0.08080  1.0000 -0.2328399865
C   C32       1.0  0.42860  0.44240  0.58080  1.0000 -0.2328399865
C   C33       1.0  0.45580  0.52080  0.10060  1.0000 0.2065207457
C   C34       1.0  0.47920  0.54420  0.60060  1.0000 0.2065207457
C   C35       1.0  0.40190  0.59450  0.06700  1.0000 0.1006611103
C   C36       1.0  0.40550  0.59810  0.56700  1.0000 0.1006611103
C   C37       1.0  0.28880  0.53540  0.07830  1.0000 -0.1684260181
C   C38       1.0  0.46460  0.71120  0.57830  1.0000 -0.1684260181
C   C39       1.0  0.23770  0.60490  0.04330  1.0000 0.0879182742
C   C40       1.0  0.39510  0.76230  0.54330  1.0000 0.0879182742
C   C41       1.0  0.40570  0.78930  0.98890  1.0000 0.0706524087
C   C42       1.0  0.21070  0.59430  0.48890  1.0000 0.0706524087
C   C43       1.0  0.46210  0.72650  0.02070  1.0000 -0.1807254241
C   C44       1.0  0.27350  0.53790  0.52070  1.0000 -0.1807254241
C   C45       1.0  0.35060  0.09760  0.84970  1.0000 0.6678401419
C   C46       1.0  0.90240  0.64940  0.34970  1.0000 0.6678401419
C   C47       1.0  0.41000  0.22800  0.78820  1.0000 -0.598663967
C   C48       1.0  0.77200  0.59000  0.28820  1.0000 -0.598663967
C   C49       1.0  0.71090  0.01870  0.48440  1.0000 0.5473022648
C   C50       1.0  0.98130  0.28910  0.98440  1.0000 0.5473022648
C   C51       1.0  0.65950  0.91310  0.45920  1.0000 -0.024610754
C   C52       1.0  0.08690  0.34050  0.95920  1.0000 -0.024610754
C   C53       1.0  0.53900  0.86400  0.40220  1.0000 -0.104111554
C   C54       1.0  0.13600  0.46100  0.90220  1.0000 -0.104111554
C   C55       1.0  0.48760  0.76400  0.37870  1.0000 -0.1504035815
C   C56       1.0  0.23600  0.51240  0.87870  1.0000 -0.1504035815
C   C57       1.0  0.55390  0.71010  0.41350  1.0000 0.0706524087
C   C58       1.0  0.28990  0.44610  0.91350  1.0000 0.0706524087
C   C59       1.0  0.67560  0.75920  0.47270  1.0000 -0.1504035815
C   C60       1.0  0.24080  0.32440  0.97270  1.0000 -0.1504035815
C   C61       1.0  0.72520  0.86120  0.49310  1.0000 -0.0864552668
C   C62       1.0  0.13880  0.27480  0.99310  1.0000 -0.0864552668
C   C63       1.0  0.49700  0.59980  0.39050  1.0000 0.1219657856
C   C64       1.0  0.40020  0.50300  0.89050  1.0000 0.1219657856
C   C65       1.0  0.37180  0.53820  0.33950  1.0000 -0.2442823982
C   C66       1.0  0.46180  0.62820  0.83950  1.0000 -0.2442823982
C   C67       1.0  0.32590  0.43830  0.31950  1.0000 0.2065207457
C   C68       1.0  0.56170  0.67410  0.81950  1.0000 0.2065207457
C   C69       1.0  0.19240  0.37000  0.26360  1.0000 0.0837086068
C   C70       1.0  0.63000  0.80760  0.76360  1.0000 0.0837086068
C   C71       1.0  0.12250  0.42450  0.20580  1.0000 -0.1807254241
C   C72       1.0  0.57550  0.87750  0.70580  1.0000 -0.1807254241
C   C73       1.0  0.00390  0.35810  0.15180  1.0000 0.0837086068
C   C74       1.0  0.64190  0.99610  0.65180  1.0000 0.0837086068
C   C75       1.0  0.01710  0.18570  0.20980  1.0000 0.0879182742
C   C76       1.0  0.81430  0.98290  0.70980  1.0000 0.0879182742
C   C77       1.0  0.13670  0.24570  0.26570  1.0000 -0.1807254241
C   C78       1.0  0.75430  0.86330  0.76570  1.0000 -0.1807254241
C   C79       1.0  0.57140  0.55760  0.41920  1.0000 -0.2328399865
C   C80       1.0  0.44240  0.42860  0.91920  1.0000 -0.2328399865
C   C81       1.0  0.52080  0.45580  0.39940  1.0000 0.2065207457
C   C82       1.0  0.54420  0.47920  0.89940  1.0000 0.2065207457
C   C83       1.0  0.59450  0.40190  0.43300  1.0000 0.1006611103
C   C84       1.0  0.59810  0.40550  0.93300  1.0000 0.1006611103
C   C85       1.0  0.53540  0.28880  0.42170  1.0000 -0.1684260181
C   C86       1.0  0.71120  0.46460  0.92170  1.0000 -0.1684260181
C   C87       1.0  0.60490  0.23770  0.45670  1.0000 0.0879182742
C   C88       1.0  0.76230  0.39510  0.95670  1.0000 0.0879182742
C   C89       1.0  0.78930  0.40570  0.51110  1.0000 0.0706524087
C   C90       1.0  0.59430  0.21070  0.01110  1.0000 0.0706524087
C   C91       1.0  0.72650  0.46210  0.47930  1.0000 -0.1807254241
C   C92       1.0  0.53790  0.27350  0.97930  1.0000 -0.1807254241
C   C93       1.0  0.09760  0.35060  0.65030  1.0000 0.6678401419
C   C94       1.0  0.64940  0.90240  0.15030  1.0000 0.6678401419
C   C95       1.0  0.22800  0.41000  0.71180  1.0000 -0.598663967
C   C96       1.0  0.59000  0.77200  0.21180  1.0000 -0.598663967
N   N1        1.0  0.39740  0.39980  0.15060  1.0000 -0.3082087151
N   N2        1.0  0.60020  0.60260  0.65060  1.0000 -0.3082087151
N   N3        1.0  0.24280  0.95320  0.34830  1.0000 -0.2328399865
N   N4        1.0  0.04680  0.75720  0.84830  1.0000 -0.2328399865
N   N5        1.0  0.29390  0.72970  0.99970  1.0000 -0.2442823982
N   N6        1.0  0.27030  0.70610  0.49970  1.0000 -0.2442823982
N   N7        1.0  0.39980  0.39740  0.34940  1.0000 -0.3082087151
N   N8        1.0  0.60260  0.60020  0.84940  1.0000 -0.3082087151
N   N9        1.0  0.95320  0.24280  0.15170  1.0000 -0.2328399865
N   N10       1.0  0.75720  0.04680  0.65170  1.0000 -0.2328399865
N   N11       1.0  0.72970  0.29390  0.50030  1.0000 -0.2442823982
N   N12       1.0  0.70610  0.27030  0.00030  1.0000 -0.2442823982
O   O1        1.0  0.05030  0.64210  0.03650  1.0000 -0.552790027
O   O2        1.0  0.35790  0.94970  0.53650  1.0000 -0.552790027
O   O3        1.0  0.07190  0.83170  0.97020  1.0000 -0.5396878532
O   O4        1.0  0.16830  0.92810  0.47020  1.0000 -0.5396878532
O   O5        1.0  0.39710  0.03230  0.88780  1.0000 -0.5923731438
O   O6        1.0  0.96770  0.60290  0.38780  1.0000 -0.5923731438
O   O7        1.0  0.25490  0.05590  0.86250  1.0000 -0.5691205672
O   O8        1.0  0.94410  0.74510  0.36250  1.0000 -0.5691205672
O   O9        1.0  0.36090  0.89490  0.07680  1.0000 -0.6334692946
O   O10       1.0  0.10510  0.63910  0.57680  1.0000 -0.6334692946
O   O11       1.0  0.64210  0.05030  0.46350  1.0000 -0.552790027
O   O12       1.0  0.94970  0.35790  0.96350  1.0000 -0.552790027
O   O13       1.0  0.83170  0.07190  0.52980  1.0000 -0.5396878532
O   O14       1.0  0.92810  0.16830  0.02980  1.0000 -0.5396878532
O   O15       1.0  0.03230  0.39710  0.61220  1.0000 -0.5923731438
O   O16       1.0  0.60290  0.96770  0.11220  1.0000 -0.5923731438
O   O17       1.0  0.05590  0.25490  0.63750  1.0000 -0.5691205672
O   O18       1.0  0.74510  0.94410  0.13750  1.0000 -0.5691205672
O   O19       1.0  0.89490  0.36090  0.42320  1.0000 -0.6334692946
O   O20       1.0  0.63910  0.10510  0.92320  1.0000 -0.6334692946
