# DDEC6 charges by PACMAN v1.1 (https://github.com/mtap-research/PACMAN-charge/)
data_2012[CuNb][pcu]3[FSR]1
_chemical_formula_sum              "Nb2 Cu2 H16 C16 N8 F12"
_cell_length_a       10.7669
_cell_length_b       10.7669
_cell_length_c       10.7669
_cell_angle_alpha    126.338
_cell_angle_beta     126.338
_cell_angle_gamma    79.3339

_symmetry_space_group_name_H-M    "P 1"
_symmetry_Int_Tables_number       1

loop_
  _symmetry_equiv_pos_as_xyz
  'x, y, z'

loop_
  _atom_site_type_symbol
  _atom_site_label
  _atom_site_symmetry_multiplicity
  _atom_site_fract_x
  _atom_site_fract_y
  _atom_site_fract_z
  _atom_site_occupancy
  _atom_site_charge
Nb  Nb1       1.0  0.00000  0.00000  0.00000  1.0000 2.4111094775
Nb  Nb2       1.0  0.50000  0.50000  0.00000  1.0000 2.4111094775
Cu  Cu1       1.0  0.25000  0.25000  0.00000  1.0000 0.6194936933
Cu  Cu2       1.0  0.75000  0.75000  0.00000  1.0000 0.6194936933
H   H1        1.0  0.36990  0.24890  0.33240  1.0000 0.1384275111
H   H2        1.0  0.13010  0.46250  0.87900  1.0000 0.1384275111
H   H3        1.0  0.91650  0.03750  0.66760  1.0000 0.1384275111
H   H4        1.0  0.58350  0.25110  0.12100  1.0000 0.1384275111
H   H5        1.0  0.46250  0.58350  0.33240  1.0000 0.1384275111
H   H6        1.0  0.03750  0.36990  0.12100  1.0000 0.1384275111
H   H7        1.0  0.24890  0.91650  0.87900  1.0000 0.1384275111
H   H8        1.0  0.25110  0.13010  0.66760  1.0000 0.1384275111
H   H9        1.0  0.63010  0.75110  0.66760  1.0000 0.1384275111
H   H10       1.0  0.86990  0.53750  0.12100  1.0000 0.1384275111
H   H11       1.0  0.08350  0.96250  0.33240  1.0000 0.1384275111
H   H12       1.0  0.41650  0.74890  0.87900  1.0000 0.1384275111
H   H13       1.0  0.53750  0.41650  0.66760  1.0000 0.1384275111
H   H14       1.0  0.96250  0.63010  0.87900  1.0000 0.1384275111
H   H15       1.0  0.75110  0.08350  0.12100  1.0000 0.1384275111
H   H16       1.0  0.74890  0.86990  0.33240  1.0000 0.1384275111
C   C1        1.0  0.42237  0.35145  0.39890  1.0000 0.049326288
C   C2        1.0  0.07763  0.47653  0.92908  1.0000 0.049326288
C   C3        1.0  0.95255  0.02347  0.60110  1.0000 0.049326288
C   C4        1.0  0.54745  0.14855  0.07092  1.0000 0.049326288
C   C5        1.0  0.47653  0.54745  0.39890  1.0000 0.049326288
C   C6        1.0  0.02347  0.42237  0.07092  1.0000 0.049326288
C   C7        1.0  0.35145  0.95255  0.92908  1.0000 0.049326288
C   C8        1.0  0.14855  0.07763  0.60110  1.0000 0.049326288
C   C9        1.0  0.57763  0.64855  0.60110  1.0000 0.049326288
C   C10       1.0  0.92237  0.52347  0.07092  1.0000 0.049326288
C   C11       1.0  0.04745  0.97653  0.39890  1.0000 0.049326288
C   C12       1.0  0.45255  0.85145  0.92908  1.0000 0.049326288
C   C13       1.0  0.52347  0.45255  0.60110  1.0000 0.049326288
C   C14       1.0  0.97653  0.57763  0.92908  1.0000 0.049326288
C   C15       1.0  0.64855  0.04745  0.07092  1.0000 0.049326288
C   C16       1.0  0.85145  0.92237  0.39890  1.0000 0.049326288
N   N1        1.0  0.39916  0.39916  0.29832  1.0000 -0.184367744
N   N2        1.0  0.10084  0.39916  0.00000  1.0000 -0.184367744
N   N3        1.0  0.10084  0.10084  0.70168  1.0000 -0.184367744
N   N4        1.0  0.39916  0.10084  0.00000  1.0000 -0.184367744
N   N5        1.0  0.60084  0.60084  0.70168  1.0000 -0.184367744
N   N6        1.0  0.89916  0.60084  0.00000  1.0000 -0.184367744
N   N7        1.0  0.89916  0.89916  0.29832  1.0000 -0.184367744
N   N8        1.0  0.60084  0.89916  0.00000  1.0000 -0.184367744
F   F1        1.0  0.11554  0.11554  0.00000  1.0000 -0.641321942
F   F2        1.0  0.38446  0.38446  0.00000  1.0000 -0.641321942
F   F3        1.0  0.88446  0.88446  0.00000  1.0000 -0.641321942
F   F4        1.0  0.61554  0.61554  0.00000  1.0000 -0.641321942
F   F5        1.0  0.19398  0.04261  0.23659  1.0000 -0.6281296758
F   F6        1.0  0.30602  0.54261  0.84863  1.0000 -0.6281296758
F   F7        1.0  0.80602  0.95739  0.76341  1.0000 -0.6281296758
F   F8        1.0  0.69398  0.45739  0.15137  1.0000 -0.6281296758
F   F9        1.0  0.54261  0.69398  0.23659  1.0000 -0.6281296758
F   F10       1.0  0.95739  0.19398  0.15137  1.0000 -0.6281296758
F   F11       1.0  0.04261  0.80602  0.84863  1.0000 -0.6281296758
F   F12       1.0  0.45739  0.30602  0.76341  1.0000 -0.6281296758
