# DDEC6 charges by PACMAN v1.1 (https://github.com/mtap-research/PACMAN-charge/)
data_2012[Fe][bpq]3[FSR]2
_chemical_formula_sum              "Fe4 H16 C32 O20"
_cell_length_a       11.2577
_cell_length_b       11.2577
_cell_length_c       13.797
_cell_angle_alpha    72.4801
_cell_angle_beta     107.52
_cell_angle_gamma    89.1345

_symmetry_space_group_name_H-M    "P 1"
_symmetry_Int_Tables_number       1

loop_
  _symmetry_equiv_pos_as_xyz
  'x, y, z'

loop_
  _atom_site_type_symbol
  _atom_site_label
  _atom_site_symmetry_multiplicity
  _atom_site_fract_x
  _atom_site_fract_y
  _atom_site_fract_z
  _atom_site_occupancy
  _atom_site_charge
Fe  Fe1       1.0  0.00177  0.00177  0.25000  1.0000 1.2922185053
Fe  Fe2       1.0  0.99823  0.99823  0.75000  1.0000 1.2922185053
Fe  Fe3       1.0  0.00000  0.00000  0.00000  1.0000 1.3118266453
Fe  Fe4       1.0  0.00000  0.00000  0.50000  1.0000 1.3118266453
H   H1        1.0  0.61015  0.99399  0.42645  1.0000 0.1288612028
H   H2        1.0  0.99399  0.61015  0.07355  1.0000 0.1288612028
H   H3        1.0  0.38985  0.00601  0.57355  1.0000 0.1288612028
H   H4        1.0  0.00601  0.38985  0.92645  1.0000 0.1288612028
H   H5        1.0  0.39111  0.99523  0.37253  1.0000 0.1288612028
H   H6        1.0  0.99523  0.39111  0.12747  1.0000 0.1288612028
H   H7        1.0  0.60889  0.00477  0.62747  1.0000 0.1288612028
H   H8        1.0  0.00477  0.60889  0.87253  1.0000 0.1288612028
H   H9        1.0  0.39072  0.99504  0.07747  1.0000 0.1288612028
H   H10       1.0  0.99504  0.39072  0.42253  1.0000 0.1288612028
H   H11       1.0  0.60928  0.00496  0.92253  1.0000 0.1288612028
H   H12       1.0  0.00496  0.60928  0.57747  1.0000 0.1288612028
H   H13       1.0  0.60976  0.99380  0.13139  1.0000 0.1288612028
H   H14       1.0  0.99380  0.60976  0.36861  1.0000 0.1288612028
H   H15       1.0  0.39024  0.00620  0.86861  1.0000 0.1288612028
H   H16       1.0  0.00620  0.39024  0.63139  1.0000 0.1288612028
C   C1        1.0  0.62813  0.99379  0.28339  1.0000 -0.0304586117
C   C2        1.0  0.99379  0.62813  0.21661  1.0000 -0.0304586117
C   C3        1.0  0.37187  0.00621  0.71661  1.0000 -0.0304586117
C   C4        1.0  0.00621  0.37187  0.78339  1.0000 -0.0304586117
C   C5        1.0  0.56439  0.99421  0.35369  1.0000 -0.0938404687
C   C6        1.0  0.99421  0.56439  0.14631  1.0000 -0.0938404687
C   C7        1.0  0.43561  0.00579  0.64631  1.0000 -0.0938404687
C   C8        1.0  0.00579  0.43561  0.85369  1.0000 -0.0938404687
C   C9        1.0  0.43670  0.99492  0.32225  1.0000 -0.0938404687
C   C10       1.0  0.99492  0.43670  0.17775  1.0000 -0.0938404687
C   C11       1.0  0.56330  0.00508  0.67775  1.0000 -0.0938404687
C   C12       1.0  0.00508  0.56330  0.82225  1.0000 -0.0938404687
C   C13       1.0  0.37274  0.99524  0.22053  1.0000 -0.0304586117
C   C14       1.0  0.99524  0.37274  0.27947  1.0000 -0.0304586117
C   C15       1.0  0.62726  0.00476  0.77947  1.0000 -0.0304586117
C   C16       1.0  0.00476  0.62726  0.72053  1.0000 -0.0304586117
C   C17       1.0  0.43647  0.99481  0.15024  1.0000 -0.0938404687
C   C18       1.0  0.99481  0.43647  0.34976  1.0000 -0.0938404687
C   C19       1.0  0.56353  0.00519  0.84976  1.0000 -0.0938404687
C   C20       1.0  0.00519  0.56353  0.65024  1.0000 -0.0938404687
C   C21       1.0  0.56416  0.99410  0.18167  1.0000 -0.0938404687
C   C22       1.0  0.99410  0.56416  0.31833  1.0000 -0.0938404687
C   C23       1.0  0.43584  0.00590  0.81833  1.0000 -0.0938404687
C   C24       1.0  0.00590  0.43584  0.68167  1.0000 -0.0938404687
C   C25       1.0  0.76515  0.99303  0.31712  1.0000 0.5832696249
C   C26       1.0  0.99303  0.76515  0.18288  1.0000 0.5832696249
C   C27       1.0  0.23485  0.00697  0.68288  1.0000 0.5832696249
C   C28       1.0  0.00697  0.23485  0.81712  1.0000 0.5832696249
C   C29       1.0  0.23572  0.99600  0.18680  1.0000 0.5832696249
C   C30       1.0  0.99600  0.23572  0.31320  1.0000 0.5832696249
C   C31       1.0  0.76428  0.00400  0.81320  1.0000 0.5832696249
C   C32       1.0  0.00400  0.76428  0.68680  1.0000 0.5832696249
O   O1        1.0  0.82394  0.99528  0.25127  1.0000 -0.5001685729
O   O2        1.0  0.99528  0.82394  0.24873  1.0000 -0.5001685729
O   O3        1.0  0.17606  0.00472  0.74873  1.0000 -0.5001685729
O   O4        1.0  0.00472  0.17606  0.75127  1.0000 -0.5001685729
O   O5        1.0  0.82473  0.99011  0.41212  1.0000 -0.5001685729
O   O6        1.0  0.99011  0.82473  0.08788  1.0000 -0.5001685729
O   O7        1.0  0.17527  0.00989  0.58788  1.0000 -0.5001685729
O   O8        1.0  0.00989  0.17527  0.91212  1.0000 -0.5001685729
O   O9        1.0  0.17724  0.98898  0.09469  1.0000 -0.5001685729
O   O10       1.0  0.98898  0.17724  0.40531  1.0000 -0.5001685729
O   O11       1.0  0.82276  0.01102  0.90531  1.0000 -0.5001685729
O   O12       1.0  0.01102  0.82276  0.59469  1.0000 -0.5001685729
O   O13       1.0  0.17583  0.00369  0.24977  1.0000 -0.475931191
O   O14       1.0  0.00369  0.17583  0.25023  1.0000 -0.475931191
O   O15       1.0  0.82417  0.99631  0.75023  1.0000 -0.475931191
O   O16       1.0  0.99631  0.82417  0.74977  1.0000 -0.475931191
O   O17       1.0  0.94540  0.06848  0.09335  1.0000 -0.5712906281
O   O18       1.0  0.06848  0.94540  0.40665  1.0000 -0.5712906281
O   O19       1.0  0.05460  0.93152  0.90665  1.0000 -0.5712906281
O   O20       1.0  0.93152  0.05460  0.59335  1.0000 -0.5712906281
