# DDEC6 charges by PACMAN v1.1 (https://github.com/mtap-research/PACMAN-charge/)
data_2012[Zn][pcu]3[FSR]11
_chemical_formula_sum              "Zn8 H96 C108 N16 O32"
_cell_length_a       18.232
_cell_length_b       10.8471
_cell_length_c       21.642
_cell_angle_alpha    90
_cell_angle_beta     124.22
_cell_angle_gamma    90

_symmetry_space_group_name_H-M    "P 1"
_symmetry_Int_Tables_number       1

loop_
  _symmetry_equiv_pos_as_xyz
  'x, y, z'

loop_
  _atom_site_type_symbol
  _atom_site_label
  _atom_site_symmetry_multiplicity
  _atom_site_fract_x
  _atom_site_fract_y
  _atom_site_fract_z
  _atom_site_occupancy
  _atom_site_charge
Zn  Zn1       1.0  0.71165  0.69518  0.52802  1.0000 0.8569075969
Zn  Zn2       1.0  0.71165  0.80482  0.02802  1.0000 0.8569075969
Zn  Zn3       1.0  0.91381  0.69397  0.62507  1.0000 0.8569075969
Zn  Zn4       1.0  0.91381  0.80603  0.12507  1.0000 0.8569075969
Zn  Zn5       1.0  0.28835  0.19518  0.97198  1.0000 0.8569075969
Zn  Zn6       1.0  0.28835  0.30482  0.47198  1.0000 0.8569075969
Zn  Zn7       1.0  0.08619  0.19397  0.87493  1.0000 0.8569075969
Zn  Zn8       1.0  0.08619  0.30603  0.37493  1.0000 0.8569075969
H   H1        1.0  0.06780  0.00760  0.18240  1.0000 0.1293248353
H   H2        1.0  0.06780  0.49240  0.68240  1.0000 0.1293248353
H   H3        1.0  0.22750  0.96140  0.26860  1.0000 0.1293248353
H   H4        1.0  0.22750  0.53860  0.76860  1.0000 0.1293248353
H   H5        1.0  0.02220  0.58560  0.18970  1.0000 0.1674347391
H   H6        1.0  0.02220  0.91440  0.68970  1.0000 0.1674347391
H   H7        1.0  0.10810  0.57290  0.27330  1.0000 0.1552504358
H   H8        1.0  0.10810  0.92710  0.77330  1.0000 0.1552504358
H   H9        1.0  0.11580  0.55000  0.20410  1.0000 0.1491791911
H   H10       1.0  0.11580  0.95000  0.70410  1.0000 0.1491791911
H   H11       1.0  0.25920  0.66910  0.35160  1.0000 0.1098855794
H   H12       1.0  0.25920  0.83090  0.85160  1.0000 0.1098855794
H   H13       1.0  0.31670  0.77590  0.34760  1.0000 0.1098855794
H   H14       1.0  0.31670  0.72410  0.84760  1.0000 0.1098855794
H   H15       1.0  0.33240  0.66920  0.26530  1.0000 0.1098855794
H   H16       1.0  0.33240  0.83080  0.76530  1.0000 0.1098855794
H   H17       1.0  0.25260  0.57740  0.24400  1.0000 0.1098855794
H   H18       1.0  0.25260  0.92260  0.74400  1.0000 0.1098855794
H   H19       1.0  0.33970  0.48600  0.36400  1.0000 0.1197217518
H   H20       1.0  0.33970  0.01400  0.86400  1.0000 0.1197217518
H   H21       1.0  0.38770  0.47340  0.32110  1.0000 0.1098855794
H   H22       1.0  0.38770  0.02660  0.82110  1.0000 0.1098855794
H   H23       1.0  0.41040  0.64740  0.47780  1.0000 0.1293248353
H   H24       1.0  0.41040  0.85260  0.97780  1.0000 0.1293248353
H   H25       1.0  0.56140  0.73560  0.55700  1.0000 0.1293248353
H   H26       1.0  0.56140  0.76440  0.05700  1.0000 0.1293248353
H   H27       1.0  0.60540  0.58670  0.37760  1.0000 0.1674347391
H   H28       1.0  0.60540  0.91330  0.87760  1.0000 0.1674347391
H   H29       1.0  0.50270  0.59960  0.31140  1.0000 0.1491791911
H   H30       1.0  0.50270  0.90040  0.81140  1.0000 0.1491791911
H   H31       1.0  0.53910  0.47380  0.35780  1.0000 0.1491791911
H   H32       1.0  0.53910  0.02620  0.85780  1.0000 0.1491791911
H   H33       1.0  0.94190  0.78770  0.44690  1.0000 0.1293248353
H   H34       1.0  0.94190  0.71230  0.94690  1.0000 0.1293248353
H   H35       1.0  0.94640  0.81650  0.34250  1.0000 0.1197217518
H   H36       1.0  0.94640  0.68350  0.84250  1.0000 0.1197217518
H   H37       1.0  0.68420  0.74230  0.20780  1.0000 0.1197217518
H   H38       1.0  0.68420  0.75770  0.70780  1.0000 0.1197217518
H   H39       1.0  0.68100  0.70850  0.31230  1.0000 0.1197217518
H   H40       1.0  0.68100  0.79150  0.81230  1.0000 0.1197217518
H   H41       1.0  0.94080  0.29900  0.65780  1.0000 0.1197217518
H   H42       1.0  0.94080  0.20100  0.15780  1.0000 0.1197217518
H   H43       1.0  0.93460  0.08520  0.66250  1.0000 0.1197217518
H   H44       1.0  0.93460  0.41480  0.16250  1.0000 0.1197217518
H   H45       1.0  0.67960  0.08950  0.48650  1.0000 0.1197217518
H   H46       1.0  0.67960  0.41050  0.98650  1.0000 0.1197217518
H   H47       1.0  0.68360  0.30340  0.48170  1.0000 0.1197217518
H   H48       1.0  0.68360  0.19660  0.98170  1.0000 0.1197217518
H   H49       1.0  0.93220  0.50760  0.31760  1.0000 0.1293248353
H   H50       1.0  0.93220  0.99240  0.81760  1.0000 0.1293248353
H   H51       1.0  0.77250  0.46140  0.23140  1.0000 0.1293248353
H   H52       1.0  0.77250  0.03860  0.73140  1.0000 0.1293248353
H   H53       1.0  0.97780  0.08560  0.31030  1.0000 0.1674347391
H   H54       1.0  0.97780  0.41440  0.81030  1.0000 0.1674347391
H   H55       1.0  0.89190  0.07290  0.22670  1.0000 0.1552504358
H   H56       1.0  0.89190  0.42710  0.72670  1.0000 0.1552504358
H   H57       1.0  0.88420  0.05000  0.29590  1.0000 0.1491791911
H   H58       1.0  0.88420  0.45000  0.79590  1.0000 0.1491791911
H   H59       1.0  0.74080  0.16910  0.14840  1.0000 0.1098855794
H   H60       1.0  0.74080  0.33090  0.64840  1.0000 0.1098855794
H   H61       1.0  0.68330  0.27590  0.15240  1.0000 0.1098855794
H   H62       1.0  0.68330  0.22410  0.65240  1.0000 0.1098855794
H   H63       1.0  0.66760  0.16920  0.23470  1.0000 0.1098855794
H   H64       1.0  0.66760  0.33080  0.73470  1.0000 0.1098855794
H   H65       1.0  0.74740  0.07740  0.25600  1.0000 0.1098855794
H   H66       1.0  0.74740  0.42260  0.75600  1.0000 0.1098855794
H   H67       1.0  0.66030  0.98600  0.13600  1.0000 0.1197217518
H   H68       1.0  0.66030  0.51400  0.63600  1.0000 0.1197217518
H   H69       1.0  0.61230  0.97340  0.17890  1.0000 0.1098855794
H   H70       1.0  0.61230  0.52660  0.67890  1.0000 0.1098855794
H   H71       1.0  0.58960  0.14740  0.02220  1.0000 0.1293248353
H   H72       1.0  0.58960  0.35260  0.52220  1.0000 0.1293248353
H   H73       1.0  0.43860  0.23560  0.94300  1.0000 0.1293248353
H   H74       1.0  0.43860  0.26440  0.44300  1.0000 0.1293248353
H   H75       1.0  0.39460  0.08670  0.12240  1.0000 0.1674347391
H   H76       1.0  0.39460  0.41330  0.62240  1.0000 0.1674347391
H   H77       1.0  0.49730  0.09960  0.18860  1.0000 0.1491791911
H   H78       1.0  0.49730  0.40040  0.68860  1.0000 0.1491791911
H   H79       1.0  0.46090  0.97380  0.14220  1.0000 0.1491791911
H   H80       1.0  0.46090  0.52620  0.64220  1.0000 0.1491791911
H   H81       1.0  0.05810  0.28770  0.05310  1.0000 0.1293248353
H   H82       1.0  0.05810  0.21230  0.55310  1.0000 0.1293248353
H   H83       1.0  0.05360  0.31650  0.15750  1.0000 0.1197217518
H   H84       1.0  0.05360  0.18350  0.65750  1.0000 0.1197217518
H   H85       1.0  0.31580  0.24230  0.29220  1.0000 0.1197217518
H   H86       1.0  0.31580  0.25770  0.79220  1.0000 0.1197217518
H   H87       1.0  0.31900  0.20850  0.18770  1.0000 0.1197217518
H   H88       1.0  0.31900  0.29150  0.68770  1.0000 0.1197217518
H   H89       1.0  0.05920  0.79900  0.84220  1.0000 0.1197217518
H   H90       1.0  0.05920  0.70100  0.34220  1.0000 0.1197217518
H   H91       1.0  0.06540  0.58520  0.83750  1.0000 0.1197217518
H   H92       1.0  0.06540  0.91480  0.33750  1.0000 0.1197217518
H   H93       1.0  0.32040  0.58950  0.01350  1.0000 0.1197217518
H   H94       1.0  0.32040  0.91050  0.51350  1.0000 0.1197217518
H   H95       1.0  0.31640  0.80340  0.01830  1.0000 0.1197217518
H   H96       1.0  0.31640  0.69660  0.51830  1.0000 0.1197217518
C   C1        1.0  0.09310  0.92860  0.20110  1.0000 -0.0397754758
C   C2        1.0  0.09310  0.57140  0.70110  1.0000 -0.0397754758
C   C3        1.0  0.18030  0.90350  0.24830  1.0000 -0.122066548
C   C4        1.0  0.18030  0.59650  0.74830  1.0000 -0.122066548
C   C5        1.0  0.10630  0.73130  0.22230  1.0000 0.3484153357
C   C6        1.0  0.10630  0.76870  0.72230  1.0000 0.3484153357
C   C7        1.0  0.08640  0.59870  0.22240  1.0000 -0.5483903994
C   C8        1.0  0.08640  0.90130  0.72240  1.0000 -0.5483903994
C   C9        1.0  0.26980  0.71400  0.31750  1.0000 -0.1079880617
C   C10       1.0  0.26980  0.78600  0.81750  1.0000 -0.1079880617
C   C11       1.0  0.30340  0.62340  0.28560  1.0000 -0.2042975965
C   C12       1.0  0.30340  0.87660  0.78560  1.0000 -0.2042975965
C   C13       1.0  0.36930  0.53290  0.34460  1.0000 -0.122066548
C   C14       1.0  0.36930  0.96710  0.84460  1.0000 -0.122066548
C   C15       1.0  0.45490  0.64570  0.46780  1.0000 -0.122066548
C   C16       1.0  0.45490  0.85430  0.96780  1.0000 -0.122066548
C   C17       1.0  0.53750  0.69360  0.51090  1.0000 -0.0397754758
C   C18       1.0  0.53750  0.80640  0.01090  1.0000 -0.0397754758
C   C19       1.0  0.52580  0.61140  0.41510  1.0000 0.3484153357
C   C20       1.0  0.52580  0.88860  0.91510  1.0000 0.3484153357
C   C21       1.0  0.54490  0.56370  0.36080  1.0000 -0.5276039955
C   C22       1.0  0.54490  0.93630  0.86080  1.0000 -0.5276039955
C   C23       1.0  0.81050  0.71940  0.45780  1.0000 0.5812408832
C   C24       1.0  0.81050  0.78060  0.95780  1.0000 0.5812408832
C   C25       1.0  0.81130  0.74260  0.39000  1.0000 -0.0206671119
C   C26       1.0  0.81130  0.75740  0.89000  1.0000 -0.0206671119
C   C27       1.0  0.88960  0.77670  0.39830  1.0000 -0.1029126624
C   C28       1.0  0.88960  0.72330  0.89830  1.0000 -0.1029126624
C   C29       1.0  0.89200  0.79500  0.33620  1.0000 -0.1079880617
C   C30       1.0  0.89200  0.70500  0.83620  1.0000 -0.1079880617
C   C31       1.0  0.81610  0.78220  0.26530  1.0000 -0.0206671119
C   C32       1.0  0.81610  0.71780  0.76530  1.0000 -0.0206671119
C   C33       1.0  0.81970  0.80190  0.19800  1.0000 0.5641086158
C   C34       1.0  0.81970  0.69810  0.69800  1.0000 0.5641086158
C   C35       1.0  0.73700  0.75040  0.25650  1.0000 -0.122066548
C   C36       1.0  0.73700  0.74960  0.75650  1.0000 -0.122066548
C   C37       1.0  0.73520  0.73070  0.31860  1.0000 -0.122066548
C   C38       1.0  0.73520  0.76930  0.81860  1.0000 -0.122066548
C   C39       1.0  0.81420  0.45960  0.57060  1.0000 0.5641086158
C   C40       1.0  0.81420  0.04040  0.07060  1.0000 0.5641086158
C   C41       1.0  0.81260  0.32210  0.56980  1.0000 -0.0317341195
C   C42       1.0  0.81260  0.17790  0.06980  1.0000 -0.0317341195
C   C43       1.0  0.88730  0.25670  0.62310  1.0000 -0.1079880617
C   C44       1.0  0.88730  0.24330  0.12310  1.0000 -0.1079880617
C   C45       1.0  0.88370  0.12990  0.62560  1.0000 -0.1079880617
C   C46       1.0  0.88370  0.37010  0.12560  1.0000 -0.1079880617
C   C47       1.0  0.80660  0.06740  0.57480  1.0000 -0.0206671119
C   C48       1.0  0.80660  0.43260  0.07480  1.0000 -0.0206671119
C   C49       1.0  0.80400  0.92920  0.57670  1.0000 0.5812408832
C   C50       1.0  0.80400  0.57080  0.07670  1.0000 0.5812408832
C   C51       1.0  0.73260  0.13240  0.52150  1.0000 -0.1079880617
C   C52       1.0  0.73260  0.36760  0.02150  1.0000 -0.1079880617
C   C53       1.0  0.73490  0.25920  0.51860  1.0000 -0.1275051365
C   C54       1.0  0.73490  0.24080  0.01860  1.0000 -0.1275051365
C   C55       1.0  0.90690  0.42860  0.29890  1.0000 -0.0397754758
C   C56       1.0  0.90690  0.07140  0.79890  1.0000 -0.0397754758
C   C57       1.0  0.81970  0.40350  0.25170  1.0000 -0.122066548
C   C58       1.0  0.81970  0.09650  0.75170  1.0000 -0.122066548
C   C59       1.0  0.89370  0.23130  0.27770  1.0000 0.3484153357
C   C60       1.0  0.89370  0.26870  0.77770  1.0000 0.3484153357
C   C61       1.0  0.91360  0.09870  0.27760  1.0000 -0.5483903994
C   C62       1.0  0.91360  0.40130  0.77760  1.0000 -0.5483903994
C   C63       1.0  0.73020  0.21400  0.18250  1.0000 -0.1079880617
C   C64       1.0  0.73020  0.28600  0.68250  1.0000 -0.1079880617
C   C65       1.0  0.69660  0.12340  0.21440  1.0000 -0.2042975965
C   C66       1.0  0.69660  0.37660  0.71440  1.0000 -0.2042975965
C   C67       1.0  0.63070  0.03290  0.15540  1.0000 -0.122066548
C   C68       1.0  0.63070  0.46710  0.65540  1.0000 -0.122066548
C   C69       1.0  0.54510  0.14570  0.03220  1.0000 -0.122066548
C   C70       1.0  0.54510  0.35430  0.53220  1.0000 -0.122066548
C   C71       1.0  0.46250  0.19360  0.98910  1.0000 -0.0397754758
C   C72       1.0  0.46250  0.30640  0.48910  1.0000 -0.0397754758
C   C73       1.0  0.47420  0.11140  0.08490  1.0000 0.3484153357
C   C74       1.0  0.47420  0.38860  0.58490  1.0000 0.3484153357
C   C75       1.0  0.45510  0.06370  0.13920  1.0000 -0.5276039955
C   C76       1.0  0.45510  0.43630  0.63920  1.0000 -0.5276039955
C   C77       1.0  0.18950  0.21940  0.04220  1.0000 0.5812408832
C   C78       1.0  0.18950  0.28060  0.54220  1.0000 0.5812408832
C   C79       1.0  0.18870  0.24260  0.11000  1.0000 -0.0206671119
C   C80       1.0  0.18870  0.25740  0.61000  1.0000 -0.0206671119
C   C81       1.0  0.11040  0.27670  0.10170  1.0000 -0.1029126624
C   C82       1.0  0.11040  0.22330  0.60170  1.0000 -0.1029126624
C   C83       1.0  0.10800  0.29500  0.16380  1.0000 -0.1079880617
C   C84       1.0  0.10800  0.20500  0.66380  1.0000 -0.1079880617
C   C85       1.0  0.18390  0.28220  0.23470  1.0000 -0.0206671119
C   C86       1.0  0.18390  0.21780  0.73470  1.0000 -0.0206671119
C   C87       1.0  0.18030  0.30190  0.30200  1.0000 0.5641086158
C   C88       1.0  0.18030  0.19810  0.80200  1.0000 0.5641086158
C   C89       1.0  0.26300  0.25040  0.24350  1.0000 -0.122066548
C   C90       1.0  0.26300  0.24960  0.74350  1.0000 -0.122066548
C   C91       1.0  0.26480  0.23070  0.18140  1.0000 -0.122066548
C   C92       1.0  0.26480  0.26930  0.68140  1.0000 -0.122066548
C   C93       1.0  0.18580  0.95960  0.92940  1.0000 0.5641086158
C   C94       1.0  0.18580  0.54040  0.42940  1.0000 0.5641086158
C   C95       1.0  0.18740  0.82210  0.93020  1.0000 -0.0317341195
C   C96       1.0  0.18740  0.67790  0.43020  1.0000 -0.0317341195
C   C97       1.0  0.11270  0.75670  0.87690  1.0000 -0.1079880617
C   C98       1.0  0.11270  0.74330  0.37690  1.0000 -0.1079880617
C   C99       1.0  0.11630  0.62990  0.87440  1.0000 -0.1079880617
C   C100      1.0  0.11630  0.87010  0.37440  1.0000 -0.1079880617
C   C101      1.0  0.19340  0.56740  0.92520  1.0000 -0.0206671119
C   C102      1.0  0.19340  0.93260  0.42520  1.0000 -0.0206671119
C   C103      1.0  0.19600  0.42920  0.92330  1.0000 0.5812408832
C   C104      1.0  0.19600  0.07080  0.42330  1.0000 0.5812408832
C   C105      1.0  0.26740  0.63240  0.97850  1.0000 -0.1079880617
C   C106      1.0  0.26740  0.86760  0.47850  1.0000 -0.1079880617
C   C107      1.0  0.26510  0.75920  0.98140  1.0000 -0.1275051365
C   C108      1.0  0.26510  0.74080  0.48140  1.0000 -0.1275051365
N   N1        1.0  0.04686  0.81830  0.18471  1.0000 -0.3406673613
N   N2        1.0  0.04686  0.68170  0.68471  1.0000 -0.3406673613
N   N3        1.0  0.18820  0.77870  0.26150  1.0000 -0.0107730222
N   N4        1.0  0.18820  0.72130  0.76150  1.0000 -0.0107730222
N   N5        1.0  0.44800  0.59400  0.40690  1.0000 -0.0107730222
N   N6        1.0  0.44800  0.90600  0.90690  1.0000 -0.0107730222
N   N7        1.0  0.58122  0.67160  0.47712  1.0000 -0.3406673613
N   N8        1.0  0.58122  0.82840  0.97712  1.0000 -0.3406673613
N   N9        1.0  0.95314  0.31830  0.31529  1.0000 -0.3406673613
N   N10       1.0  0.95314  0.18170  0.81529  1.0000 -0.3406673613
N   N11       1.0  0.81180  0.27870  0.23850  1.0000 -0.0107730222
N   N12       1.0  0.81180  0.22130  0.73850  1.0000 -0.0107730222
N   N13       1.0  0.55200  0.09400  0.09310  1.0000 -0.0107730222
N   N14       1.0  0.55200  0.40600  0.59310  1.0000 -0.0107730222
N   N15       1.0  0.41878  0.17160  0.02288  1.0000 -0.3406673613
N   N16       1.0  0.41878  0.32840  0.52288  1.0000 -0.3406673613
O   O1        1.0  0.73712  0.70490  0.44790  1.0000 -0.5276039955
O   O2        1.0  0.73712  0.79510  0.94790  1.0000 -0.5276039955
O   O3        1.0  0.88331  0.71550  0.51860  1.0000 -0.5276039955
O   O4        1.0  0.88331  0.78450  0.01860  1.0000 -0.5276039955
O   O5        1.0  0.89416  0.81450  0.20923  1.0000 -0.5105661544
O   O6        1.0  0.89416  0.68550  0.70923  1.0000 -0.5105661544
O   O7        1.0  0.74741  0.80340  0.13611  1.0000 -0.5483903994
O   O8        1.0  0.74741  0.69660  0.63611  1.0000 -0.5483903994
O   O9        1.0  0.88775  0.51140  0.60533  1.0000 -0.5276039955
O   O10       1.0  0.88775  0.98860  0.10533  1.0000 -0.5276039955
O   O11       1.0  0.74040  0.51240  0.53750  1.0000 -0.5428748202
O   O12       1.0  0.74040  0.98760  0.03750  1.0000 -0.5483903994
O   O13       1.0  0.87556  0.87350  0.61587  1.0000 -0.5428748202
O   O14       1.0  0.87556  0.62650  0.11587  1.0000 -0.5428748202
O   O15       1.0  0.72960  0.87880  0.53720  1.0000 -0.5276039955
O   O16       1.0  0.72960  0.62120  0.03720  1.0000 -0.5276039955
O   O17       1.0  0.26288  0.20490  0.05210  1.0000 -0.5276039955
O   O18       1.0  0.26288  0.29510  0.55210  1.0000 -0.5276039955
O   O19       1.0  0.11669  0.21550  0.98140  1.0000 -0.5243134144
O   O20       1.0  0.11669  0.28450  0.48140  1.0000 -0.5276039955
O   O21       1.0  0.10584  0.31450  0.29077  1.0000 -0.5105661544
O   O22       1.0  0.10584  0.18550  0.79077  1.0000 -0.5105661544
O   O23       1.0  0.25259  0.30340  0.36389  1.0000 -0.5483903994
O   O24       1.0  0.25259  0.19660  0.86389  1.0000 -0.5483903994
O   O25       1.0  0.11225  0.01140  0.89467  1.0000 -0.5276039955
O   O26       1.0  0.11225  0.48860  0.39467  1.0000 -0.5276039955
O   O27       1.0  0.25960  0.01240  0.96250  1.0000 -0.5428748202
O   O28       1.0  0.25960  0.48760  0.46250  1.0000 -0.5428748202
O   O29       1.0  0.12444  0.37350  0.88413  1.0000 -0.5428748202
O   O30       1.0  0.12444  0.12650  0.38413  1.0000 -0.5428748202
O   O31       1.0  0.27040  0.37880  0.96280  1.0000 -0.5276039955
O   O32       1.0  0.27040  0.12120  0.46280  1.0000 -0.5276039955
