# DDEC6 charges by PACMAN v1.1 (https://github.com/mtap-research/PACMAN-charge/)
data_2012[Fe][nan]3[FSR]8
_chemical_formula_sum              "Fe6 H30 C30 O24"
_cell_length_a       15.3336
_cell_length_b       15.3336
_cell_length_c       15.3336
_cell_angle_alpha    117.903
_cell_angle_beta     117.903
_cell_angle_gamma    117.903

_symmetry_space_group_name_H-M    "P 1"
_symmetry_Int_Tables_number       1

loop_
  _symmetry_equiv_pos_as_xyz
  'x, y, z'

loop_
  _atom_site_type_symbol
  _atom_site_label
  _atom_site_symmetry_multiplicity
  _atom_site_fract_x
  _atom_site_fract_y
  _atom_site_fract_z
  _atom_site_occupancy
  _atom_site_charge
Fe  Fe1       1.0  0.37902  0.95776  0.69582  1.0000 0.8739135135
Fe  Fe2       1.0  0.95776  0.69582  0.37902  1.0000 0.8739135135
Fe  Fe3       1.0  0.69582  0.37902  0.95776  1.0000 0.8739135135
Fe  Fe4       1.0  0.62098  0.04224  0.30418  1.0000 0.8739135135
Fe  Fe5       1.0  0.04224  0.30418  0.62098  1.0000 0.8739135135
Fe  Fe6       1.0  0.30418  0.62098  0.04224  1.0000 0.8739135135
H   H1        1.0  0.29930  0.86200  0.83740  1.0000 0.1573324792
H   H2        1.0  0.86200  0.83740  0.29930  1.0000 0.1573324792
H   H3        1.0  0.83740  0.29930  0.86200  1.0000 0.1573324792
H   H4        1.0  0.70070  0.13800  0.16260  1.0000 0.1573324792
H   H5        1.0  0.13800  0.16260  0.70070  1.0000 0.1573324792
H   H6        1.0  0.16260  0.70070  0.13800  1.0000 0.1573324792
H   H7        1.0  0.26470  0.75530  0.55600  1.0000 0.2821740576
H   H8        1.0  0.75530  0.55600  0.26470  1.0000 0.2821740576
H   H9        1.0  0.55600  0.26470  0.75530  1.0000 0.2821740576
H   H10       1.0  0.73530  0.24470  0.44400  1.0000 0.2821740576
H   H11       1.0  0.24470  0.44400  0.73530  1.0000 0.2821740576
H   H12       1.0  0.44400  0.73530  0.24470  1.0000 0.2821740576
H   H13       1.0  0.29400  0.58900  0.50400  1.0000 0.1235646015
H   H14       1.0  0.58900  0.50400  0.29400  1.0000 0.1235646015
H   H15       1.0  0.50400  0.29400  0.58900  1.0000 0.1235646015
H   H16       1.0  0.70600  0.41100  0.49600  1.0000 0.1235646015
H   H17       1.0  0.41100  0.49600  0.70600  1.0000 0.1235646015
H   H18       1.0  0.49600  0.70600  0.41100  1.0000 0.1235646015
H   H19       1.0  0.27440  0.66210  0.60650  1.0000 0.0987003812
H   H20       1.0  0.66210  0.60650  0.27440  1.0000 0.0987003812
H   H21       1.0  0.60650  0.27440  0.66210  1.0000 0.0987003812
H   H22       1.0  0.72560  0.33790  0.39350  1.0000 0.0987003812
H   H23       1.0  0.33790  0.39350  0.72560  1.0000 0.0987003812
H   H24       1.0  0.39350  0.72560  0.33790  1.0000 0.0987003812
H   H25       1.0  0.51200  0.84600  0.75800  1.0000 0.1235646015
H   H26       1.0  0.84600  0.75800  0.51200  1.0000 0.1235646015
H   H27       1.0  0.75800  0.51200  0.84600  1.0000 0.1235646015
H   H28       1.0  0.48800  0.15400  0.24200  1.0000 0.1235646015
H   H29       1.0  0.15400  0.24200  0.48800  1.0000 0.1235646015
H   H30       1.0  0.24200  0.48800  0.15400  1.0000 0.1235646015
C   C1        1.0  0.23980  0.67510  0.84500  1.0000 0.5911279389
C   C2        1.0  0.67510  0.84500  0.23980  1.0000 0.5911279389
C   C3        1.0  0.84500  0.23980  0.67510  1.0000 0.5911279389
C   C4        1.0  0.76020  0.32490  0.15500  1.0000 0.5911279389
C   C5        1.0  0.32490  0.15500  0.76020  1.0000 0.5911279389
C   C6        1.0  0.15500  0.76020  0.32490  1.0000 0.5911279389
C   C7        1.0  0.11500  0.58440  0.67050  1.0000 -0.176553938
C   C8        1.0  0.58440  0.67050  0.11500  1.0000 -0.176553938
C   C9        1.0  0.67050  0.11500  0.58440  1.0000 -0.176553938
C   C10       1.0  0.88500  0.41560  0.32950  1.0000 -0.176553938
C   C11       1.0  0.41560  0.32950  0.88500  1.0000 -0.176553938
C   C12       1.0  0.32950  0.88500  0.41560  1.0000 -0.176553938
C   C13       1.0  0.05470  0.62710  0.52760  1.0000 0.2821740576
C   C14       1.0  0.62710  0.52760  0.05470  1.0000 0.2821740576
C   C15       1.0  0.52760  0.05470  0.62710  1.0000 0.2821740576
C   C16       1.0  0.94530  0.37290  0.47240  1.0000 0.2821740576
C   C17       1.0  0.37290  0.47240  0.94530  1.0000 0.2821740576
C   C18       1.0  0.47240  0.94530  0.37290  1.0000 0.2821740576
C   C19       1.0  0.17430  0.71410  0.69900  1.0000 -0.2164557135
C   C20       1.0  0.71410  0.69900  0.17430  1.0000 -0.2164557135
C   C21       1.0  0.69900  0.17430  0.71410  1.0000 -0.2164557135
C   C22       1.0  0.82570  0.28590  0.30100  1.0000 -0.2164557135
C   C23       1.0  0.28590  0.30100  0.82570  1.0000 -0.2164557135
C   C24       1.0  0.30100  0.82570  0.28590  1.0000 -0.2164557135
C   C25       1.0  0.35180  0.70710  0.60710  1.0000 -0.1915916732
C   C26       1.0  0.70710  0.60710  0.35180  1.0000 -0.1915916732
C   C27       1.0  0.60710  0.35180  0.70710  1.0000 -0.1915916732
C   C28       1.0  0.64820  0.29290  0.39290  1.0000 -0.1915916732
C   C29       1.0  0.29290  0.39290  0.64820  1.0000 -0.1915916732
C   C30       1.0  0.39290  0.64820  0.29290  1.0000 -0.1915916732
O   O1        1.0  0.39140  0.86500  0.02130  1.0000 -0.4991027347
O   O2        1.0  0.86500  0.02130  0.39140  1.0000 -0.4991027347
O   O3        1.0  0.02130  0.39140  0.86500  1.0000 -0.4991027347
O   O4        1.0  0.60860  0.13500  0.97870  1.0000 -0.4991027347
O   O5        1.0  0.13500  0.97870  0.60860  1.0000 -0.4991027347
O   O6        1.0  0.97870  0.60860  0.13500  1.0000 -0.4991027347
O   O7        1.0  0.17717  0.56043  0.81980  1.0000 -0.5240335993
O   O8        1.0  0.56043  0.81980  0.17717  1.0000 -0.5240335993
O   O9        1.0  0.81980  0.17717  0.56043  1.0000 -0.5240335993
O   O10       1.0  0.82283  0.43957  0.18020  1.0000 -0.5240335993
O   O11       1.0  0.43957  0.18020  0.82283  1.0000 -0.5240335993
O   O12       1.0  0.18020  0.82283  0.43957  1.0000 -0.5240335993
O   O13       1.0  0.12113  0.75497  0.55800  1.0000 -0.5707983704
O   O14       1.0  0.75497  0.55800  0.12113  1.0000 -0.5707983704
O   O15       1.0  0.55800  0.12113  0.75497  1.0000 -0.5707983704
O   O16       1.0  0.87887  0.24503  0.44200  1.0000 -0.5707983704
O   O17       1.0  0.24503  0.44200  0.87887  1.0000 -0.5707983704
O   O18       1.0  0.44200  0.87887  0.24503  1.0000 -0.5707983704
O   O19       1.0  0.31190  0.73990  0.53920  1.0000 -0.3538006834
O   O20       1.0  0.73990  0.53920  0.31190  1.0000 -0.3550901941
O   O21       1.0  0.53920  0.31190  0.73990  1.0000 -0.3538006834
O   O22       1.0  0.68810  0.26010  0.46080  1.0000 -0.3538006834
O   O23       1.0  0.26010  0.46080  0.68810  1.0000 -0.3538006834
O   O24       1.0  0.46080  0.68810  0.26010  1.0000 -0.3538006834
