# DDEC6 charges by PACMAN v1.1 (https://github.com/mtap-research/PACMAN-charge/)
data_2012[Sm][nan]3[FSR]3
_chemical_formula_sum              "Sm6 H70 C66 N44"
_cell_length_a       13.5168
_cell_length_b       13.5168
_cell_length_c       16.214
_cell_angle_alpha    81.8903
_cell_angle_beta     98.1097
_cell_angle_gamma    57.5538

_symmetry_space_group_name_H-M    "P 1"
_symmetry_Int_Tables_number       1

loop_
  _symmetry_equiv_pos_as_xyz
  'x, y, z'

loop_
  _atom_site_type_symbol
  _atom_site_label
  _atom_site_symmetry_multiplicity
  _atom_site_fract_x
  _atom_site_fract_y
  _atom_site_fract_z
  _atom_site_occupancy
  _atom_site_charge
Sm  Sm1       1.0  0.91978  0.42438  0.32258  1.0000 1.6514061033
Sm  Sm2       1.0  0.57562  0.08022  0.82258  1.0000 1.6514061033
Sm  Sm3       1.0  0.36212  0.98564  0.17260  1.0000 1.6514061033
Sm  Sm4       1.0  0.01436  0.63788  0.67260  1.0000 1.6514061033
Sm  Sm5       1.0  0.89477  0.94775  0.24710  1.0000 1.640135759
Sm  Sm6       1.0  0.05225  0.10523  0.74710  1.0000 1.640135759
H   H1        1.0  0.38250  0.29250  0.46640  1.0000 0.2832143246
H   H2        1.0  0.70750  0.61750  0.96640  1.0000 0.2832143246
H   H3        1.0  0.49970  0.80950  0.52650  1.0000 0.285678619
H   H4        1.0  0.19050  0.50030  0.02650  1.0000 0.285678619
H   H5        1.0  0.21220  0.19980  0.28950  1.0000 0.0804161978
H   H6        1.0  0.80020  0.78780  0.78950  1.0000 0.0804161978
H   H7        1.0  0.91350  0.41110  0.10210  1.0000 0.0903040843
H   H8        1.0  0.58890  0.08650  0.60210  1.0000 0.0903040843
H   H9        1.0  0.07280  0.26200  0.04340  1.0000 0.1002573437
H   H10       1.0  0.73800  0.92720  0.54340  1.0000 0.1002573437
H   H11       1.0  0.02960  0.52860  0.48040  1.0000 0.0804161978
H   H12       1.0  0.47140  0.97040  0.98040  1.0000 0.0804161978
H   H13       1.0  0.70120  0.59760  0.44380  1.0000 0.1002573437
H   H14       1.0  0.40240  0.29880  0.94380  1.0000 0.1002573437
H   H15       1.0  0.73910  0.66550  0.57000  1.0000 0.1002573437
H   H16       1.0  0.33450  0.26090  0.07000  1.0000 0.1002573437
H   H17       1.0  0.65620  0.73280  0.29550  1.0000 0.0718050389
H   H18       1.0  0.26720  0.34380  0.79550  1.0000 0.0718050389
H   H19       1.0  0.67710  0.52950  0.13540  1.0000 0.1002573437
H   H20       1.0  0.47050  0.32290  0.63540  1.0000 0.1002573437
H   H21       1.0  0.49330  0.73490  0.07390  1.0000 0.1002573437
H   H22       1.0  0.26510  0.50670  0.57390  1.0000 0.1002573437
H   H23       1.0  0.96810  0.17630  0.22960  1.0000 0.0804161978
H   H24       1.0  0.82370  0.03190  0.72960  1.0000 0.0804161978
H   H25       1.0  0.66667  0.39950  0.29400  1.0000 0.1097472526
H   H26       1.0  0.60050  0.33333  0.79400  1.0000 0.1097472526
H   H27       1.0  0.66410  0.22590  0.26840  1.0000 0.1097472526
H   H28       1.0  0.77410  0.33590  0.76840  1.0000 0.1097472526
H   H29       1.0  0.92560  0.35540  0.55320  1.0000 0.0903040843
H   H30       1.0  0.64460  0.07440  0.05320  1.0000 0.0903040843
H   H31       1.0  0.97960  0.13040  0.40600  1.0000 0.1002573437
H   H32       1.0  0.86960  0.02040  0.90600  1.0000 0.1002573437
H   H33       1.0  0.03230  0.02170  0.55750  1.0000 0.1002573437
H   H34       1.0  0.97830  0.96770  0.05750  1.0000 0.1002573437
H   H35       1.0  0.19500  0.41920  0.35310  1.0000 0.1002573437
H   H36       1.0  0.58080  0.80500  0.85310  1.0000 0.1002573437
H   H37       1.0  0.17070  0.18770  0.51150  1.0000 0.1097472526
H   H38       1.0  0.81230  0.82930  0.01150  1.0000 0.1097472526
H   H39       1.0  0.36280  0.15200  0.56940  1.0000 0.1189744151
H   H40       1.0  0.84800  0.63720  0.06940  1.0000 0.1189744151
H   H41       1.0  0.08330  0.02810  0.16770  1.0000 0.0804161978
H   H42       1.0  0.97190  0.91670  0.66770  1.0000 0.0804161978
H   H43       1.0  0.38570  0.71450  0.29130  1.0000 0.1097472526
H   H44       1.0  0.28550  0.61430  0.79130  1.0000 0.1097472526
H   H45       1.0  0.21430  0.70390  0.31200  1.0000 0.1097472526
H   H46       1.0  0.29610  0.78570  0.81200  1.0000 0.1097472526
H   H47       1.0  0.64190  0.93810  0.17320  1.0000 0.0804161978
H   H48       1.0  0.06190  0.35810  0.67320  1.0000 0.0804161978
H   H49       1.0  0.47750  0.08510  0.34800  1.0000 0.1002573437
H   H50       1.0  0.91490  0.52250  0.84800  1.0000 0.1002573437
H   H51       1.0  0.67280  0.06220  0.37470  1.0000 0.1002573437
H   H52       1.0  0.93780  0.32720  0.87470  1.0000 0.1002573437
H   H53       1.0  0.55170  0.83950  0.39490  1.0000 0.0903040843
H   H54       1.0  0.16050  0.44830  0.89490  1.0000 0.0903040843
H   H55       1.0  0.19620  0.02680  0.34640  1.0000 0.1097472526
H   H56       1.0  0.97320  0.80380  0.84640  1.0000 0.1097472526
H   H57       1.0  0.27780  0.91820  0.50060  1.0000 0.1189744151
H   H58       1.0  0.08180  0.72220  0.00060  1.0000 0.1189744151
H   H59       1.0  0.86020  0.71300  0.30650  1.0000 0.0804161978
H   H60       1.0  0.28700  0.13980  0.80650  1.0000 0.0804161978
H   H61       1.0  0.06730  0.69210  0.15210  1.0000 0.1002573437
H   H62       1.0  0.30790  0.93270  0.65210  1.0000 0.1002573437
H   H63       1.0  0.07790  0.50310  0.17810  1.0000 0.1002573437
H   H64       1.0  0.49690  0.92210  0.67810  1.0000 0.1002573437
H   H65       1.0  0.87520  0.80580  0.44550  1.0000 0.0804161978
H   H66       1.0  0.19420  0.12480  0.94550  1.0000 0.0804161978
H   H67       1.0  0.12000  0.88400  0.42400  1.0000 0.0804161978
H   H68       1.0  0.11600  0.88000  0.92400  1.0000 0.0804161978
H   H69       1.0  0.18200  0.74280  0.57210  1.0000 0.1097472526
H   H70       1.0  0.25720  0.81800  0.07210  1.0000 0.1097472526
C   C1        1.0  0.15600  0.23320  0.23460  1.0000 0.1291858344
C   C2        1.0  0.76680  0.84400  0.73460  1.0000 0.1291858344
C   C3        1.0  0.99410  0.34850  0.13420  1.0000 -0.0592498387
C   C4        1.0  0.65150  0.00590  0.63420  1.0000 -0.0592498387
C   C5        1.0  0.08190  0.26650  0.10160  1.0000 -0.0697588199
C   C6        1.0  0.73350  0.91810  0.60160  1.0000 -0.0697588199
C   C7        1.0  0.95080  0.55520  0.48660  1.0000 0.1397287859
C   C8        1.0  0.44480  0.04920  0.98660  1.0000 0.1397287859
C   C9        1.0  0.77320  0.59220  0.46630  1.0000 -0.0892612473
C   C10       1.0  0.40780  0.22680  0.96630  1.0000 -0.0892612473
C   C11       1.0  0.79450  0.62930  0.53610  1.0000 -0.0592498387
C   C12       1.0  0.37070  0.20550  0.03610  1.0000 -0.0592498387
C   C13       1.0  0.63720  0.70680  0.24780  1.0000 0.1291858344
C   C14       1.0  0.29320  0.36280  0.74780  1.0000 0.1291858344
C   C15       1.0  0.65040  0.59540  0.16120  1.0000 -0.0768875205
C   C16       1.0  0.40460  0.34960  0.66120  1.0000 -0.0768875205
C   C17       1.0  0.54900  0.70860  0.12800  1.0000 -0.0510051283
C   C18       1.0  0.29140  0.45100  0.62800  1.0000 -0.0510051283
C   C19       1.0  0.89150  0.21130  0.24250  1.0000 0.1397287859
C   C20       1.0  0.78870  0.10850  0.74250  1.0000 0.1397287859
C   C21       1.0  0.72810  0.33290  0.27740  1.0000 -0.0510051283
C   C22       1.0  0.66710  0.27190  0.77740  1.0000 -0.0510051283
C   C23       1.0  0.72700  0.23700  0.26350  1.0000 -0.0510051283
C   C24       1.0  0.76300  0.27300  0.76350  1.0000 -0.0510051283
C   C25       1.0  0.94560  0.28480  0.53470  1.0000 0.1538684978
C   C26       1.0  0.71520  0.05440  0.03470  1.0000 0.1538684978
C   C27       1.0  0.97450  0.16410  0.45410  1.0000 -0.0592498387
C   C28       1.0  0.83590  0.02550  0.95410  1.0000 -0.0592498387
C   C29       1.0  0.00340  0.10440  0.53780  1.0000 -0.0592498387
C   C30       1.0  0.89560  0.99660  0.03780  1.0000 -0.0592498387
C   C31       1.0  0.21390  0.35610  0.40020  1.0000 0.1291858344
C   C32       1.0  0.64390  0.78610  0.90020  1.0000 0.1291858344
C   C33       1.0  0.20050  0.23110  0.48650  1.0000 -0.0435095118
C   C34       1.0  0.76890  0.79950  0.98650  1.0000 -0.0435095118
C   C35       1.0  0.30510  0.21030  0.51760  1.0000 -0.0768875205
C   C36       1.0  0.78970  0.69490  0.01760  1.0000 -0.0768875205
C   C37       1.0  0.13830  0.94690  0.20210  1.0000 0.1397287859
C   C38       1.0  0.05310  0.86170  0.70210  1.0000 0.1397287859
C   C39       1.0  0.30210  0.77810  0.26820  1.0000 -0.0435095118
C   C40       1.0  0.22190  0.69790  0.76820  1.0000 -0.0435095118
C   C41       1.0  0.20760  0.77260  0.27990  1.0000 -0.0592498387
C   C42       1.0  0.22740  0.79240  0.77990  1.0000 -0.0592498387
C   C43       1.0  0.62520  0.97260  0.22080  1.0000 0.1397287859
C   C44       1.0  0.02740  0.37480  0.72080  1.0000 0.1397287859
C   C45       1.0  0.53500  0.05220  0.31500  1.0000 -0.0592498387
C   C46       1.0  0.94780  0.46500  0.81500  1.0000 -0.0697588199
C   C47       1.0  0.64270  0.03950  0.32980  1.0000 -0.0768875205
C   C48       1.0  0.96050  0.35730  0.82980  1.0000 -0.0768875205
C   C49       1.0  0.47160  0.87600  0.40150  1.0000 0.1397287859
C   C50       1.0  0.12400  0.52840  0.90150  1.0000 0.1397287859
C   C51       1.0  0.27980  0.97580  0.37630  1.0000 -0.0510051283
C   C52       1.0  0.02420  0.72020  0.87630  1.0000 -0.0510051283
C   C53       1.0  0.32320  0.91700  0.46050  1.0000 -0.0510051283
C   C54       1.0  0.08300  0.67680  0.96050  1.0000 -0.0510051283
C   C55       1.0  0.91390  0.68370  0.27050  1.0000 0.1397287859
C   C56       1.0  0.31630  0.08610  0.77050  1.0000 0.1397287859
C   C57       1.0  0.02550  0.67370  0.18700  1.0000 -0.0592498387
C   C58       1.0  0.32630  0.97450  0.68700  1.0000 -0.0592498387
C   C59       1.0  0.03160  0.56980  0.20150  1.0000 -0.0892612473
C   C60       1.0  0.43020  0.96840  0.70150  1.0000 -0.0892612473
C   C61       1.0  0.94620  0.80540  0.45980  1.0000 0.1397287859
C   C62       1.0  0.19460  0.05380  0.95980  1.0000 0.1397287859
C   C63       1.0  0.07970  0.84210  0.44840  1.0000 -0.0510051283
C   C64       1.0  0.15790  0.92030  0.94840  1.0000 -0.0510051283
C   C65       1.0  0.11110  0.77170  0.52830  1.0000 -0.0768875205
C   C66       1.0  0.22830  0.88890  0.02830  1.0000 -0.0768875205
N   N1        1.0  0.03960  0.32700  0.21970  1.0000 -0.4277621228
N   N2        1.0  0.67300  0.96040  0.71970  1.0000 -0.4277621228
N   N3        1.0  0.18620  0.19120  0.16760  1.0000 -0.4105917872
N   N4        1.0  0.80880  0.81380  0.66760  1.0000 -0.4105917872
N   N5        1.0  0.87480  0.54460  0.43310  1.0000 -0.4277621228
N   N6        1.0  0.45540  0.12520  0.93310  1.0000 -0.4277621228
N   N7        1.0  0.90800  0.60660  0.55040  1.0000 -0.4211141925
N   N8        1.0  0.39340  0.09200  0.05040  1.0000 -0.4211141925
N   N9        1.0  0.70840  0.59300  0.23980  1.0000 -0.4277621228
N   N10       1.0  0.40700  0.29160  0.73980  1.0000 -0.4277621228
N   N11       1.0  0.53720  0.78000  0.18240  1.0000 -0.4391032568
N   N12       1.0  0.22000  0.46280  0.68240  1.0000 -0.4391032568
N   N13       1.0  0.83390  0.31730  0.26340  1.0000 -0.4277621228
N   N14       1.0  0.68270  0.16610  0.76340  1.0000 -0.4277621228
N   N15       1.0  0.83000  0.15900  0.24150  1.0000 -0.4277621228
N   N16       1.0  0.84100  0.17000  0.74150  1.0000 -0.4277621228
N   N17       1.0  0.93630  0.28250  0.45140  1.0000 -0.4211141925
N   N18       1.0  0.71750  0.06370  0.95140  1.0000 -0.4211141925
N   N19       1.0  0.98470  0.18090  0.58880  1.0000 -0.4211141925
N   N20       1.0  0.81910  0.01530  0.08880  1.0000 -0.4211141925
N   N21       1.0  0.13900  0.32300  0.41370  1.0000 -0.3858754696
N   N22       1.0  0.67700  0.86100  0.91370  1.0000 -0.3858754696
N   N23       1.0  0.31910  0.28850  0.46200  1.0000 -0.2090223492
N   N24       1.0  0.71150  0.68090  0.96200  1.0000 -0.2090223492
N   N25       1.0  0.25660  0.89160  0.21710  1.0000 -0.4277621228
N   N26       1.0  0.10840  0.74340  0.71710  1.0000 -0.4277621228
N   N27       1.0  0.09950  0.88370  0.23740  1.0000 -0.4454074563
N   N28       1.0  0.11630  0.90050  0.73740  1.0000 -0.4454074563
N   N29       1.0  0.52190  0.01030  0.24480  1.0000 -0.4211141925
N   N30       1.0  0.98970  0.47810  0.74480  1.0000 -0.4211141925
N   N31       1.0  0.70240  0.98760  0.26890  1.0000 -0.4391032568
N   N32       1.0  0.01240  0.29760  0.76890  1.0000 -0.4391032568
N   N33       1.0  0.37550  0.95110  0.33910  1.0000 -0.3718693913
N   N34       1.0  0.04890  0.62450  0.83910  1.0000 -0.3718693913
N   N35       1.0  0.44650  0.85490  0.47640  1.0000 -0.1967022182
N   N36       1.0  0.14510  0.55350  0.97640  1.0000 -0.1967022182
N   N37       1.0  0.94880  0.74920  0.23070  1.0000 -0.4277621228
N   N38       1.0  0.25080  0.05120  0.73070  1.0000 -0.4277621228
N   N39       1.0  0.95930  0.57570  0.25600  1.0000 -0.4211141925
N   N40       1.0  0.42430  0.04070  0.75600  1.0000 -0.4211141925
N   N41       1.0  0.97510  0.86390  0.40210  1.0000 -0.4391032568
N   N42       1.0  0.13610  0.02490  0.90210  1.0000 -0.4391032568
N   N43       1.0  0.02430  0.74810  0.53700  1.0000 -0.4211141925
N   N44       1.0  0.25190  0.97570  0.03700  1.0000 -0.4211141925
