# DDEC6 charges by PACMAN v1.1 (https://github.com/mtap-research/PACMAN-charge/)
data_2012[Zn][ant]3[FSR]3
_chemical_formula_sum              "Zn8 H44 C84 N8 O26"
_cell_length_a       11.0192
_cell_length_b       11.0192
_cell_length_c       17.0388
_cell_angle_alpha    88.3461
_cell_angle_beta     91.6539
_cell_angle_gamma    89.3323

_symmetry_space_group_name_H-M    "P 1"
_symmetry_Int_Tables_number       1

loop_
  _symmetry_equiv_pos_as_xyz
  'x, y, z'

loop_
  _atom_site_type_symbol
  _atom_site_label
  _atom_site_symmetry_multiplicity
  _atom_site_fract_x
  _atom_site_fract_y
  _atom_site_fract_z
  _atom_site_occupancy
  _atom_site_charge
Zn  Zn1       1.0  0.65636  0.53702  0.81743  1.0000 0.9042851276
Zn  Zn2       1.0  0.53702  0.65636  0.68257  1.0000 0.9042851276
Zn  Zn3       1.0  0.34364  0.46298  0.18257  1.0000 0.9042851276
Zn  Zn4       1.0  0.46298  0.34364  0.31743  1.0000 0.9042851276
Zn  Zn5       1.0  0.30249  0.18449  0.17482  1.0000 0.8236998713
Zn  Zn6       1.0  0.18449  0.30249  0.32518  1.0000 0.8236998713
Zn  Zn7       1.0  0.69751  0.81551  0.82518  1.0000 0.8236998713
Zn  Zn8       1.0  0.81551  0.69751  0.67482  1.0000 0.8236998713
H   H1        1.0  0.65170  0.43970  0.03710  1.0000 0.1285068871
H   H2        1.0  0.43970  0.65170  0.46290  1.0000 0.1285068871
H   H3        1.0  0.34830  0.56030  0.96290  1.0000 0.1285068871
H   H4        1.0  0.56030  0.34830  0.53710  1.0000 0.1182193625
H   H5        1.0  0.82300  0.30560  0.23180  1.0000 0.1182193625
H   H6        1.0  0.30560  0.82300  0.26820  1.0000 0.1182193625
H   H7        1.0  0.17700  0.69440  0.76820  1.0000 0.1182193625
H   H8        1.0  0.69440  0.17700  0.73180  1.0000 0.1182193625
H   H9        1.0  0.99540  0.32180  0.02940  1.0000 0.1182193625
H   H10       1.0  0.32180  0.99540  0.47060  1.0000 0.1182193625
H   H11       1.0  0.00460  0.67820  0.97060  1.0000 0.1182193625
H   H12       1.0  0.67820  0.00460  0.52940  1.0000 0.1182193625
H   H13       1.0  0.79200  0.99280  0.12770  1.0000 0.1285068871
H   H14       1.0  0.99280  0.79200  0.37230  1.0000 0.1285068871
H   H15       1.0  0.20800  0.00720  0.87230  1.0000 0.1285068871
H   H16       1.0  0.00720  0.20800  0.62770  1.0000 0.1285068871
H   H17       1.0  0.76730  0.07730  0.98450  1.0000 0.1369876063
H   H18       1.0  0.07730  0.76730  0.51550  1.0000 0.1369876063
H   H19       1.0  0.23270  0.92270  0.01550  1.0000 0.1369876063
H   H20       1.0  0.92270  0.23270  0.48450  1.0000 0.1369876063
H   H21       1.0  0.25900  0.32760  0.88230  1.0000 0.1369876063
H   H22       1.0  0.32760  0.25900  0.61770  1.0000 0.1369876063
H   H23       1.0  0.74100  0.67240  0.11770  1.0000 0.1369876063
H   H24       1.0  0.67240  0.74100  0.38230  1.0000 0.1369876063
H   H25       1.0  0.45350  0.27510  0.85190  1.0000 0.1369876063
H   H26       1.0  0.27510  0.45350  0.64810  1.0000 0.1369876063
H   H27       1.0  0.54650  0.72490  0.14810  1.0000 0.1369876063
H   H28       1.0  0.72490  0.54650  0.35190  1.0000 0.1369876063
H   H29       1.0  0.65150  0.17210  0.89190  1.0000 0.1369876063
H   H30       1.0  0.17210  0.65150  0.60810  1.0000 0.1369876063
H   H31       1.0  0.34850  0.82790  0.10810  1.0000 0.1369876063
H   H32       1.0  0.82790  0.34850  0.39190  1.0000 0.1369876063
H   H33       1.0  0.71070  0.96870  0.24820  1.0000 0.1369876063
H   H34       1.0  0.96870  0.71070  0.25180  1.0000 0.1369876063
H   H35       1.0  0.28930  0.03130  0.75180  1.0000 0.1369876063
H   H36       1.0  0.03130  0.28930  0.74820  1.0000 0.1369876063
H   H37       1.0  0.19660  0.29380  0.00720  1.0000 0.1182193625
H   H38       1.0  0.29380  0.19660  0.49280  1.0000 0.1182193625
H   H39       1.0  0.80340  0.70620  0.99280  1.0000 0.1182193625
H   H40       1.0  0.70620  0.80340  0.50720  1.0000 0.1182193625
H   H41       1.0  0.51630  0.03850  0.26890  1.0000 0.1090301427
H   H42       1.0  0.03850  0.51630  0.23110  1.0000 0.1090301427
H   H43       1.0  0.48370  0.96150  0.73110  1.0000 0.1090301427
H   H44       1.0  0.96150  0.48370  0.76890  1.0000 0.1090301427
C   C1        1.0  0.92700  0.30720  0.13720  1.0000 -0.0487372854
C   C2        1.0  0.30720  0.92700  0.36280  1.0000 -0.0487372854
C   C3        1.0  0.07300  0.69280  0.86280  1.0000 -0.0487372854
C   C4        1.0  0.69280  0.07300  0.63720  1.0000 -0.0487372854
C   C5        1.0  0.72080  0.40580  0.06190  1.0000 -0.1213694752
C   C6        1.0  0.40580  0.72080  0.43810  1.0000 -0.1213694752
C   C7        1.0  0.27920  0.59420  0.93810  1.0000 -0.1213694752
C   C8        1.0  0.59420  0.27920  0.56190  1.0000 -0.1213694752
C   C9        1.0  0.03910  0.26230  0.17870  1.0000 0.5855559504
C   C10       1.0  0.26230  0.03910  0.32130  1.0000 0.5855559504
C   C11       1.0  0.96090  0.73770  0.82130  1.0000 0.5855559504
C   C12       1.0  0.73770  0.96090  0.67870  1.0000 0.5855559504
C   C13       1.0  0.82390  0.38830  0.01960  1.0000 -0.0277348363
C   C14       1.0  0.38830  0.82390  0.48040  1.0000 -0.0277348363
C   C15       1.0  0.17610  0.61170  0.98040  1.0000 -0.0277348363
C   C16       1.0  0.61170  0.17610  0.51960  1.0000 -0.0277348363
C   C17       1.0  0.82320  0.32560  0.17840  1.0000 -0.1090519531
C   C18       1.0  0.32560  0.82320  0.32160  1.0000 -0.1090519531
C   C19       1.0  0.17680  0.67440  0.82160  1.0000 -0.1090519531
C   C20       1.0  0.67440  0.17680  0.67840  1.0000 -0.1090519531
C   C21       1.0  0.82380  0.42420  0.93320  1.0000 0.5536988175
C   C22       1.0  0.42420  0.82380  0.56680  1.0000 0.5536988175
C   C23       1.0  0.17620  0.57580  0.06680  1.0000 0.5536988175
C   C24       1.0  0.57580  0.17620  0.43320  1.0000 0.5536988175
C   C25       1.0  0.71920  0.37300  0.14170  1.0000 -0.0419589409
C   C26       1.0  0.37300  0.71920  0.35830  1.0000 -0.0419589409
C   C27       1.0  0.28080  0.62700  0.85830  1.0000 -0.0419589409
C   C28       1.0  0.62700  0.28080  0.64170  1.0000 -0.0419589409
C   C29       1.0  0.92630  0.33670  0.05780  1.0000 -0.1027646863
C   C30       1.0  0.33670  0.92630  0.44220  1.0000 -0.1090519531
C   C31       1.0  0.07370  0.66330  0.94220  1.0000 -0.1090519531
C   C32       1.0  0.66330  0.07370  0.55780  1.0000 -0.1027646863
C   C33       1.0  0.60360  0.38920  0.18430  1.0000 0.5727891273
C   C34       1.0  0.38920  0.60360  0.31570  1.0000 0.5727891273
C   C35       1.0  0.39640  0.61080  0.81570  1.0000 0.5727891273
C   C36       1.0  0.61080  0.39640  0.68430  1.0000 0.5727891273
C   C37       1.0  0.71420  0.02200  0.13640  1.0000 -0.1027646863
C   C38       1.0  0.02200  0.71420  0.36360  1.0000 -0.1027646863
C   C39       1.0  0.28580  0.97800  0.86360  1.0000 -0.1027646863
C   C40       1.0  0.97800  0.28580  0.63640  1.0000 -0.1027646863
C   C41       1.0  0.68970  0.10330  0.99670  1.0000 -0.1394703888
C   C42       1.0  0.10330  0.68970  0.50330  1.0000 -0.1394703888
C   C43       1.0  0.31030  0.89670  0.00330  1.0000 -0.1394703888
C   C44       1.0  0.89670  0.31030  0.49670  1.0000 -0.1394703888
C   C45       1.0  0.31140  0.29140  0.92010  1.0000 -0.1297007145
C   C46       1.0  0.29140  0.31140  0.57990  1.0000 -0.1297007145
C   C47       1.0  0.68860  0.70860  0.07990  1.0000 -0.1297007145
C   C48       1.0  0.70860  0.68860  0.42010  1.0000 -0.1297007145
C   C49       1.0  0.42590  0.25870  0.90220  1.0000 -0.0849689969
C   C50       1.0  0.25870  0.42590  0.59780  1.0000 -0.0849689969
C   C51       1.0  0.57410  0.74130  0.09780  1.0000 -0.0849689969
C   C52       1.0  0.74130  0.57410  0.40220  1.0000 -0.0849689969
C   C53       1.0  0.62100  0.15980  0.94170  1.0000 -0.1297007145
C   C54       1.0  0.15980  0.62100  0.55830  1.0000 -0.1297007145
C   C55       1.0  0.37900  0.84020  0.05830  1.0000 -0.1297007145
C   C56       1.0  0.84020  0.37900  0.44170  1.0000 -0.1297007145
C   C57       1.0  0.66620  0.00720  0.20740  1.0000 -0.1213694752
C   C58       1.0  0.00720  0.66620  0.29260  1.0000 -0.1213694752
C   C59       1.0  0.33380  0.99280  0.79260  1.0000 -0.1213694752
C   C60       1.0  0.99280  0.33380  0.70740  1.0000 -0.1213694752
C   C61       1.0  0.50160  0.20200  0.95680  1.0000 0.0494341085
C   C62       1.0  0.20200  0.50160  0.54320  1.0000 0.0494341085
C   C63       1.0  0.49840  0.79800  0.04320  1.0000 0.0494341085
C   C64       1.0  0.79800  0.49840  0.45680  1.0000 0.0494341085
C   C65       1.0  0.64700  0.08140  0.07480  1.0000 0.0494341085
C   C66       1.0  0.08140  0.64700  0.42520  1.0000 0.0494341085
C   C67       1.0  0.35300  0.91860  0.92520  1.0000 0.0494341085
C   C68       1.0  0.91860  0.35300  0.57480  1.0000 0.0494341085
C   C69       1.0  0.27490  0.26970  0.99500  1.0000 0.1033614746
C   C70       1.0  0.26970  0.27490  0.50500  1.0000 0.1033614746
C   C71       1.0  0.72510  0.73030  0.00500  1.0000 0.1033614746
C   C72       1.0  0.73030  0.72510  0.49500  1.0000 0.1033614746
C   C73       1.0  0.53050  0.12330  0.09210  1.0000 0.1090301427
C   C74       1.0  0.12330  0.53050  0.40790  1.0000 0.1090301427
C   C75       1.0  0.46950  0.87670  0.90790  1.0000 0.1090301427
C   C76       1.0  0.87670  0.46950  0.59210  1.0000 0.1090301427
C   C77       1.0  0.54870  0.05050  0.21950  1.0000 0.1182193625
C   C78       1.0  0.05050  0.54870  0.28050  1.0000 0.1182193625
C   C79       1.0  0.45130  0.94950  0.78050  1.0000 0.1182193625
C   C80       1.0  0.94950  0.45130  0.71950  1.0000 0.1182193625
C   C81       1.0  0.45670  0.18250  0.03260  1.0000 0.1182193625
C   C82       1.0  0.18250  0.45670  0.46740  1.0000 0.1182193625
C   C83       1.0  0.54330  0.81750  0.96740  1.0000 0.1182193625
C   C84       1.0  0.81750  0.54330  0.53260  1.0000 0.1182193625
N   N1        1.0  0.48180  0.10720  0.16440  1.0000 -0.2673230448
N   N2        1.0  0.10720  0.48180  0.33560  1.0000 -0.2673230448
N   N3        1.0  0.51820  0.89280  0.83560  1.0000 -0.2673230448
N   N4        1.0  0.89280  0.51820  0.66440  1.0000 -0.2673230448
N   N5        1.0  0.34370  0.21670  0.05160  1.0000 -0.2550896385
N   N6        1.0  0.21670  0.34370  0.44840  1.0000 -0.2550896385
N   N7        1.0  0.65630  0.78330  0.94840  1.0000 -0.2550896385
N   N8        1.0  0.78330  0.65630  0.55160  1.0000 -0.2550896385
O   O1        1.0  0.73800  0.49960  0.91331  1.0000 -0.5621123516
O   O2        1.0  0.49960  0.73800  0.58669  1.0000 -0.5621123516
O   O3        1.0  0.26200  0.50040  0.08669  1.0000 -0.5621123516
O   O4        1.0  0.50040  0.26200  0.41331  1.0000 -0.5621123516
O   O5        1.0  0.89900  0.38340  0.89070  1.0000 -0.5298021042
O   O6        1.0  0.38340  0.89900  0.60930  1.0000 -0.5298021042
O   O7        1.0  0.10100  0.61660  0.10930  1.0000 -0.5248406732
O   O8        1.0  0.61660  0.10100  0.39070  1.0000 -0.5298021042
O   O9        1.0  0.12540  0.22360  0.13914  1.0000 -0.5298021042
O   O10       1.0  0.22360  0.12540  0.36086  1.0000 -0.5298021042
O   O11       1.0  0.87460  0.77640  0.86086  1.0000 -0.5298021042
O   O12       1.0  0.77640  0.87460  0.63914  1.0000 -0.5298021042
O   O13       1.0  0.04230  0.26410  0.25296  1.0000 -0.5393271847
O   O14       1.0  0.26410  0.04230  0.24704  1.0000 -0.5393271847
O   O15       1.0  0.95770  0.73590  0.74704  1.0000 -0.5393271847
O   O16       1.0  0.73590  0.95770  0.75296  1.0000 -0.5393271847
O   O17       1.0  0.51150  0.42790  0.14645  1.0000 -0.5393271847
O   O18       1.0  0.42790  0.51150  0.35355  1.0000 -0.5393271847
O   O19       1.0  0.48850  0.57210  0.85355  1.0000 -0.5393271847
O   O20       1.0  0.57210  0.48850  0.64645  1.0000 -0.5393271847
O   O21       1.0  0.60920  0.36080  0.25664  1.0000 -0.5393271847
O   O22       1.0  0.36080  0.60920  0.24336  1.0000 -0.5393271847
O   O23       1.0  0.39080  0.63920  0.74336  1.0000 -0.5393271847
O   O24       1.0  0.63920  0.39080  0.75664  1.0000 -0.5393271847
O   O25       1.0  0.68030  0.68030  0.75000  1.0000 -0.9343787634
O   O26       1.0  0.31970  0.31970  0.25000  1.0000 -0.9343787634
