# DDEC6 charges by PACMAN v1.1 (https://github.com/mtap-research/PACMAN-charge/)
data_2012[Eu][nan]3[FSR]3
_chemical_formula_sum              "Eu8 H48 C56 N16 O60"
_cell_length_a       10.2289
_cell_length_b       11.2526
_cell_length_c       23.278
_cell_angle_alpha    90
_cell_angle_beta     108.893
_cell_angle_gamma    90

_symmetry_space_group_name_H-M    "P 1"
_symmetry_Int_Tables_number       1

loop_
  _symmetry_equiv_pos_as_xyz
  'x, y, z'

loop_
  _atom_site_type_symbol
  _atom_site_label
  _atom_site_symmetry_multiplicity
  _atom_site_fract_x
  _atom_site_fract_y
  _atom_site_fract_z
  _atom_site_occupancy
  _atom_site_charge
Eu  Eu1       1.0  0.19558  0.58689  0.43604  1.0000 2.1788077955
Eu  Eu2       1.0  0.80442  0.08689  0.06396  1.0000 2.1788077955
Eu  Eu3       1.0  0.80442  0.41311  0.56396  1.0000 2.1788077955
Eu  Eu4       1.0  0.19558  0.91311  0.93604  1.0000 2.1788077955
Eu  Eu5       1.0  0.38489  0.31310  0.27443  1.0000 1.9554466013
Eu  Eu6       1.0  0.61511  0.81310  0.22557  1.0000 1.9537287955
Eu  Eu7       1.0  0.61511  0.68690  0.72557  1.0000 1.9554466013
Eu  Eu8       1.0  0.38489  0.18690  0.77443  1.0000 1.9554466013
H   H1        1.0  0.41660  0.41900  0.50160  1.0000 0.3616136987
H   H2        1.0  0.58340  0.91900  0.99840  1.0000 0.3616136987
H   H3        1.0  0.58340  0.58100  0.49840  1.0000 0.3616136987
H   H4        1.0  0.41660  0.08100  0.00160  1.0000 0.3616136987
H   H5        1.0  0.39600  0.39400  0.44100  1.0000 0.3883933578
H   H6        1.0  0.60400  0.89400  0.05900  1.0000 0.3883933578
H   H7        1.0  0.60400  0.60600  0.55900  1.0000 0.3883933578
H   H8        1.0  0.39600  0.10600  0.94100  1.0000 0.3883933578
H   H9        1.0  0.41800  0.60200  0.37900  1.0000 0.3807637845
H   H10       1.0  0.58200  0.10200  0.12100  1.0000 0.3807637845
H   H11       1.0  0.58200  0.39800  0.62100  1.0000 0.3807637845
H   H12       1.0  0.41800  0.89800  0.87900  1.0000 0.3807637845
H   H13       1.0  0.42400  0.71200  0.40600  1.0000 0.3717908416
H   H14       1.0  0.57600  0.21200  0.09400  1.0000 0.3717908416
H   H15       1.0  0.57600  0.28800  0.59400  1.0000 0.3717908416
H   H16       1.0  0.42400  0.78800  0.90600  1.0000 0.3717908416
H   H17       1.0  0.00380  0.52900  0.16500  1.0000 0.3207956258
H   H18       1.0  0.99620  0.02900  0.33500  1.0000 0.3207956258
H   H19       1.0  0.99620  0.47100  0.83500  1.0000 0.3207956258
H   H20       1.0  0.00380  0.97100  0.66500  1.0000 0.3207956258
H   H21       1.0  0.95480  0.38110  0.33780  1.0000 0.3108011264
H   H22       1.0  0.04520  0.88110  0.16220  1.0000 0.3108011264
H   H23       1.0  0.04520  0.61890  0.66220  1.0000 0.3108011264
H   H24       1.0  0.95480  0.11890  0.83780  1.0000 0.3108011264
H   H25       1.0  0.80240  0.58830  0.07600  1.0000 0.1546990876
H   H26       1.0  0.19760  0.08830  0.42400  1.0000 0.1546990876
H   H27       1.0  0.19760  0.41170  0.92400  1.0000 0.1546990876
H   H28       1.0  0.80240  0.91170  0.57600  1.0000 0.1546990876
H   H29       1.0  0.67870  0.64870  0.09060  1.0000 0.1730602611
H   H30       1.0  0.32130  0.14870  0.40940  1.0000 0.1730602611
H   H31       1.0  0.32130  0.35130  0.90940  1.0000 0.1730602611
H   H32       1.0  0.67870  0.85130  0.59060  1.0000 0.1730602611
H   H33       1.0  0.80100  0.72630  0.08470  1.0000 0.1730602611
H   H34       1.0  0.19900  0.22630  0.41530  1.0000 0.1730602611
H   H35       1.0  0.19900  0.27370  0.91530  1.0000 0.1730602611
H   H36       1.0  0.80100  0.77370  0.58470  1.0000 0.1730602611
H   H37       1.0  0.73000  0.42010  0.21110  1.0000 0.1730602611
H   H38       1.0  0.27000  0.92010  0.28890  1.0000 0.1730602611
H   H39       1.0  0.27000  0.57990  0.78890  1.0000 0.1730602611
H   H40       1.0  0.73000  0.07990  0.71110  1.0000 0.1730602611
H   H41       1.0  0.84510  0.32210  0.22870  1.0000 0.1600586589
H   H42       1.0  0.15490  0.82210  0.27130  1.0000 0.1600586589
H   H43       1.0  0.15490  0.67790  0.77130  1.0000 0.1600586589
H   H44       1.0  0.84510  0.17790  0.72870  1.0000 0.1600586589
H   H45       1.0  0.68880  0.28550  0.20840  1.0000 0.1730602611
H   H46       1.0  0.31120  0.78550  0.29160  1.0000 0.1730602611
H   H47       1.0  0.31120  0.71450  0.79160  1.0000 0.1730602611
H   H48       1.0  0.68880  0.21450  0.70840  1.0000 0.1730602611
C   C1        1.0  0.12440  0.49440  0.28380  1.0000 0.6103308205
C   C2        1.0  0.87560  0.99440  0.21620  1.0000 0.6103308205
C   C3        1.0  0.87560  0.50560  0.71620  1.0000 0.6103308205
C   C4        1.0  0.12440  0.00560  0.78380  1.0000 0.6103308205
C   C5        1.0  0.00560  0.57180  0.24840  1.0000 0.0031365611
C   C6        1.0  0.99440  0.07180  0.25160  1.0000 0.0031365611
C   C7        1.0  0.99440  0.42820  0.75160  1.0000 0.0031365611
C   C8        1.0  0.00560  0.92820  0.74840  1.0000 0.0031365611
C   C9        1.0  0.91330  0.64580  0.26210  1.0000 -0.0182283931
C   C10       1.0  0.08670  0.14580  0.23790  1.0000 -0.0182283931
C   C11       1.0  0.08670  0.35420  0.73790  1.0000 -0.0182283931
C   C12       1.0  0.91330  0.85420  0.76210  1.0000 -0.0182283931
C   C13       1.0  0.89990  0.68610  0.32060  1.0000 0.6248378162
C   C14       1.0  0.10010  0.18610  0.17940  1.0000 0.6248378162
C   C15       1.0  0.10010  0.31390  0.67940  1.0000 0.6248378162
C   C16       1.0  0.89990  0.81390  0.82060  1.0000 0.6248378162
C   C17       1.0  0.85080  0.63640  0.16430  1.0000 0.4431127798
C   C18       1.0  0.14920  0.13640  0.33570  1.0000 0.4431127798
C   C19       1.0  0.14920  0.36360  0.83570  1.0000 0.4431127798
C   C20       1.0  0.85080  0.86360  0.66430  1.0000 0.4431127798
C   C21       1.0  0.77660  0.65130  0.09800  1.0000 -0.497246861
C   C22       1.0  0.22340  0.15130  0.40200  1.0000 -0.497246861
C   C23       1.0  0.22340  0.34870  0.90200  1.0000 -0.497246861
C   C24       1.0  0.77660  0.84870  0.59800  1.0000 -0.497246861
C   C25       1.0  0.60633  0.34820  0.41253  1.0000 0.6337942336
C   C26       1.0  0.39367  0.84820  0.08747  1.0000 0.6337942336
C   C27       1.0  0.39367  0.65180  0.58747  1.0000 0.6337942336
C   C28       1.0  0.60633  0.15180  0.91253  1.0000 0.6337942336
C   C29       1.0  0.70350  0.35200  0.37690  1.0000 0.0109907668
C   C30       1.0  0.29650  0.85200  0.12310  1.0000 0.0109907668
C   C31       1.0  0.29650  0.64800  0.62310  1.0000 0.0109907668
C   C32       1.0  0.70350  0.14800  0.87690  1.0000 0.0109907668
C   C33       1.0  0.84360  0.37100  0.39400  1.0000 0.0109907668
C   C34       1.0  0.15640  0.87100  0.10600  1.0000 0.0109907668
C   C35       1.0  0.15640  0.62900  0.60600  1.0000 0.0109907668
C   C36       1.0  0.84360  0.12900  0.89400  1.0000 0.0109907668
C   C37       1.0  0.95920  0.38540  0.45190  1.0000 0.6337942336
C   C38       1.0  0.04080  0.88540  0.04810  1.0000 0.6337942336
C   C39       1.0  0.04080  0.61460  0.54810  1.0000 0.6337942336
C   C40       1.0  0.95920  0.11460  0.95190  1.0000 0.6337942336
C   C41       1.0  0.75790  0.34960  0.29450  1.0000 0.4431127798
C   C42       1.0  0.24210  0.84960  0.20550  1.0000 0.4431127798
C   C43       1.0  0.24210  0.65040  0.70550  1.0000 0.4431127798
C   C44       1.0  0.75790  0.15040  0.79450  1.0000 0.4431127798
C   C45       1.0  0.75520  0.34380  0.22990  1.0000 -0.5256374673
C   C46       1.0  0.24480  0.84380  0.27010  1.0000 -0.5256374673
C   C47       1.0  0.24480  0.65620  0.77010  1.0000 -0.5249757763
C   C48       1.0  0.75520  0.15620  0.72990  1.0000 -0.5256374673
C   C49       1.0  0.47800  0.54530  0.21490  1.0000 0.4863311653
C   C50       1.0  0.52200  0.04530  0.28510  1.0000 0.4863311653
C   C51       1.0  0.52200  0.45470  0.78510  1.0000 0.4863311653
C   C52       1.0  0.47800  0.95470  0.71490  1.0000 0.4863311653
C   C53       1.0  0.48240  0.59110  0.27820  1.0000 0.4818899338
C   C54       1.0  0.51760  0.09110  0.22180  1.0000 0.4818899338
C   C55       1.0  0.51760  0.40890  0.72180  1.0000 0.4818899338
C   C56       1.0  0.48240  0.90890  0.77820  1.0000 0.4818899338
N   N1        1.0  0.81560  0.68490  0.20900  1.0000 -0.4621614512
N   N2        1.0  0.18440  0.18490  0.29100  1.0000 -0.4621614512
N   N3        1.0  0.18440  0.31510  0.79100  1.0000 -0.4621614512
N   N4        1.0  0.81560  0.81510  0.70900  1.0000 -0.4621614512
N   N5        1.0  0.96402  0.56830  0.18642  1.0000 -0.2530599233
N   N6        1.0  0.03598  0.06830  0.31358  1.0000 -0.2530599233
N   N7        1.0  0.03598  0.43170  0.81358  1.0000 -0.2530599233
N   N8        1.0  0.96402  0.93170  0.68642  1.0000 -0.2530599233
N   N9        1.0  0.65063  0.33920  0.31443  1.0000 -0.4691994782
N   N10       1.0  0.34937  0.83920  0.18557  1.0000 -0.4691994782
N   N11       1.0  0.34937  0.66080  0.68557  1.0000 -0.4691994782
N   N12       1.0  0.65063  0.16080  0.81443  1.0000 -0.4691994782
N   N13       1.0  0.87407  0.37020  0.34087  1.0000 -0.2596918936
N   N14       1.0  0.12593  0.87020  0.15913  1.0000 -0.2596918936
N   N15       1.0  0.12593  0.62980  0.65913  1.0000 -0.2596918936
N   N16       1.0  0.87407  0.12980  0.84087  1.0000 -0.2596918936
O   O1        1.0  0.15423  0.48590  0.34053  1.0000 -0.6777408715
O   O2        1.0  0.84577  0.98590  0.15947  1.0000 -0.6777408715
O   O3        1.0  0.84577  0.51410  0.65947  1.0000 -0.6777408715
O   O4        1.0  0.15423  0.01410  0.84053  1.0000 -0.6777408715
O   O5        1.0  0.18027  0.43850  0.25177  1.0000 -0.6110412176
O   O6        1.0  0.81973  0.93850  0.24823  1.0000 -0.6110412176
O   O7        1.0  0.81973  0.56150  0.74823  1.0000 -0.6110412176
O   O8        1.0  0.18027  0.06150  0.75177  1.0000 -0.6110412176
O   O9        1.0  0.99101  0.66150  0.36931  1.0000 -0.6286562081
O   O10       1.0  0.00899  0.16150  0.13069  1.0000 -0.6286562081
O   O11       1.0  0.00899  0.33850  0.63069  1.0000 -0.6286562081
O   O12       1.0  0.99101  0.83850  0.86931  1.0000 -0.6286562081
O   O13       1.0  0.79409  0.74500  0.31779  1.0000 -0.5497482415
O   O14       1.0  0.20591  0.24500  0.18221  1.0000 -0.5497482415
O   O15       1.0  0.20591  0.25500  0.68221  1.0000 -0.5497482415
O   O16       1.0  0.79409  0.75500  0.81779  1.0000 -0.5497482415
O   O17       1.0  0.48121  0.32340  0.38361  1.0000 -0.6110412176
O   O18       1.0  0.51879  0.82340  0.11639  1.0000 -0.6110412176
O   O19       1.0  0.51879  0.67660  0.61639  1.0000 -0.6110412176
O   O20       1.0  0.48121  0.17660  0.88361  1.0000 -0.6110412176
O   O21       1.0  0.64746  0.37140  0.46786  1.0000 -0.6444616314
O   O22       1.0  0.35254  0.87140  0.03214  1.0000 -0.6457335349
O   O23       1.0  0.35254  0.62860  0.53214  1.0000 -0.6457335349
O   O24       1.0  0.64746  0.12860  0.96786  1.0000 -0.6457335349
O   O25       1.0  0.94111  0.36460  0.50131  1.0000 -0.6043484803
O   O26       1.0  0.05889  0.86460  0.99869  1.0000 -0.6043484803
O   O27       1.0  0.05889  0.63540  0.49869  1.0000 -0.6043484803
O   O28       1.0  0.94111  0.13540  0.00131  1.0000 -0.6043484803
O   O29       1.0  0.07316  0.41390  0.44626  1.0000 -0.6618864533
O   O30       1.0  0.92684  0.91390  0.05374  1.0000 -0.6618864533
O   O31       1.0  0.92684  0.58610  0.55374  1.0000 -0.6618864533
O   O32       1.0  0.07316  0.08610  0.94626  1.0000 -0.6618864533
O   O33       1.0  0.52426  0.61390  0.18386  1.0000 -0.5595010813
O   O34       1.0  0.47574  0.11390  0.31614  1.0000 -0.5595010813
O   O35       1.0  0.47574  0.38610  0.81614  1.0000 -0.5595010813
O   O36       1.0  0.52426  0.88610  0.68386  1.0000 -0.5595010813
O   O37       1.0  0.42841  0.44350  0.19951  1.0000 -0.5497482415
O   O38       1.0  0.57159  0.94350  0.30049  1.0000 -0.5497482415
O   O39       1.0  0.57159  0.55650  0.80049  1.0000 -0.5497482415
O   O40       1.0  0.42841  0.05650  0.69951  1.0000 -0.5497482415
O   O41       1.0  0.52295  0.69580  0.29145  1.0000 -0.5595010813
O   O42       1.0  0.47705  0.19580  0.20855  1.0000 -0.5595010813
O   O43       1.0  0.47705  0.30420  0.70855  1.0000 -0.5595010813
O   O44       1.0  0.52295  0.80420  0.79145  1.0000 -0.5595010813
O   O45       1.0  0.44360  0.52110  0.31100  1.0000 -0.5595010813
O   O46       1.0  0.55640  0.02110  0.18900  1.0000 -0.5595010813
O   O47       1.0  0.55640  0.47890  0.68900  1.0000 -0.5595010813
O   O48       1.0  0.44360  0.97890  0.81100  1.0000 -0.5595010813
O   O49       1.0  0.35928  0.42270  0.46608  1.0000 -0.7599187936
O   O50       1.0  0.64072  0.92270  0.03392  1.0000 -0.7599187936
O   O51       1.0  0.64072  0.57730  0.53392  1.0000 -0.7599187936
O   O52       1.0  0.35928  0.07730  0.96608  1.0000 -0.7599187936
O   O53       1.0  0.38520  0.64420  0.40140  1.0000 -0.7599187936
O   O54       1.0  0.61480  0.14420  0.09860  1.0000 -0.7599187936
O   O55       1.0  0.61480  0.35580  0.59860  1.0000 -0.7599187936
O   O56       1.0  0.38520  0.85580  0.90140  1.0000 -0.7599187936
O   O57       1.0  0.21090  0.80580  0.44050  1.0000 -0.4311063882
O   O58       1.0  0.78910  0.30580  0.05950  1.0000 -0.4374469366
O   O59       1.0  0.78910  0.19420  0.55950  1.0000 -0.4374469366
O   O60       1.0  0.21090  0.69420  0.94050  1.0000 -0.4311063882
