# DDEC6 charges by PACMAN v1.1 (https://github.com/mtap-research/PACMAN-charge/)
data_2012[Co][nan]3[FSR]1
_chemical_formula_sum              "Co4 H32 C52 N4 O20"
_cell_length_a       12.5096
_cell_length_b       12.5096
_cell_length_c       13.6923
_cell_angle_alpha    62.3004
_cell_angle_beta     117.7
_cell_angle_gamma    93.2844

_symmetry_space_group_name_H-M    "P 1"
_symmetry_Int_Tables_number       1

loop_
  _symmetry_equiv_pos_as_xyz
  'x, y, z'

loop_
  _atom_site_type_symbol
  _atom_site_label
  _atom_site_symmetry_multiplicity
  _atom_site_fract_x
  _atom_site_fract_y
  _atom_site_fract_z
  _atom_site_occupancy
  _atom_site_charge
Co  Co1       1.0  0.30266  0.30266  0.75000  1.0000 1.0371633679
Co  Co2       1.0  0.69734  0.69734  0.25000  1.0000 1.0371633679
Co  Co3       1.0  0.50000  0.00000  0.00000  1.0000 1.0489324839
Co  Co4       1.0  0.00000  0.50000  0.50000  1.0000 1.0489324839
H   H1        1.0  0.73240  0.15020  0.83030  1.0000 0.1093473308
H   H2        1.0  0.15020  0.73240  0.66970  1.0000 0.1093473308
H   H3        1.0  0.26760  0.84980  0.16970  1.0000 0.1093473308
H   H4        1.0  0.84980  0.26760  0.33030  1.0000 0.1093473308
H   H5        1.0  0.84080  0.25860  0.73090  1.0000 0.1093473308
H   H6        1.0  0.25860  0.84080  0.76910  1.0000 0.1093473308
H   H7        1.0  0.15920  0.74140  0.26910  1.0000 0.1093473308
H   H8        1.0  0.74140  0.15920  0.23090  1.0000 0.1093473308
H   H9        1.0  0.52330  0.44930  0.40750  1.0000 0.1280133785
H   H10       1.0  0.44930  0.52330  0.09250  1.0000 0.1280133785
H   H11       1.0  0.47670  0.55070  0.59250  1.0000 0.1280133785
H   H12       1.0  0.55070  0.47670  0.90750  1.0000 0.1280133785
H   H13       1.0  0.41550  0.34430  0.50850  1.0000 0.1223258213
H   H14       1.0  0.34430  0.41550  0.99150  1.0000 0.1223258213
H   H15       1.0  0.58450  0.65570  0.49150  1.0000 0.1223258213
H   H16       1.0  0.65570  0.58450  0.00850  1.0000 0.1223258213
H   H17       1.0  0.25280  0.19140  0.99680  1.0000 0.1508352258
H   H18       1.0  0.19140  0.25280  0.50320  1.0000 0.1508352258
H   H19       1.0  0.74720  0.80860  0.00320  1.0000 0.1508352258
H   H20       1.0  0.80860  0.74720  0.49680  1.0000 0.1508352258
H   H21       1.0  0.09890  0.13890  0.04700  1.0000 0.1368842819
H   H22       1.0  0.13890  0.09890  0.45300  1.0000 0.1368842819
H   H23       1.0  0.90110  0.86110  0.95300  1.0000 0.1368842819
H   H24       1.0  0.86110  0.90110  0.54700  1.0000 0.1368842819
H   H25       1.0  0.03770  0.90870  0.90760  1.0000 0.1368842819
H   H26       1.0  0.90870  0.03770  0.59240  1.0000 0.1368842819
H   H27       1.0  0.96230  0.09130  0.09240  1.0000 0.1368842819
H   H28       1.0  0.09130  0.96230  0.40760  1.0000 0.1368842819
H   H29       1.0  0.19310  0.96330  0.86130  1.0000 0.1368842819
H   H30       1.0  0.96330  0.19310  0.63870  1.0000 0.1368842819
H   H31       1.0  0.80690  0.03670  0.13870  1.0000 0.1368842819
H   H32       1.0  0.03670  0.80690  0.36130  1.0000 0.1368842819
C   C1        1.0  0.49167  0.17587  0.74940  1.0000 0.6004828126
C   C2        1.0  0.17587  0.49167  0.75060  1.0000 0.6004828126
C   C3        1.0  0.50833  0.82413  0.25060  1.0000 0.6004828126
C   C4        1.0  0.82413  0.50833  0.24940  1.0000 0.6004828126
C   C5        1.0  0.56187  0.23747  0.68050  1.0000 -0.011559404
C   C6        1.0  0.23747  0.56187  0.81950  1.0000 -0.011559404
C   C7        1.0  0.43813  0.76253  0.31950  1.0000 -0.011559404
C   C8        1.0  0.76253  0.43813  0.18050  1.0000 -0.011559404
C   C9        1.0  0.68990  0.21170  0.74560  1.0000 -0.117846563
C   C10       1.0  0.21170  0.68990  0.75440  1.0000 -0.117846563
C   C11       1.0  0.31010  0.78830  0.25440  1.0000 -0.117846563
C   C12       1.0  0.78830  0.31010  0.24560  1.0000 -0.117846563
C   C13       1.0  0.75500  0.27640  0.68570  1.0000 -0.1261279411
C   C14       1.0  0.27640  0.75500  0.81430  1.0000 -0.1261279411
C   C15       1.0  0.24500  0.72360  0.31430  1.0000 -0.1261279411
C   C16       1.0  0.72360  0.24500  0.18570  1.0000 -0.1261279411
C   C17       1.0  0.69330  0.36750  0.55910  1.0000 -0.0195024493
C   C18       1.0  0.36750  0.69330  0.94090  1.0000 -0.0195024493
C   C19       1.0  0.30670  0.63250  0.44090  1.0000 -0.0195024493
C   C20       1.0  0.63250  0.30670  0.05910  1.0000 -0.0195024493
C   C21       1.0  0.56590  0.39050  0.49330  1.0000 -0.1015663934
C   C22       1.0  0.39050  0.56590  0.00670  1.0000 -0.1015663934
C   C23       1.0  0.43410  0.60950  0.50670  1.0000 -0.1015663934
C   C24       1.0  0.60950  0.43410  0.99330  1.0000 -0.1015663934
C   C25       1.0  0.50130  0.32670  0.55390  1.0000 -0.1015663934
C   C26       1.0  0.32670  0.50130  0.94610  1.0000 -0.1015663934
C   C27       1.0  0.49870  0.67330  0.44610  1.0000 -0.1015663934
C   C28       1.0  0.67330  0.49870  0.05390  1.0000 -0.1015663934
C   C29       1.0  0.76186  0.44506  0.49380  1.0000 0.5940327556
C   C30       1.0  0.44506  0.76186  0.00620  1.0000 0.5940327556
C   C31       1.0  0.23814  0.55494  0.50620  1.0000 0.5940327556
C   C32       1.0  0.55494  0.23814  0.99380  1.0000 0.5940327556
C   C33       1.0  0.20800  0.13520  0.97780  1.0000 0.0042153606
C   C34       1.0  0.13520  0.20800  0.52220  1.0000 0.0042153606
C   C35       1.0  0.79200  0.86480  0.02220  1.0000 0.0042153606
C   C36       1.0  0.86480  0.79200  0.47780  1.0000 0.0042153606
C   C37       1.0  0.11630  0.10310  0.00840  1.0000 -0.1843784689
C   C38       1.0  0.10310  0.11630  0.49160  1.0000 -0.1843784689
C   C39       1.0  0.88370  0.89690  0.99160  1.0000 -0.1850965261
C   C40       1.0  0.89690  0.88370  0.50840  1.0000 -0.1843784689
C   C41       1.0  0.04910  0.01810  0.98270  1.0000 0.0861685113
C   C42       1.0  0.01810  0.04910  0.51730  1.0000 0.0861685113
C   C43       1.0  0.95090  0.98190  0.01730  1.0000 0.0861685113
C   C44       1.0  0.98190  0.95090  0.48270  1.0000 0.0861685113
C   C45       1.0  0.08000  0.96640  0.92600  1.0000 -0.2008320107
C   C46       1.0  0.96640  0.08000  0.57400  1.0000 -0.2008320107
C   C47       1.0  0.92000  0.03360  0.07400  1.0000 -0.2008320107
C   C48       1.0  0.03360  0.92000  0.42600  1.0000 -0.2008320107
C   C49       1.0  0.17210  0.99990  0.89720  1.0000 -0.0328425034
C   C50       1.0  0.99990  0.17210  0.60280  1.0000 -0.0328425034
C   C51       1.0  0.82790  0.00010  0.10280  1.0000 -0.0328425034
C   C52       1.0  0.00010  0.82790  0.39720  1.0000 -0.0328425034
N   N1        1.0  0.23277  0.08537  0.92030  1.0000 0.3256273181
N   N2        1.0  0.08537  0.23277  0.57970  1.0000 0.3256273181
N   N3        1.0  0.76723  0.91463  0.07970  1.0000 0.3256273181
N   N4        1.0  0.91463  0.76723  0.42030  1.0000 0.3256273181
O   O1        1.0  0.37796  0.22108  0.68970  1.0000 -0.5840512007
O   O2        1.0  0.22108  0.37796  0.81030  1.0000 -0.5840512007
O   O3        1.0  0.62204  0.77892  0.31030  1.0000 -0.5840512007
O   O4        1.0  0.77892  0.62204  0.18970  1.0000 -0.5840512007
O   O5        1.0  0.55037  0.08611  0.86010  1.0000 -0.5568826117
O   O6        1.0  0.08611  0.55037  0.63990  1.0000 -0.5568826117
O   O7        1.0  0.44963  0.91389  0.13990  1.0000 -0.5568826117
O   O8        1.0  0.91389  0.44963  0.36010  1.0000 -0.5545722931
O   O9        1.0  0.69632  0.52452  0.37880  1.0000 -0.5568826117
O   O10       1.0  0.52452  0.69632  0.12120  1.0000 -0.5568826117
O   O11       1.0  0.30368  0.47548  0.62120  1.0000 -0.5568826117
O   O12       1.0  0.47548  0.30368  0.87880  1.0000 -0.5568826117
O   O13       1.0  0.87759  0.42449  0.56050  1.0000 -0.5668846756
O   O14       1.0  0.42449  0.87759  0.93950  1.0000 -0.5668846756
O   O15       1.0  0.12241  0.57551  0.43950  1.0000 -0.5668846756
O   O16       1.0  0.57551  0.12241  0.06050  1.0000 -0.5668846756
O   O17       1.0  0.31895  0.11863  0.88660  1.0000 -0.5235714554
O   O18       1.0  0.11863  0.31895  0.61340  1.0000 -0.5235714554
O   O19       1.0  0.68105  0.88137  0.11340  1.0000 -0.5235714554
O   O20       1.0  0.88137  0.68105  0.38660  1.0000 -0.5235714554
