# DDEC6 charges by PACMAN v1.1 (https://github.com/mtap-research/PACMAN-charge/)
data_2012[Pr][nan]3[FSR]1
_chemical_formula_sum              "Pr8 H56 C56 N16 O60"
_cell_length_a       10.3779
_cell_length_b       11.3829
_cell_length_c       23.4323
_cell_angle_alpha    90
_cell_angle_beta     108.654
_cell_angle_gamma    90

_symmetry_space_group_name_H-M    "P 1"
_symmetry_Int_Tables_number       1

loop_
  _symmetry_equiv_pos_as_xyz
  'x, y, z'

loop_
  _atom_site_type_symbol
  _atom_site_label
  _atom_site_symmetry_multiplicity
  _atom_site_fract_x
  _atom_site_fract_y
  _atom_site_fract_z
  _atom_site_occupancy
  _atom_site_charge
Pr  Pr1       1.0  0.19755  0.91876  0.93531  1.0000 2.1959383402
Pr  Pr2       1.0  0.80245  0.41876  0.56469  1.0000 2.1918175135
Pr  Pr3       1.0  0.80245  0.08124  0.06469  1.0000 2.1959383402
Pr  Pr4       1.0  0.19755  0.58124  0.43531  1.0000 2.1959383402
Pr  Pr5       1.0  0.61682  0.69150  0.72533  1.0000 1.9656965647
Pr  Pr6       1.0  0.38318  0.19150  0.77467  1.0000 1.9656965647
Pr  Pr7       1.0  0.38318  0.30850  0.27467  1.0000 1.9656965647
Pr  Pr8       1.0  0.61682  0.80850  0.22533  1.0000 1.9630249653
H   H1        1.0  0.79130  0.77410  0.58700  1.0000 0.1790914226
H   H2        1.0  0.20870  0.27410  0.91300  1.0000 0.1790914226
H   H3        1.0  0.20870  0.22590  0.41300  1.0000 0.1790914226
H   H4        1.0  0.79130  0.72590  0.08700  1.0000 0.1790914226
H   H5        1.0  0.68390  0.86820  0.59060  1.0000 0.1721759216
H   H6        1.0  0.31610  0.36820  0.90940  1.0000 0.1721759216
H   H7        1.0  0.31610  0.13180  0.40940  1.0000 0.1721759216
H   H8        1.0  0.68390  0.63180  0.09060  1.0000 0.1721759216
H   H9        1.0  0.81480  0.90710  0.57600  1.0000 0.1340965804
H   H10       1.0  0.18520  0.40710  0.92400  1.0000 0.1340965804
H   H11       1.0  0.18520  0.09290  0.42400  1.0000 0.1340965804
H   H12       1.0  0.81480  0.59290  0.07600  1.0000 0.1340965804
H   H13       1.0  0.15320  0.82410  0.26900  1.0000 0.1531515594
H   H14       1.0  0.84680  0.32410  0.23100  1.0000 0.1531515594
H   H15       1.0  0.84680  0.17590  0.73100  1.0000 0.1531515594
H   H16       1.0  0.15320  0.67590  0.76900  1.0000 0.1531515594
H   H17       1.0  0.27690  0.91090  0.28850  1.0000 0.1721759216
H   H18       1.0  0.72310  0.41090  0.21150  1.0000 0.1721759216
H   H19       1.0  0.72310  0.08910  0.71150  1.0000 0.1721759216
H   H20       1.0  0.27690  0.58910  0.78850  1.0000 0.1721759216
H   H21       1.0  0.30220  0.77520  0.28790  1.0000 0.1721759216
H   H22       1.0  0.69780  0.27520  0.21210  1.0000 0.1721759216
H   H23       1.0  0.69780  0.22480  0.71210  1.0000 0.1721759216
H   H24       1.0  0.30220  0.72480  0.78790  1.0000 0.1721759216
H   H25       1.0  0.00010  0.97700  0.66390  1.0000 0.3075978819
H   H26       1.0  0.99990  0.47700  0.83610  1.0000 0.3075978819
H   H27       1.0  0.99990  0.02300  0.33610  1.0000 0.3075978819
H   H28       1.0  0.00010  0.52300  0.16390  1.0000 0.3075978819
H   H29       1.0  0.04810  0.87600  0.16170  1.0000 0.3075978819
H   H30       1.0  0.95190  0.37600  0.33830  1.0000 0.3075978819
H   H31       1.0  0.95190  0.12400  0.83830  1.0000 0.3075978819
H   H32       1.0  0.04810  0.62400  0.66170  1.0000 0.3075978819
H   H33       1.0  0.40550  0.11400  0.94550  1.0000 0.3740030144
H   H34       1.0  0.59450  0.61400  0.55450  1.0000 0.3763151598
H   H35       1.0  0.59450  0.88600  0.05450  1.0000 0.3763151598
H   H36       1.0  0.40550  0.38600  0.44550  1.0000 0.3763151598
H   H37       1.0  0.40670  0.10100  0.00370  1.0000 0.3482810694
H   H38       1.0  0.59330  0.60100  0.49630  1.0000 0.3482810694
H   H39       1.0  0.59330  0.89900  0.99630  1.0000 0.3482810694
H   H40       1.0  0.40670  0.39900  0.50370  1.0000 0.3482810694
H   H41       1.0  0.43750  0.79840  0.90950  1.0000 0.3482810694
H   H42       1.0  0.56250  0.29840  0.59050  1.0000 0.3482810694
H   H43       1.0  0.56250  0.20160  0.09050  1.0000 0.3482810694
H   H44       1.0  0.43750  0.70160  0.40950  1.0000 0.3482810694
H   H45       1.0  0.41820  0.89800  0.87520  1.0000 0.3763151598
H   H46       1.0  0.58180  0.39800  0.62480  1.0000 0.3763151598
H   H47       1.0  0.58180  0.10200  0.12480  1.0000 0.3763151598
H   H48       1.0  0.41820  0.60200  0.37520  1.0000 0.3763151598
H   H49       1.0  0.28980  0.66220  0.95280  1.0000 0.3636073981
H   H50       1.0  0.71020  0.16220  0.54720  1.0000 0.3636073981
H   H51       1.0  0.71020  0.33780  0.04720  1.0000 0.3636073981
H   H52       1.0  0.28980  0.83780  0.45280  1.0000 0.3636073981
H   H53       1.0  0.14760  0.65370  0.92760  1.0000 0.3763151598
H   H54       1.0  0.85240  0.15370  0.57240  1.0000 0.3763151598
H   H55       1.0  0.85240  0.34630  0.07240  1.0000 0.3763151598
H   H56       1.0  0.14760  0.84630  0.42760  1.0000 0.3763151598
C   C1        1.0  0.90240  0.82040  0.81930  1.0000 0.6233483765
C   C2        1.0  0.09760  0.32040  0.68070  1.0000 0.6233483765
C   C3        1.0  0.09760  0.17960  0.18070  1.0000 0.6233483765
C   C4        1.0  0.90240  0.67960  0.31930  1.0000 0.6233483765
C   C5        1.0  0.91402  0.86000  0.76132  1.0000 -0.0208536393
C   C6        1.0  0.08598  0.36000  0.73868  1.0000 -0.0208536393
C   C7        1.0  0.08598  0.14000  0.23868  1.0000 -0.0208536393
C   C8        1.0  0.91402  0.64000  0.26132  1.0000 -0.0208536393
C   C9        1.0  0.00467  0.93460  0.74707  1.0000 -0.0003242947
C   C10       1.0  0.99533  0.43460  0.75293  1.0000 0.0005388427
C   C11       1.0  0.99533  0.06540  0.25293  1.0000 0.0005388427
C   C12       1.0  0.00467  0.56540  0.24707  1.0000 -0.0003242947
C   C13       1.0  0.12089  0.01130  0.78169  1.0000 0.6061849508
C   C14       1.0  0.87911  0.51130  0.71831  1.0000 0.6061849508
C   C15       1.0  0.87911  0.98870  0.21831  1.0000 0.6061849508
C   C16       1.0  0.12089  0.48870  0.28169  1.0000 0.6061849508
C   C17       1.0  0.85190  0.86860  0.66380  1.0000 0.4319565099
C   C18       1.0  0.14810  0.36860  0.83620  1.0000 0.4319565099
C   C19       1.0  0.14810  0.13140  0.33620  1.0000 0.4319565099
C   C20       1.0  0.85190  0.63140  0.16380  1.0000 0.4319565099
C   C21       1.0  0.77900  0.85310  0.59860  1.0000 -0.5304071989
C   C22       1.0  0.22100  0.35310  0.90140  1.0000 -0.5304071989
C   C23       1.0  0.22100  0.14690  0.40140  1.0000 -0.5304071989
C   C24       1.0  0.77900  0.64690  0.09860  1.0000 -0.5304071989
C   C25       1.0  0.39198  0.84830  0.08718  1.0000 0.6355361853
C   C26       1.0  0.60802  0.34830  0.41282  1.0000 0.6355361853
C   C27       1.0  0.60802  0.15170  0.91282  1.0000 0.6355361853
C   C28       1.0  0.39198  0.65170  0.58718  1.0000 0.6355361853
C   C29       1.0  0.29556  0.85130  0.12276  1.0000 0.0135297168
C   C30       1.0  0.70444  0.35130  0.37724  1.0000 0.0135297168
C   C31       1.0  0.70444  0.14870  0.87724  1.0000 0.0135297168
C   C32       1.0  0.29556  0.64870  0.62276  1.0000 0.0135297168
C   C33       1.0  0.15747  0.86940  0.10557  1.0000 -0.0059938705
C   C34       1.0  0.84253  0.36940  0.39443  1.0000 -0.0059938705
C   C35       1.0  0.84253  0.13060  0.89443  1.0000 -0.0059938705
C   C36       1.0  0.15747  0.63060  0.60557  1.0000 -0.0059938705
C   C37       1.0  0.04397  0.88280  0.04847  1.0000 0.6355361853
C   C38       1.0  0.95603  0.38280  0.45153  1.0000 0.6355361853
C   C39       1.0  0.95603  0.11720  0.95153  1.0000 0.6355361853
C   C40       1.0  0.04397  0.61720  0.54847  1.0000 0.6355361853
C   C41       1.0  0.24188  0.84650  0.20458  1.0000 0.4319565099
C   C42       1.0  0.75812  0.34650  0.29542  1.0000 0.4319565099
C   C43       1.0  0.75812  0.15350  0.79542  1.0000 0.4319565099
C   C44       1.0  0.24188  0.65350  0.70458  1.0000 0.4319565099
C   C45       1.0  0.24370  0.83840  0.26810  1.0000 -0.5524460759
C   C46       1.0  0.75630  0.33840  0.23190  1.0000 -0.5524460759
C   C47       1.0  0.75630  0.16160  0.73190  1.0000 -0.5524460759
C   C48       1.0  0.24370  0.66160  0.76810  1.0000 -0.5524460759
C   C49       1.0  0.47892  0.95910  0.71452  1.0000 0.4821499277
C   C50       1.0  0.52108  0.45910  0.78548  1.0000 0.4821499277
C   C51       1.0  0.52108  0.04090  0.28548  1.0000 0.4821499277
C   C52       1.0  0.47892  0.54090  0.21452  1.0000 0.4821499277
C   C53       1.0  0.48103  0.91300  0.77723  1.0000 0.4821499277
C   C54       1.0  0.51897  0.41300  0.72277  1.0000 0.4821499277
C   C55       1.0  0.51897  0.08700  0.22277  1.0000 0.4821499277
C   C56       1.0  0.48103  0.58700  0.27723  1.0000 0.4821499277
N   N1        1.0  0.81888  0.82040  0.70868  1.0000 -0.4612478997
N   N2        1.0  0.18112  0.32040  0.79132  1.0000 -0.4612478997
N   N3        1.0  0.18112  0.17960  0.29132  1.0000 -0.4612478997
N   N4        1.0  0.81888  0.67960  0.20868  1.0000 -0.4612478997
N   N5        1.0  0.96225  0.93740  0.68545  1.0000 -0.2651949312
N   N6        1.0  0.03775  0.43740  0.81455  1.0000 -0.2651949312
N   N7        1.0  0.03775  0.06260  0.31455  1.0000 -0.2651949312
N   N8        1.0  0.96225  0.56260  0.18545  1.0000 -0.2606077101
N   N9        1.0  0.34663  0.83710  0.18433  1.0000 -0.465188631
N   N10       1.0  0.65337  0.33710  0.31567  1.0000 -0.465188631
N   N11       1.0  0.65337  0.16290  0.81567  1.0000 -0.465188631
N   N12       1.0  0.34663  0.66290  0.68433  1.0000 -0.465188631
N   N13       1.0  0.12770  0.86650  0.15850  1.0000 -0.2606077101
N   N14       1.0  0.87230  0.36650  0.34150  1.0000 -0.2606077101
N   N15       1.0  0.87230  0.13350  0.84150  1.0000 -0.2606077101
N   N16       1.0  0.12770  0.63350  0.65850  1.0000 -0.2606077101
O   O1        1.0  0.79632  0.76510  0.81752  1.0000 -0.5705331351
O   O2        1.0  0.20368  0.26510  0.68248  1.0000 -0.5705331351
O   O3        1.0  0.20368  0.23490  0.18248  1.0000 -0.5705331351
O   O4        1.0  0.79632  0.73490  0.31752  1.0000 -0.5705331351
O   O5        1.0  0.99542  0.83990  0.86732  1.0000 -0.6832521047
O   O6        1.0  0.00458  0.33990  0.63268  1.0000 -0.6832521047
O   O7        1.0  0.00458  0.16010  0.13268  1.0000 -0.6832521047
O   O8        1.0  0.99542  0.66010  0.36732  1.0000 -0.6832521047
O   O9        1.0  0.15223  0.01990  0.83783  1.0000 -0.6724369984
O   O10       1.0  0.84777  0.51990  0.66217  1.0000 -0.6724369984
O   O11       1.0  0.84777  0.98010  0.16217  1.0000 -0.6724369984
O   O12       1.0  0.15223  0.48010  0.33783  1.0000 -0.6724369984
O   O13       1.0  0.17583  0.06580  0.74963  1.0000 -0.6157697823
O   O14       1.0  0.82417  0.56580  0.75037  1.0000 -0.6157697823
O   O15       1.0  0.82417  0.93420  0.25037  1.0000 -0.6157697823
O   O16       1.0  0.17583  0.43420  0.24963  1.0000 -0.6157697823
O   O17       1.0  0.51413  0.82040  0.11493  1.0000 -0.6071930911
O   O18       1.0  0.48587  0.32040  0.38507  1.0000 -0.6071930911
O   O19       1.0  0.48587  0.17960  0.88507  1.0000 -0.6071930911
O   O20       1.0  0.51413  0.67960  0.61493  1.0000 -0.6071930911
O   O21       1.0  0.35242  0.87580  0.03292  1.0000 -0.6887901213
O   O22       1.0  0.64758  0.37580  0.46708  1.0000 -0.6887901213
O   O23       1.0  0.64758  0.12420  0.96708  1.0000 -0.6887901213
O   O24       1.0  0.35242  0.62420  0.53292  1.0000 -0.6887901213
O   O25       1.0  0.06197  0.86620  0.99917  1.0000 -0.6404332008
O   O26       1.0  0.93803  0.36620  0.50083  1.0000 -0.6404332008
O   O27       1.0  0.93803  0.13380  0.00083  1.0000 -0.6404332008
O   O28       1.0  0.06197  0.63380  0.49917  1.0000 -0.6404332008
O   O29       1.0  0.93034  0.90810  0.05444  1.0000 -0.6724369984
O   O30       1.0  0.06966  0.40810  0.44556  1.0000 -0.6724369984
O   O31       1.0  0.06966  0.09190  0.94556  1.0000 -0.6724369984
O   O32       1.0  0.93034  0.59190  0.55444  1.0000 -0.6724369984
O   O33       1.0  0.52604  0.89180  0.68414  1.0000 -0.575583839
O   O34       1.0  0.47396  0.39180  0.81586  1.0000 -0.575583839
O   O35       1.0  0.47396  0.10820  0.31586  1.0000 -0.575583839
O   O36       1.0  0.52604  0.60820  0.18414  1.0000 -0.575583839
O   O37       1.0  0.43120  0.05960  0.69920  1.0000 -0.5524460759
O   O38       1.0  0.56880  0.55960  0.80080  1.0000 -0.5524460759
O   O39       1.0  0.56880  0.94040  0.30080  1.0000 -0.5524460759
O   O40       1.0  0.43120  0.44040  0.19920  1.0000 -0.5524460759
O   O41       1.0  0.52131  0.81040  0.79031  1.0000 -0.5598778363
O   O42       1.0  0.47869  0.31040  0.70969  1.0000 -0.5598778363
O   O43       1.0  0.47869  0.18960  0.20969  1.0000 -0.5598778363
O   O44       1.0  0.52131  0.68960  0.29031  1.0000 -0.5598778363
O   O45       1.0  0.44065  0.98210  0.80925  1.0000 -0.5705331351
O   O46       1.0  0.55935  0.48210  0.69075  1.0000 -0.5705331351
O   O47       1.0  0.55935  0.01790  0.19075  1.0000 -0.5705331351
O   O48       1.0  0.44065  0.51790  0.30925  1.0000 -0.5705331351
O   O49       1.0  0.36068  0.08650  0.96728  1.0000 -0.7678430017
O   O50       1.0  0.63932  0.58650  0.53272  1.0000 -0.7678430017
O   O51       1.0  0.63932  0.91350  0.03272  1.0000 -0.7678430017
O   O52       1.0  0.36068  0.41350  0.46728  1.0000 -0.7678430017
O   O53       1.0  0.39292  0.86260  0.90202  1.0000 -0.7900528398
O   O54       1.0  0.60708  0.36260  0.59798  1.0000 -0.7900528398
O   O55       1.0  0.60708  0.13740  0.09798  1.0000 -0.7900528398
O   O56       1.0  0.39292  0.63740  0.40202  1.0000 -0.7900528398
O   O57       1.0  0.21590  0.69850  0.93850  1.0000 -0.7610171225
O   O58       1.0  0.78410  0.19850  0.56150  1.0000 -0.7610171225
O   O59       1.0  0.78410  0.30150  0.06150  1.0000 -0.7610171225
O   O60       1.0  0.21590  0.80150  0.43850  1.0000 -0.7610171225
