# DDEC6 charges by PACMAN v1.1 (https://github.com/mtap-research/PACMAN-charge/)
data_2012[Zn][ins]3[FSR]1
_chemical_formula_sum              "Zn8 H80 C136 N16 O48"
_cell_length_a       8.1801
_cell_length_b       18.4522
_cell_length_c       32.313
_cell_angle_alpha    90
_cell_angle_beta     90
_cell_angle_gamma    90

_symmetry_space_group_name_H-M    "P 1"
_symmetry_Int_Tables_number       1

loop_
  _symmetry_equiv_pos_as_xyz
  'x, y, z'

loop_
  _atom_site_type_symbol
  _atom_site_label
  _atom_site_symmetry_multiplicity
  _atom_site_fract_x
  _atom_site_fract_y
  _atom_site_fract_z
  _atom_site_occupancy
  _atom_site_charge
Zn  Zn1       1.0  0.34476  0.11639  0.03958  1.0000 0.8814281787
Zn  Zn2       1.0  0.65524  0.61639  0.96042  1.0000 0.8814281787
Zn  Zn3       1.0  0.15524  0.11639  0.53958  1.0000 0.8814281787
Zn  Zn4       1.0  0.84476  0.61639  0.46042  1.0000 0.8814281787
Zn  Zn5       1.0  0.73028  0.89041  0.28922  1.0000 0.8814281787
Zn  Zn6       1.0  0.26972  0.39041  0.71078  1.0000 0.8814281787
Zn  Zn7       1.0  0.76972  0.89041  0.78922  1.0000 0.8814281787
Zn  Zn8       1.0  0.23028  0.39041  0.21078  1.0000 0.8814281787
H   H1        1.0  0.48110  0.01120  0.41780  1.0000 0.1386357522
H   H2        1.0  0.51890  0.51120  0.58220  1.0000 0.1386357522
H   H3        1.0  0.01890  0.01120  0.91780  1.0000 0.1386357522
H   H4        1.0  0.98110  0.51120  0.08220  1.0000 0.1386357522
H   H5        1.0  0.99780  0.04980  0.41220  1.0000 0.1311710275
H   H6        1.0  0.00220  0.54980  0.58780  1.0000 0.1311710275
H   H7        1.0  0.50220  0.04980  0.91220  1.0000 0.1311710275
H   H8        1.0  0.49780  0.54980  0.08780  1.0000 0.1311710275
H   H9        1.0  0.21340  0.92920  0.32480  1.0000 0.1501166731
H   H10       1.0  0.78660  0.42920  0.67520  1.0000 0.1501166731
H   H11       1.0  0.28660  0.92920  0.82480  1.0000 0.1501166731
H   H12       1.0  0.71340  0.42920  0.17520  1.0000 0.1501166731
H   H13       1.0  0.44010  0.30580  0.91040  1.0000 0.1311710275
H   H14       1.0  0.55990  0.80580  0.08960  1.0000 0.1311710275
H   H15       1.0  0.05990  0.30580  0.41040  1.0000 0.1311710275
H   H16       1.0  0.94010  0.80580  0.58960  1.0000 0.1311710275
H   H17       1.0  0.20680  0.36900  0.07100  1.0000 0.3342731263
H   H18       1.0  0.79320  0.86900  0.92900  1.0000 0.3342731263
H   H19       1.0  0.29320  0.36900  0.57100  1.0000 0.3342731263
H   H20       1.0  0.70680  0.86900  0.42900  1.0000 0.3342731263
H   H21       1.0  0.38230  0.13510  0.18180  1.0000 0.3221480216
H   H22       1.0  0.61770  0.63510  0.81820  1.0000 0.3221480216
H   H23       1.0  0.11770  0.13510  0.68180  1.0000 0.3221480216
H   H24       1.0  0.88230  0.63510  0.31820  1.0000 0.3221480216
H   H25       1.0  0.84130  0.07160  0.07280  1.0000 0.1501166731
H   H26       1.0  0.15870  0.57160  0.92720  1.0000 0.1501166731
H   H27       1.0  0.65870  0.07160  0.57280  1.0000 0.1501166731
H   H28       1.0  0.34130  0.57160  0.42720  1.0000 0.1501166731
H   H29       1.0  0.11850  0.26210  0.12060  1.0000 0.1386357522
H   H30       1.0  0.88150  0.76210  0.87940  1.0000 0.1386357522
H   H31       1.0  0.38150  0.26210  0.62060  1.0000 0.1386357522
H   H32       1.0  0.61850  0.76210  0.37940  1.0000 0.1386357522
H   H33       1.0  0.20590  0.18830  0.11100  1.0000 0.1386357522
H   H34       1.0  0.79410  0.68830  0.88900  1.0000 0.1386357522
H   H35       1.0  0.29410  0.18830  0.61100  1.0000 0.1386357522
H   H36       1.0  0.70590  0.68830  0.38900  1.0000 0.1386357522
H   H37       1.0  0.37640  0.31290  0.13920  1.0000 0.1386357522
H   H38       1.0  0.62360  0.81290  0.86080  1.0000 0.1386357522
H   H39       1.0  0.12360  0.31290  0.63920  1.0000 0.1386357522
H   H40       1.0  0.87640  0.81290  0.36080  1.0000 0.1386357522
H   H41       1.0  0.45820  0.23710  0.13160  1.0000 0.1311710275
H   H42       1.0  0.54180  0.73710  0.86840  1.0000 0.1311710275
H   H43       1.0  0.04180  0.23710  0.63160  1.0000 0.1311710275
H   H44       1.0  0.95820  0.73710  0.36840  1.0000 0.1311710275
H   H45       1.0  0.61300  0.00140  0.17490  1.0000 0.1386357522
H   H46       1.0  0.38700  0.50140  0.82510  1.0000 0.1386357522
H   H47       1.0  0.88700  0.00140  0.67490  1.0000 0.1386357522
H   H48       1.0  0.11300  0.50140  0.32510  1.0000 0.1386357522
H   H49       1.0  0.12680  0.30230  0.29200  1.0000 0.1386357522
H   H50       1.0  0.87320  0.80230  0.70800  1.0000 0.1386357522
H   H51       1.0  0.37320  0.30230  0.79200  1.0000 0.1386357522
H   H52       1.0  0.62680  0.80230  0.20800  1.0000 0.1386357522
H   H53       1.0  0.08100  0.94620  0.15420  1.0000 0.1501166731
H   H54       1.0  0.91900  0.44620  0.84580  1.0000 0.1501166731
H   H55       1.0  0.41900  0.94620  0.65420  1.0000 0.1501166731
H   H56       1.0  0.58100  0.44620  0.34580  1.0000 0.1501166731
H   H57       1.0  0.36380  0.41980  0.92950  1.0000 0.1187210859
H   H58       1.0  0.63620  0.91980  0.07050  1.0000 0.1187210859
H   H59       1.0  0.13620  0.41980  0.42950  1.0000 0.1187210859
H   H60       1.0  0.86380  0.91980  0.57050  1.0000 0.1187210859
H   H61       1.0  0.43860  0.21090  0.95780  1.0000 0.1386357522
H   H62       1.0  0.56140  0.71090  0.04220  1.0000 0.1386357522
H   H63       1.0  0.06140  0.21090  0.45780  1.0000 0.1386357522
H   H64       1.0  0.93860  0.71090  0.54220  1.0000 0.1386357522
H   H65       1.0  0.34380  0.07110  0.26450  1.0000 0.1501166731
H   H66       1.0  0.65620  0.57110  0.73550  1.0000 0.1501166731
H   H67       1.0  0.15620  0.07110  0.76450  1.0000 0.1501166731
H   H68       1.0  0.84380  0.57110  0.23550  1.0000 0.1501166731
H   H69       1.0  0.13430  0.21110  0.34210  1.0000 0.1187210859
H   H70       1.0  0.86570  0.71110  0.65790  1.0000 0.1187210859
H   H71       1.0  0.36570  0.21110  0.84210  1.0000 0.1187210859
H   H72       1.0  0.63430  0.71110  0.15790  1.0000 0.1187210859
H   H73       1.0  0.24590  0.44280  0.99370  1.0000 0.1501166731
H   H74       1.0  0.75410  0.94280  0.00630  1.0000 0.1501166731
H   H75       1.0  0.25410  0.44280  0.49370  1.0000 0.1501166731
H   H76       1.0  0.74590  0.94280  0.50630  1.0000 0.1501166731
H   H77       1.0  0.24640  0.10050  0.32860  1.0000 0.1112101044
H   H78       1.0  0.75360  0.60050  0.67140  1.0000 0.1112101044
H   H79       1.0  0.25360  0.10050  0.82860  1.0000 0.1112101044
H   H80       1.0  0.74640  0.60050  0.17140  1.0000 0.1112101044
C   C1        1.0  0.13800  0.02010  0.08425  1.0000 0.5618390904
C   C2        1.0  0.86200  0.52010  0.91575  1.0000 0.5618390904
C   C3        1.0  0.36200  0.02010  0.58425  1.0000 0.5618390904
C   C4        1.0  0.63800  0.52010  0.41575  1.0000 0.5618390904
C   C5        1.0  0.25360  0.07820  0.46055  1.0000 0.5498773422
C   C6        1.0  0.74640  0.57820  0.53945  1.0000 0.5498773422
C   C7        1.0  0.24640  0.07820  0.96055  1.0000 0.5498773422
C   C8        1.0  0.75360  0.57820  0.03945  1.0000 0.5498773422
C   C9        1.0  0.38100  0.00470  0.40474  1.0000 -0.1021758734
C   C10       1.0  0.61900  0.50470  0.59526  1.0000 -0.1021758734
C   C11       1.0  0.11900  0.00470  0.90474  1.0000 -0.1021758734
C   C12       1.0  0.88100  0.50470  0.09526  1.0000 -0.1021758734
C   C13       1.0  0.09120  0.02860  0.40104  1.0000 -0.1087388095
C   C14       1.0  0.90880  0.52860  0.59896  1.0000 -0.1087388095
C   C15       1.0  0.40880  0.02860  0.90104  1.0000 -0.1087388095
C   C16       1.0  0.59120  0.52860  0.09896  1.0000 -0.1087388095
C   C17       1.0  0.24180  0.03550  0.42109  1.0000 -0.0075034697
C   C18       1.0  0.75820  0.53550  0.57891  1.0000 -0.0075034697
C   C19       1.0  0.25820  0.03550  0.92109  1.0000 -0.0075034697
C   C20       1.0  0.74180  0.53550  0.07891  1.0000 -0.0075034697
C   C21       1.0  0.22130  0.95660  0.34883  1.0000 -0.1021758734
C   C22       1.0  0.77870  0.45660  0.65117  1.0000 -0.1021758734
C   C23       1.0  0.27870  0.95660  0.84883  1.0000 -0.1021758734
C   C24       1.0  0.72130  0.45660  0.15117  1.0000 -0.1021758734
C   C25       1.0  0.08270  0.98970  0.36443  1.0000 -0.019878655
C   C26       1.0  0.91730  0.48970  0.63557  1.0000 -0.019878655
C   C27       1.0  0.41730  0.98970  0.86443  1.0000 -0.019878655
C   C28       1.0  0.58270  0.48970  0.13557  1.0000 -0.019878655
C   C29       1.0  0.37150  0.96330  0.36819  1.0000 -0.019878655
C   C30       1.0  0.62850  0.46330  0.63181  1.0000 -0.019878655
C   C31       1.0  0.12850  0.96330  0.86819  1.0000 -0.019878655
C   C32       1.0  0.87150  0.46330  0.13181  1.0000 -0.019878655
C   C33       1.0  0.40310  0.31380  0.93723  1.0000 -0.0902688314
C   C34       1.0  0.59690  0.81380  0.06277  1.0000 -0.0902688314
C   C35       1.0  0.09690  0.31380  0.43723  1.0000 -0.0902688314
C   C36       1.0  0.90310  0.81380  0.56277  1.0000 -0.0902688314
C   C37       1.0  0.51700  0.92730  0.35024  1.0000 0.5618390904
C   C38       1.0  0.48300  0.42730  0.64976  1.0000 0.5618390904
C   C39       1.0  0.98300  0.92730  0.85024  1.0000 0.5618390904
C   C40       1.0  0.01700  0.42730  0.14976  1.0000 0.5618390904
C   C41       1.0  0.92720  0.98440  0.33978  1.0000 0.5618390904
C   C42       1.0  0.07280  0.48440  0.66022  1.0000 0.5618390904
C   C43       1.0  0.57280  0.98440  0.83978  1.0000 0.5618390904
C   C44       1.0  0.42720  0.48440  0.16022  1.0000 0.5618390904
C   C45       1.0  0.85070  0.92510  0.21065  1.0000 0.5498773422
C   C46       1.0  0.14930  0.42510  0.78935  1.0000 0.5498773422
C   C47       1.0  0.64930  0.92510  0.71065  1.0000 0.5498773422
C   C48       1.0  0.35070  0.42510  0.28935  1.0000 0.5498773422
C   C49       1.0  0.84750  0.96680  0.17038  1.0000 -0.0075034697
C   C50       1.0  0.15250  0.46680  0.82962  1.0000 -0.0075034697
C   C51       1.0  0.65250  0.96680  0.67038  1.0000 -0.0046172463
C   C52       1.0  0.34750  0.46680  0.32962  1.0000 -0.0046172463
C   C53       1.0  0.32100  0.23980  0.18348  1.0000 0.4087699432
C   C54       1.0  0.67900  0.73980  0.81652  1.0000 0.4087699432
C   C55       1.0  0.17900  0.23980  0.68348  1.0000 0.4087699432
C   C56       1.0  0.82100  0.73980  0.31652  1.0000 0.4087699432
C   C57       1.0  0.84270  0.04520  0.09731  1.0000 -0.1021758734
C   C58       1.0  0.15730  0.54520  0.90269  1.0000 -0.1021758734
C   C59       1.0  0.65730  0.04520  0.59731  1.0000 -0.1021758734
C   C60       1.0  0.34270  0.54520  0.40269  1.0000 -0.1021758734
C   C61       1.0  0.70190  0.04010  0.12101  1.0000 -0.019878655
C   C62       1.0  0.29810  0.54010  0.87899  1.0000 -0.019878655
C   C63       1.0  0.79810  0.04010  0.62101  1.0000 -0.019878655
C   C64       1.0  0.20190  0.54010  0.37899  1.0000 -0.019878655
C   C65       1.0  0.21970  0.24050  0.11101  1.0000 -0.2633144405
C   C66       1.0  0.78030  0.74050  0.88899  1.0000 -0.2633144405
C   C67       1.0  0.28030  0.24050  0.61101  1.0000 -0.2633144405
C   C68       1.0  0.71970  0.74050  0.38899  1.0000 -0.2633144405
C   C69       1.0  0.35840  0.26100  0.14041  1.0000 -0.2633144405
C   C70       1.0  0.64160  0.76100  0.85959  1.0000 -0.2633144405
C   C71       1.0  0.14160  0.26100  0.64041  1.0000 -0.2633144405
C   C72       1.0  0.85840  0.76100  0.35959  1.0000 -0.2633144405
C   C73       1.0  0.54740  0.07660  0.10627  1.0000 0.5725242163
C   C74       1.0  0.45260  0.57660  0.89373  1.0000 0.5725242163
C   C75       1.0  0.95260  0.07660  0.60627  1.0000 0.5725242163
C   C76       1.0  0.04740  0.57660  0.39373  1.0000 0.5725242163
C   C77       1.0  0.70540  0.00260  0.15811  1.0000 -0.1087388095
C   C78       1.0  0.29460  0.50260  0.84189  1.0000 -0.1087388095
C   C79       1.0  0.79460  0.00260  0.65811  1.0000 -0.1087388095
C   C80       1.0  0.20540  0.50260  0.34189  1.0000 -0.1087388095
C   C81       1.0  0.33660  0.27100  0.00403  1.0000 0.1311710275
C   C82       1.0  0.66340  0.77100  0.99597  1.0000 0.1311710275
C   C83       1.0  0.16340  0.27100  0.50403  1.0000 0.1311710275
C   C84       1.0  0.83660  0.77100  0.49597  1.0000 0.1311710275
C   C85       1.0  0.28340  0.34010  0.01501  1.0000 0.1564709081
C   C86       1.0  0.71660  0.84010  0.98499  1.0000 0.1564709081
C   C87       1.0  0.21660  0.34010  0.51501  1.0000 0.1564709081
C   C88       1.0  0.78340  0.84010  0.48499  1.0000 0.1564709081
C   C89       1.0  0.29870  0.17080  0.23959  1.0000 0.1564709081
C   C90       1.0  0.70130  0.67080  0.76041  1.0000 0.1564709081
C   C91       1.0  0.20130  0.17080  0.73959  1.0000 0.1564709081
C   C92       1.0  0.79870  0.67080  0.26041  1.0000 0.1564709081
C   C93       1.0  0.17160  0.25710  0.28634  1.0000 -0.1486283836
C   C94       1.0  0.82840  0.75710  0.71366  1.0000 -0.1486283836
C   C95       1.0  0.32840  0.25710  0.78634  1.0000 -0.1486283836
C   C96       1.0  0.67160  0.75710  0.21366  1.0000 -0.1486283836
C   C97       1.0  0.25470  0.26600  0.06765  1.0000 0.4087699432
C   C98       1.0  0.74530  0.76600  0.93235  1.0000 0.4087699432
C   C99       1.0  0.24530  0.26600  0.56765  1.0000 0.4087699432
C   C100      1.0  0.75470  0.76600  0.43235  1.0000 0.4087699432
C   C101      1.0  0.98670  0.97070  0.14617  1.0000 -0.1021758734
C   C102      1.0  0.01330  0.47070  0.85383  1.0000 -0.1021758734
C   C103      1.0  0.51330  0.97070  0.64617  1.0000 -0.1021758734
C   C104      1.0  0.48670  0.47070  0.35383  1.0000 -0.1021758734
C   C105      1.0  0.98570  0.01120  0.10979  1.0000 -0.0075034697
C   C106      1.0  0.01430  0.51120  0.89021  1.0000 -0.0075034697
C   C107      1.0  0.51430  0.01120  0.60979  1.0000 -0.0075034697
C   C108      1.0  0.48570  0.51120  0.39021  1.0000 -0.0075034697
C   C109      1.0  0.35280  0.38220  0.94840  1.0000 -0.0515683849
C   C110      1.0  0.64720  0.88220  0.05160  1.0000 -0.0515683849
C   C111      1.0  0.14720  0.38220  0.44840  1.0000 -0.0515683849
C   C112      1.0  0.85280  0.88220  0.55160  1.0000 -0.0515683849
C   C113      1.0  0.40010  0.25670  0.96497  1.0000 -0.1373356019
C   C114      1.0  0.59990  0.75670  0.03503  1.0000 -0.1373356019
C   C115      1.0  0.09990  0.25670  0.46497  1.0000 -0.1373356019
C   C116      1.0  0.90010  0.75670  0.53503  1.0000 -0.1373356019
C   C117      1.0  0.23730  0.24020  0.24797  1.0000 0.1501166731
C   C118      1.0  0.76270  0.74020  0.75203  1.0000 0.1501166731
C   C119      1.0  0.26270  0.24020  0.74797  1.0000 0.1501166731
C   C120      1.0  0.73730  0.74020  0.25203  1.0000 0.1501166731
C   C121      1.0  0.30230  0.11700  0.26995  1.0000 -0.1596035246
C   C122      1.0  0.69770  0.61700  0.73005  1.0000 -0.1596035246
C   C123      1.0  0.19770  0.11700  0.76995  1.0000 -0.1596035246
C   C124      1.0  0.80230  0.61700  0.23005  1.0000 -0.1596035246
C   C125      1.0  0.17670  0.20220  0.31592  1.0000 -0.073860835
C   C126      1.0  0.82330  0.70220  0.68408  1.0000 -0.073860835
C   C127      1.0  0.32330  0.20220  0.81592  1.0000 -0.073860835
C   C128      1.0  0.67670  0.70220  0.18408  1.0000 -0.073860835
C   C129      1.0  0.28630  0.39720  0.98703  1.0000 -0.1694647182
C   C130      1.0  0.71370  0.89720  0.01297  1.0000 -0.1694647182
C   C131      1.0  0.21370  0.39720  0.48703  1.0000 -0.1694647182
C   C132      1.0  0.78630  0.89720  0.51297  1.0000 -0.1694647182
C   C133      1.0  0.24280  0.13480  0.30751  1.0000 -0.073860835
C   C134      1.0  0.75720  0.63480  0.69249  1.0000 -0.073860835
C   C135      1.0  0.25720  0.13480  0.80751  1.0000 -0.073860835
C   C136      1.0  0.74280  0.63480  0.19249  1.0000 -0.073860835
N   N1        1.0  0.31480  0.22480  0.03816  1.0000 -0.4024731849
N   N2        1.0  0.68520  0.72480  0.96184  1.0000 -0.4024731849
N   N3        1.0  0.18520  0.22480  0.53816  1.0000 -0.4024731849
N   N4        1.0  0.81480  0.72480  0.46184  1.0000 -0.4024731849
N   N5        1.0  0.25380  0.28284  0.21239  1.0000 -0.4288254861
N   N6        1.0  0.74620  0.78284  0.78761  1.0000 -0.4288254861
N   N7        1.0  0.24620  0.28284  0.71239  1.0000 -0.4288254861
N   N8        1.0  0.75380  0.78284  0.28761  1.0000 -0.4288254861
N   N9        1.0  0.23370  0.33313  0.05500  1.0000 -0.2692653422
N   N10       1.0  0.76630  0.83313  0.94500  1.0000 -0.2692653422
N   N11       1.0  0.26630  0.33313  0.55500  1.0000 -0.2692653422
N   N12       1.0  0.73370  0.83313  0.44500  1.0000 -0.2692653422
N   N13       1.0  0.34840  0.17054  0.19747  1.0000 -0.316951703
N   N14       1.0  0.65160  0.67054  0.80253  1.0000 -0.316951703
N   N15       1.0  0.15160  0.17054  0.69747  1.0000 -0.316951703
N   N16       1.0  0.84840  0.67054  0.30253  1.0000 -0.316951703
O   O1        1.0  0.24110  0.97060  0.08244  1.0000 -0.4800885354
O   O2        1.0  0.75890  0.47060  0.91756  1.0000 -0.4800885354
O   O3        1.0  0.25890  0.97060  0.58244  1.0000 -0.4800885354
O   O4        1.0  0.74110  0.47060  0.41756  1.0000 -0.4800885354
O   O5        1.0  0.14780  0.08050  0.06580  1.0000 -0.5353548263
O   O6        1.0  0.85220  0.58050  0.93420  1.0000 -0.5324236308
O   O7        1.0  0.35220  0.08050  0.56580  1.0000 -0.5353548263
O   O8        1.0  0.64780  0.58050  0.43420  1.0000 -0.5324236308
O   O9        1.0  0.12760  0.07659  0.48366  1.0000 -0.5207142665
O   O10       1.0  0.87240  0.57659  0.51634  1.0000 -0.5207142665
O   O11       1.0  0.37240  0.07659  0.98366  1.0000 -0.5207142665
O   O12       1.0  0.62760  0.57659  0.01634  1.0000 -0.5207142665
O   O13       1.0  0.38270  0.11030  0.46887  1.0000 -0.4985080268
O   O14       1.0  0.61730  0.61030  0.53113  1.0000 -0.4985080268
O   O15       1.0  0.11730  0.11030  0.96887  1.0000 -0.4985080268
O   O16       1.0  0.88270  0.61030  0.03113  1.0000 -0.4985080268
O   O17       1.0  0.51870  0.92181  0.31099  1.0000 -0.4985080268
O   O18       1.0  0.48130  0.42181  0.68901  1.0000 -0.4985080268
O   O19       1.0  0.98130  0.92181  0.81099  1.0000 -0.4945776199
O   O20       1.0  0.01870  0.42181  0.18901  1.0000 -0.4985080268
O   O21       1.0  0.92110  0.92884  0.31687  1.0000 -0.5324236308
O   O22       1.0  0.07890  0.42884  0.68313  1.0000 -0.5324236308
O   O23       1.0  0.57890  0.92884  0.81687  1.0000 -0.5324236308
O   O24       1.0  0.42110  0.42884  0.18313  1.0000 -0.5324236308
O   O25       1.0  0.62610  0.90369  0.37299  1.0000 -0.5324236308
O   O26       1.0  0.37390  0.40369  0.62701  1.0000 -0.5324236308
O   O27       1.0  0.87390  0.90369  0.87299  1.0000 -0.5324236308
O   O28       1.0  0.12610  0.40369  0.12701  1.0000 -0.5324236308
O   O29       1.0  0.82160  0.03191  0.34311  1.0000 -0.4709784721
O   O30       1.0  0.17840  0.53191  0.65689  1.0000 -0.4709784721
O   O31       1.0  0.67840  0.03191  0.84311  1.0000 -0.4709784721
O   O32       1.0  0.32160  0.53191  0.15689  1.0000 -0.4709784721
O   O33       1.0  0.72720  0.93261  0.23359  1.0000 -0.5083536987
O   O34       1.0  0.27280  0.43261  0.76641  1.0000 -0.5083536987
O   O35       1.0  0.77280  0.93261  0.73359  1.0000 -0.5083536987
O   O36       1.0  0.22720  0.43261  0.26641  1.0000 -0.5083536987
O   O37       1.0  0.54450  0.09024  0.06769  1.0000 -0.5207142665
O   O38       1.0  0.45550  0.59024  0.93231  1.0000 -0.5207142665
O   O39       1.0  0.95550  0.09024  0.56769  1.0000 -0.5207142665
O   O40       1.0  0.04450  0.59024  0.43231  1.0000 -0.5207142665
O   O41       1.0  0.97140  0.88715  0.21894  1.0000 -0.4800885354
O   O42       1.0  0.02860  0.38715  0.78106  1.0000 -0.4800885354
O   O43       1.0  0.52860  0.88715  0.71894  1.0000 -0.4800885354
O   O44       1.0  0.47140  0.38715  0.28106  1.0000 -0.4800885354
O   O45       1.0  0.43730  0.09097  0.13103  1.0000 -0.5207142665
O   O46       1.0  0.56270  0.59097  0.86897  1.0000 -0.5207142665
O   O47       1.0  0.06270  0.09097  0.63103  1.0000 -0.5207142665
O   O48       1.0  0.93730  0.59097  0.36897  1.0000 -0.5207142665
