# DDEC6 charges by PACMAN v1.1 (https://github.com/mtap-research/PACMAN-charge/)
data_2012[Mn][flu]3[FSR]1
_chemical_formula_sum              "Mn3 H48 C66 O24"
_cell_length_a       13.4319
_cell_length_b       16.216
_cell_length_c       16.2911
_cell_angle_alpha    108.099
_cell_angle_beta     102.652
_cell_angle_gamma    106.188

_symmetry_space_group_name_H-M    "P 1"
_symmetry_Int_Tables_number       1

loop_
  _symmetry_equiv_pos_as_xyz
  'x, y, z'

loop_
  _atom_site_type_symbol
  _atom_site_label
  _atom_site_symmetry_multiplicity
  _atom_site_fract_x
  _atom_site_fract_y
  _atom_site_fract_z
  _atom_site_occupancy
  _atom_site_charge
Mn  Mn1       1.0  0.50000  0.50000  0.50000  1.0000 1.1058593619
Mn  Mn2       1.0  0.79512  0.62201  0.60064  1.0000 1.0132452476
Mn  Mn3       1.0  0.20488  0.37799  0.39936  1.0000 1.0132452476
H   H1        1.0  0.67020  0.89200  0.12540  1.0000 0.1023138914
H   H2        1.0  0.32980  0.10800  0.87460  1.0000 0.1023138914
H   H3        1.0  0.55450  0.81120  0.05690  1.0000 0.1023138914
H   H4        1.0  0.44550  0.18880  0.94310  1.0000 0.1023138914
H   H5        1.0  0.45950  0.67010  0.74940  1.0000 0.1224878111
H   H6        1.0  0.54050  0.32990  0.25060  1.0000 0.1224878111
H   H7        1.0  0.44860  0.77610  0.88090  1.0000 0.1296989444
H   H8        1.0  0.55140  0.22390  0.11910  1.0000 0.1296989444
H   H9        1.0  0.77590  0.90460  0.97280  1.0000 0.1382590848
H   H10       1.0  0.22410  0.09540  0.02720  1.0000 0.1382590848
H   H11       1.0  0.46210  0.78230  0.29610  1.0000 0.1224878111
H   H12       1.0  0.53790  0.21770  0.70390  1.0000 0.1224878111
H   H13       1.0  0.79690  0.35840  0.36940  1.0000 0.1296989444
H   H14       1.0  0.20310  0.64160  0.63060  1.0000 0.1296989444
H   H15       1.0  0.48230  0.69490  0.38280  1.0000 0.1382590848
H   H16       1.0  0.51770  0.30510  0.61720  1.0000 0.1382590848
H   H17       1.0  0.38900  0.94580  0.11780  1.0000 0.1093874756
H   H18       1.0  0.61100  0.05420  0.88220  1.0000 0.1093874756
H   H19       1.0  0.44020  0.94630  0.03760  1.0000 0.1093874756
H   H20       1.0  0.55980  0.05370  0.96240  1.0000 0.1093874756
H   H21       1.0  0.47470  0.90460  0.24250  1.0000 0.1093874756
H   H22       1.0  0.52530  0.09540  0.75750  1.0000 0.1093874756
H   H23       1.0  0.47500  0.81080  0.17060  1.0000 0.1023138914
H   H24       1.0  0.52500  0.18920  0.82940  1.0000 0.1023138914
H   H25       1.0  0.73380  0.20070  0.27410  1.0000 0.1296989444
H   H26       1.0  0.26620  0.79930  0.72590  1.0000 0.1296989444
H   H27       1.0  0.27310  0.91760  0.95990  1.0000 0.1224878111
H   H28       1.0  0.72690  0.08240  0.04010  1.0000 0.1224878111
H   H29       1.0  0.53990  0.30480  0.46240  1.0000 0.1224878111
H   H30       1.0  0.46010  0.69520  0.53760  1.0000 0.1224878111
H   H31       1.0  0.47470  0.14930  0.36430  1.0000 0.1382590848
H   H32       1.0  0.52530  0.85070  0.63570  1.0000 0.1382590848
H   H33       1.0  0.11770  0.85580  0.83040  1.0000 0.1224878111
H   H34       1.0  0.88230  0.14420  0.16960  1.0000 0.1224878111
H   H35       1.0  0.68090  0.03940  0.23170  1.0000 0.1093874756
H   H36       1.0  0.31910  0.96060  0.76830  1.0000 0.1093874756
H   H37       1.0  0.61380  0.06260  0.15290  1.0000 0.1093874756
H   H38       1.0  0.38620  0.93740  0.84710  1.0000 0.1093874756
H   H39       1.0  0.78450  0.80110  0.84290  1.0000 0.1296989444
H   H40       1.0  0.21550  0.19890  0.15710  1.0000 0.1296989444
H   H41       1.0  0.24740  0.65630  0.93180  1.0000 0.1382590848
H   H42       1.0  0.75260  0.34370  0.06820  1.0000 0.1382590848
H   H43       1.0  0.08520  0.59430  0.80730  1.0000 0.1224878111
H   H44       1.0  0.91480  0.40570  0.19270  1.0000 0.1224878111
H   H45       1.0  0.79050  0.89300  0.36290  1.0000 0.1382590848
H   H46       1.0  0.20950  0.10700  0.63710  1.0000 0.1382590848
H   H47       1.0  0.81170  0.80150  0.44580  1.0000 0.1296989444
H   H48       1.0  0.18830  0.19850  0.55420  1.0000 0.1296989444
C   C1        1.0  0.63110  0.65490  0.70030  1.0000 0.5990610945
C   C2        1.0  0.36890  0.34510  0.29970  1.0000 0.5990610945
C   C3        1.0  0.59600  0.87970  0.08540  1.0000 -0.0978122165
C   C4        1.0  0.40400  0.12030  0.91460  1.0000 -0.0978122165
C   C5        1.0  0.52500  0.71770  0.79520  1.0000 -0.0771415465
C   C6        1.0  0.47500  0.28230  0.20480  1.0000 -0.0735533577
C   C7        1.0  0.51810  0.78160  0.87360  1.0000 -0.2178369534
C   C8        1.0  0.48190  0.21840  0.12640  1.0000 -0.2178369534
C   C9        1.0  0.61150  0.85110  0.93880  1.0000 0.2377670038
C   C10       1.0  0.38850  0.14890  0.06120  1.0000 0.2377670038
C   C11       1.0  0.71010  0.85700  0.92740  1.0000 -0.2178369534
C   C12       1.0  0.28990  0.14300  0.07260  1.0000 -0.2178369534
C   C13       1.0  0.53320  0.78570  0.32600  1.0000 -0.2327199128
C   C14       1.0  0.46680  0.21430  0.67400  1.0000 -0.2327199128
C   C15       1.0  0.62510  0.84230  0.31820  1.0000 0.2499271597
C   C16       1.0  0.37490  0.15770  0.68180  1.0000 0.2499271597
C   C17       1.0  0.27450  0.79130  0.95760  1.0000 0.2499271597
C   C18       1.0  0.72550  0.20870  0.04240  1.0000 0.2499271597
C   C19       1.0  0.67410  0.34850  0.42550  1.0000 -0.0498638224
C   C20       1.0  0.32590  0.65150  0.57450  1.0000 -0.0498638224
C   C21       1.0  0.73140  0.31580  0.36860  1.0000 -0.059399964
C   C22       1.0  0.26860  0.68420  0.63140  1.0000 -0.059399964
C   C23       1.0  0.53710  0.92720  0.14200  1.0000 0.088088725
C   C24       1.0  0.46290  0.07280  0.85800  1.0000 0.088088725
C   C25       1.0  0.54580  0.73420  0.37770  1.0000 -0.0771415465
C   C26       1.0  0.45420  0.26580  0.62230  1.0000 -0.0771415465
C   C27       1.0  0.42840  0.91600  0.08070  1.0000 -0.0871457063
C   C28       1.0  0.57160  0.08400  0.91930  1.0000 -0.0871457063
C   C29       1.0  0.51730  0.87860  0.20620  1.0000 -0.0978122165
C   C30       1.0  0.48270  0.12140  0.79380  1.0000 -0.0978122165
C   C31       1.0  0.69370  0.22230  0.31150  1.0000 -0.2327199128
C   C32       1.0  0.30630  0.77770  0.68850  1.0000 -0.2327199128
C   C33       1.0  0.23600  0.85180  0.92810  1.0000 -0.2380475325
C   C34       1.0  0.76400  0.14820  0.07190  1.0000 -0.2380475325
C   C35       1.0  0.59770  0.16070  0.30900  1.0000 0.2645583081
C   C36       1.0  0.40230  0.83930  0.69100  1.0000 0.2645583081
C   C37       1.0  0.57890  0.28430  0.42330  1.0000 -0.059399964
C   C38       1.0  0.42110  0.71570  0.57670  1.0000 -0.059399964
C   C39       1.0  0.54050  0.19210  0.36560  1.0000 -0.2043269199
C   C40       1.0  0.45950  0.80790  0.63440  1.0000 -0.2043269199
C   C41       1.0  0.14310  0.81460  0.85180  1.0000 -0.0871457063
C   C42       1.0  0.85690  0.18540  0.14820  1.0000 -0.0871457063
C   C43       1.0  0.98230  0.68000  0.72520  1.0000 0.5433615077
C   C44       1.0  0.01770  0.32000  0.27480  1.0000 0.5433615077
C   C45       1.0  0.08630  0.72010  0.80600  1.0000 -0.0273749695
C   C46       1.0  0.91370  0.27990  0.19400  1.0000 -0.0273749695
C   C47       1.0  0.62190  0.72310  0.78430  1.0000 -0.0273749695
C   C48       1.0  0.37810  0.27690  0.21570  1.0000 -0.0273749695
C   C49       1.0  0.71370  0.44790  0.48390  1.0000 0.5594277013
C   C50       1.0  0.28630  0.55210  0.51610  1.0000 0.5594277013
C   C51       1.0  0.66000  0.67730  0.47370  1.0000 0.5881577361
C   C52       1.0  0.34000  0.32270  0.52630  1.0000 0.5881577361
C   C53       1.0  0.64760  0.73790  0.42210  1.0000 -0.0375479084
C   C54       1.0  0.35240  0.26210  0.57790  1.0000 -0.0375479084
C   C55       1.0  0.60650  0.03060  0.19540  1.0000 -0.0771415465
C   C56       1.0  0.39350  0.96940  0.80460  1.0000 -0.0771415465
C   C57       1.0  0.71510  0.79480  0.85060  1.0000 -0.0771415465
C   C58       1.0  0.28490  0.20520  0.14940  1.0000 -0.0771415465
C   C59       1.0  0.21970  0.69730  0.91200  1.0000 -0.2178369534
C   C60       1.0  0.78030  0.30270  0.08800  1.0000 -0.2178369534
C   C61       1.0  0.12420  0.66010  0.83700  1.0000 -0.0735533577
C   C62       1.0  0.87580  0.33990  0.16300  1.0000 -0.0735533577
C   C63       1.0  0.72730  0.85030  0.36510  1.0000 -0.2092588019
C   C64       1.0  0.27270  0.14970  0.63490  1.0000 -0.2092588019
C   C65       1.0  0.74030  0.79740  0.41570  1.0000 -0.0735533577
C   C66       1.0  0.25970  0.20260  0.58430  1.0000 -0.0735533577
O   O1        1.0  0.54360  0.59206  0.64175  1.0000 -0.5480468345
O   O2        1.0  0.45640  0.40794  0.35825  1.0000 -0.5480468345
O   O3        1.0  0.36520  0.81839  0.03119  1.0000 -0.1798956466
O   O4        1.0  0.63480  0.18161  0.96881  1.0000 -0.1798956466
O   O5        1.0  0.60590  0.91491  0.01401  1.0000 -0.2178369534
O   O6        1.0  0.39410  0.08509  0.98599  1.0000 -0.2178369534
O   O7        1.0  0.55170  0.06821  0.25455  1.0000 -0.170091815
O   O8        1.0  0.44830  0.93179  0.74545  1.0000 -0.170091815
O   O9        1.0  0.62230  0.89393  0.26574  1.0000 -0.1798956466
O   O10       1.0  0.37770  0.10607  0.73426  1.0000 -0.1798956466
O   O11       1.0  0.80340  0.50394  0.49016  1.0000 -0.4952210557
O   O12       1.0  0.19660  0.49606  0.50984  1.0000 -0.4952210557
O   O13       1.0  0.72410  0.66860  0.69599  1.0000 -0.5204812062
O   O14       1.0  0.27590  0.33140  0.30401  1.0000 -0.5204812062
O   O15       1.0  0.65880  0.47834  0.53302  1.0000 -0.5732536089
O   O16       1.0  0.34120  0.52166  0.46698  1.0000 -0.5732536089
O   O17       1.0  0.57430  0.61737  0.46817  1.0000 -0.5559078228
O   O18       1.0  0.42570  0.38263  0.53183  1.0000 -0.5559078228
O   O19       1.0  0.96180  0.73120  0.68537  1.0000 -0.5263588699
O   O20       1.0  0.03820  0.26880  0.31463  1.0000 -0.5263588699
O   O21       1.0  0.91580  0.59720  0.70162  1.0000 -0.5263588699
O   O22       1.0  0.08420  0.40280  0.29838  1.0000 -0.5263588699
O   O23       1.0  0.75700  0.69110  0.51696  1.0000 -0.5263588699
O   O24       1.0  0.24300  0.30890  0.48304  1.0000 -0.5263588699
