# DDEC6 charges by PACMAN v1.1 (https://github.com/mtap-research/PACMAN-charge/)
data_2012[SmSb][dia]3[FSR]1
_chemical_formula_sum              "Sm2 Sb4 H48 C40 N8 O40"
_cell_length_a       7.2094
_cell_length_b       22.652
_cell_length_c       12.8072
_cell_angle_alpha    90
_cell_angle_beta     123.702
_cell_angle_gamma    90

_symmetry_space_group_name_H-M    "P 1"
_symmetry_Int_Tables_number       1

loop_
  _symmetry_equiv_pos_as_xyz
  'x, y, z'

loop_
  _atom_site_type_symbol
  _atom_site_label
  _atom_site_symmetry_multiplicity
  _atom_site_fract_x
  _atom_site_fract_y
  _atom_site_fract_z
  _atom_site_occupancy
  _atom_site_charge
Sm  Sm1       1.0  0.40883  0.25076  0.14742  1.0000 2.1434129262
Sm  Sm2       1.0  0.40883  0.74924  0.64742  1.0000 2.1458014035
Sb  Sb1       1.0  0.33572  0.98823  0.87616  1.0000 0.9886827553
Sb  Sb2       1.0  0.33572  0.01177  0.37616  1.0000 0.9886827553
Sb  Sb3       1.0  0.96487  0.48338  0.39587  1.0000 0.9886827553
Sb  Sb4       1.0  0.96487  0.51662  0.89587  1.0000 0.9886827553
H   H1        1.0  0.06990  0.11950  0.78020  1.0000 0.1684144601
H   H2        1.0  0.06990  0.88050  0.28020  1.0000 0.1684144601
H   H3        1.0  0.82800  0.09920  0.74330  1.0000 0.1627832228
H   H4        1.0  0.82800  0.90080  0.24330  1.0000 0.1627832228
H   H5        1.0  0.21670  0.06460  0.06530  1.0000 0.1627832228
H   H6        1.0  0.21670  0.93540  0.56530  1.0000 0.1627832228
H   H7        1.0  0.08090  0.11950  0.97660  1.0000 0.1627832228
H   H8        1.0  0.08090  0.88050  0.47660  1.0000 0.1684144601
H   H9        1.0  0.97550  0.99750  0.97090  1.0000 0.1276753815
H   H10       1.0  0.97550  0.00250  0.47090  1.0000 0.1276753815
H   H11       1.0  0.77600  0.03210  0.85270  1.0000 0.1494161496
H   H12       1.0  0.77600  0.96790  0.35270  1.0000 0.1494161496
H   H13       1.0  0.77950  0.96630  0.71610  1.0000 0.1276753815
H   H14       1.0  0.77950  0.03370  0.21610  1.0000 0.1276753815
H   H15       1.0  0.75520  0.93030  0.81570  1.0000 0.1494161496
H   H16       1.0  0.75520  0.06970  0.31570  1.0000 0.1494161496
H   H17       1.0  0.91780  0.89610  0.66340  1.0000 0.1684144601
H   H18       1.0  0.91780  0.10390  0.16340  1.0000 0.1684144601
H   H19       1.0  0.93310  0.84380  0.75210  1.0000 0.1684144601
H   H20       1.0  0.93310  0.15620  0.25210  1.0000 0.1684144601
H   H21       1.0  0.22870  0.85220  0.96550  1.0000 0.1627832228
H   H22       1.0  0.22870  0.14780  0.46550  1.0000 0.1627832228
H   H23       1.0  0.03630  0.87960  0.97690  1.0000 0.1627832228
H   H24       1.0  0.03630  0.12040  0.47690  1.0000 0.1627832228
H   H25       1.0  0.96180  0.39080  0.18090  1.0000 0.1684144601
H   H26       1.0  0.96180  0.60920  0.68090  1.0000 0.1684144601
H   H27       1.0  0.11390  0.33820  0.27170  1.0000 0.1684144601
H   H28       1.0  0.11390  0.66180  0.77170  1.0000 0.1684144601
H   H29       1.0  0.24420  0.34740  0.48390  1.0000 0.1494161496
H   H30       1.0  0.24420  0.65260  0.98390  1.0000 0.1494161496
H   H31       1.0  0.45800  0.37400  0.49280  1.0000 0.1684144601
H   H32       1.0  0.45800  0.62600  0.99280  1.0000 0.1684144601
H   H33       1.0  0.41970  0.42320  0.33350  1.0000 0.1494161496
H   H34       1.0  0.41970  0.57680  0.83350  1.0000 0.1494161496
H   H35       1.0  0.20090  0.45960  0.23340  1.0000 0.1276753815
H   H36       1.0  0.20090  0.54040  0.73340  1.0000 0.1276753815
H   H37       1.0  0.47780  0.52740  0.37040  1.0000 0.1494161496
H   H38       1.0  0.47780  0.47260  0.87040  1.0000 0.1494161496
H   H39       1.0  0.51360  0.49360  0.49020  1.0000 0.12438541
H   H40       1.0  0.51360  0.50640  0.99020  1.0000 0.12438541
H   H41       1.0  0.04660  0.61540  0.29990  1.0000 0.1684144601
H   H42       1.0  0.04660  0.38460  0.79990  1.0000 0.1684144601
H   H43       1.0  0.21040  0.59370  0.26010  1.0000 0.1627832228
H   H44       1.0  0.21040  0.40630  0.76010  1.0000 0.1627832228
H   H45       1.0  0.46020  0.55910  0.58210  1.0000 0.1627832228
H   H46       1.0  0.46020  0.44090  0.08210  1.0000 0.1627832228
H   H47       1.0  0.41910  0.61400  0.49300  1.0000 0.1627832228
H   H48       1.0  0.41910  0.38600  0.99300  1.0000 0.1627832228
C   C1        1.0  0.97410  0.08470  0.76380  1.0000 -0.2810070245
C   C2        1.0  0.97410  0.91530  0.26380  1.0000 -0.2810070245
C   C3        1.0  0.94050  0.05120  0.65200  1.0000 0.5997519055
C   C4        1.0  0.94050  0.94880  0.15200  1.0000 0.5997519055
C   C5        1.0  0.18550  0.08730  0.99120  1.0000 -0.2810070245
C   C6        1.0  0.18550  0.91270  0.49120  1.0000 -0.2810070245
C   C7        1.0  0.39960  0.11360  0.01780  1.0000 0.6507113808
C   C8        1.0  0.39960  0.88640  0.51780  1.0000 0.6507113808
C   C9        1.0  0.91390  0.00920  0.88300  1.0000 -0.131259576
C   C10       1.0  0.91390  0.99080  0.38300  1.0000 -0.1356100356
C   C11       1.0  0.85690  0.95530  0.80570  1.0000 -0.131259576
C   C12       1.0  0.85690  0.04470  0.30570  1.0000 -0.131259576
C   C13       1.0  0.01520  0.87750  0.74690  1.0000 -0.2810070245
C   C14       1.0  0.01520  0.12250  0.24690  1.0000 -0.2810070245
C   C15       1.0  0.22310  0.85520  0.76020  1.0000 0.6368953967
C   C16       1.0  0.22310  0.14480  0.26020  1.0000 0.6368953967
C   C17       1.0  0.16010  0.88960  0.96770  1.0000 -0.2810070245
C   C18       1.0  0.16010  0.11040  0.46770  1.0000 -0.2810070245
C   C19       1.0  0.33280  0.92480  0.08140  1.0000 0.5997519055
C   C20       1.0  0.33280  0.07520  0.58140  1.0000 0.5997519055
C   C21       1.0  0.02330  0.37270  0.26430  1.0000 -0.2810070245
C   C22       1.0  0.02330  0.62730  0.76430  1.0000 -0.2810070245
C   C23       1.0  0.83410  0.35230  0.27360  1.0000 0.6368953967
C   C24       1.0  0.83410  0.64770  0.77360  1.0000 0.6368953967
C   C25       1.0  0.31750  0.38460  0.48500  1.0000 -0.2810070245
C   C26       1.0  0.31750  0.61540  0.98500  1.0000 -0.2810070245
C   C27       1.0  0.37270  0.42020  0.59810  1.0000 0.5997519055
C   C28       1.0  0.37270  0.57980  0.09810  1.0000 0.5997519055
C   C29       1.0  0.29950  0.44890  0.32320  1.0000 -0.123986586
C   C30       1.0  0.29950  0.55110  0.82320  1.0000 -0.123986586
C   C31       1.0  0.40110  0.50480  0.40200  1.0000 -0.131259576
C   C32       1.0  0.40110  0.49520  0.90200  1.0000 -0.131259576
C   C33       1.0  0.10550  0.58010  0.28200  1.0000 -0.2810070245
C   C34       1.0  0.10550  0.41990  0.78200  1.0000 -0.2810070245
C   C35       1.0  0.91510  0.54740  0.17170  1.0000 0.5997519055
C   C36       1.0  0.91510  0.45260  0.67170  1.0000 0.5997519055
C   C37       1.0  0.34430  0.58180  0.50830  1.0000 -0.2810070245
C   C38       1.0  0.34430  0.41820  0.00830  1.0000 -0.2810070245
C   C39       1.0  0.18400  0.60800  0.53620  1.0000 0.6507113808
C   C40       1.0  0.18400  0.39200  0.03620  1.0000 0.6507113808
N   N1        1.0  0.07880  0.04779  0.87990  1.0000 -0.0194075452
N   N2        1.0  0.07880  0.95221  0.37990  1.0000 -0.0194075452
N   N3        1.0  0.06680  0.92110  0.84580  1.0000 -0.0310350676
N   N4        1.0  0.06680  0.07890  0.34580  1.0000 -0.0310350676
N   N5        1.0  0.16830  0.41621  0.36310  1.0000 -0.0310350676
N   N6        1.0  0.16830  0.58379  0.86310  1.0000 -0.0310350676
N   N7        1.0  0.22890  0.54247  0.39730  1.0000 -0.0194075452
N   N8        1.0  0.22890  0.45753  0.89730  1.0000 -0.0194075452
O   O1        1.0  0.06050  0.00311  0.67890  1.0000 -0.5162636256
O   O2        1.0  0.06050  0.99689  0.17890  1.0000 -0.5162636256
O   O3        1.0  0.81150  0.06937  0.54700  1.0000 -0.4684195485
O   O4        1.0  0.81150  0.93063  0.04700  1.0000 -0.4684195485
O   O5        1.0  0.50160  0.08573  0.97830  1.0000 -0.5069384193
O   O6        1.0  0.50160  0.91427  0.47830  1.0000 -0.5069384193
O   O7        1.0  0.46740  0.16009  0.07940  1.0000 -0.5894493899
O   O8        1.0  0.46740  0.83991  0.57940  1.0000 -0.5894493899
O   O9        1.0  0.39470  0.88709  0.81820  1.0000 -0.4907924598
O   O10       1.0  0.39470  0.11291  0.31820  1.0000 -0.4907924598
O   O11       1.0  0.20870  0.80759  0.70550  1.0000 -0.5894493899
O   O12       1.0  0.20870  0.19241  0.20550  1.0000 -0.5894493899
O   O13       1.0  0.41650  0.97058  0.05940  1.0000 -0.5028768694
O   O14       1.0  0.41650  0.02942  0.55940  1.0000 -0.5028768694
O   O15       1.0  0.39090  0.90840  0.18610  1.0000 -0.4907924598
O   O16       1.0  0.39090  0.09160  0.68610  1.0000 -0.4907924598
O   O17       1.0  0.78710  0.38274  0.33740  1.0000 -0.4802139169
O   O18       1.0  0.78710  0.61726  0.83740  1.0000 -0.4802139169
O   O19       1.0  0.73220  0.30662  0.21280  1.0000 -0.5894493899
O   O20       1.0  0.73220  0.69338  0.71280  1.0000 -0.5894493899
O   O21       1.0  0.25210  0.46581  0.57870  1.0000 -0.4907924598
O   O22       1.0  0.25210  0.53419  0.07870  1.0000 -0.4907924598
O   O23       1.0  0.52540  0.40410  0.70360  1.0000 -0.4907924598
O   O24       1.0  0.52540  0.59590  0.20360  1.0000 -0.4907924598
O   O25       1.0  0.84450  0.50063  0.19760  1.0000 -0.5028768694
O   O26       1.0  0.84450  0.49937  0.69760  1.0000 -0.5028768694
O   O27       1.0  0.83180  0.56742  0.06760  1.0000 -0.4684195485
O   O28       1.0  0.83180  0.43258  0.56760  1.0000 -0.4684195485
O   O29       1.0  0.00470  0.57926  0.49750  1.0000 -0.5028768694
O   O30       1.0  0.00470  0.42074  0.99750  1.0000 -0.5028768694
O   O31       1.0  0.23530  0.65490  0.59760  1.0000 -0.5894493899
O   O32       1.0  0.23530  0.34510  0.09760  1.0000 -0.5894493899
O   O33       1.0  0.70290  0.19312  0.33280  1.0000 -0.3691528058
O   O34       1.0  0.70290  0.80688  0.83280  1.0000 -0.3691528058
O   O35       1.0  0.40480  0.27485  0.95940  1.0000 -0.4608236021
O   O36       1.0  0.40480  0.72515  0.45940  1.0000 -0.4684195485
O   O37       1.0  0.02730  0.23978  0.96230  1.0000 -0.4684195485
O   O38       1.0  0.02730  0.76022  0.46230  1.0000 -0.4608236021
O   O39       1.0  0.49300  0.29967  0.34260  1.0000 -0.3941222644
O   O40       1.0  0.49300  0.70033  0.84260  1.0000 -0.4009533143
