# DDEC6 charges by PACMAN v1.1 (https://github.com/mtap-research/PACMAN-charge/)
data_2012[Cu][sra]3[FSR]2
_chemical_formula_sum              "Cu4 H88 C72 N48 O4"
_cell_length_a       12.8631
_cell_length_b       13.156
_cell_length_c       17.1623
_cell_angle_alpha    90
_cell_angle_beta     90
_cell_angle_gamma    90

_symmetry_space_group_name_H-M    "P 1"
_symmetry_Int_Tables_number       1

loop_
  _symmetry_equiv_pos_as_xyz
  'x, y, z'

loop_
  _atom_site_type_symbol
  _atom_site_label
  _atom_site_symmetry_multiplicity
  _atom_site_fract_x
  _atom_site_fract_y
  _atom_site_fract_z
  _atom_site_occupancy
  _atom_site_charge
Cu  Cu1       1.0  0.83615  0.75000  0.06616  1.0000 0.5855759851
Cu  Cu2       1.0  0.33615  0.25000  0.43384  1.0000 0.5855759851
Cu  Cu3       1.0  0.66385  0.75000  0.56616  1.0000 0.5802352898
Cu  Cu4       1.0  0.16385  0.25000  0.93384  1.0000 0.5855759851
H   H1        1.0  0.89440  0.80230  0.91780  1.0000 0.3178712897
H   H2        1.0  0.39440  0.19770  0.58220  1.0000 0.3178712897
H   H3        1.0  0.60560  0.69770  0.41780  1.0000 0.3178712897
H   H4        1.0  0.10560  0.30230  0.08220  1.0000 0.3178712897
H   H5        1.0  0.10560  0.19770  0.08220  1.0000 0.3178712897
H   H6        1.0  0.60560  0.80230  0.41780  1.0000 0.3178712897
H   H7        1.0  0.39440  0.30230  0.58220  1.0000 0.3178712897
H   H8        1.0  0.89440  0.69770  0.91780  1.0000 0.3178712897
H   H9        1.0  0.68980  0.55410  0.11000  1.0000 0.1193211623
H   H10       1.0  0.18980  0.44590  0.39000  1.0000 0.1193211623
H   H11       1.0  0.81020  0.94590  0.61000  1.0000 0.1193211623
H   H12       1.0  0.31020  0.05410  0.89000  1.0000 0.1193211623
H   H13       1.0  0.31020  0.44590  0.89000  1.0000 0.1193211623
H   H14       1.0  0.81020  0.55410  0.61000  1.0000 0.1193211623
H   H15       1.0  0.18980  0.05410  0.39000  1.0000 0.1193211623
H   H16       1.0  0.68980  0.94590  0.11000  1.0000 0.1193211623
H   H17       1.0  0.92750  0.39010  0.04420  1.0000 0.1106355759
H   H18       1.0  0.42750  0.60990  0.45580  1.0000 0.1106355759
H   H19       1.0  0.57250  0.10990  0.54420  1.0000 0.1106355759
H   H20       1.0  0.07250  0.89010  0.95580  1.0000 0.1106355759
H   H21       1.0  0.07250  0.60990  0.95580  1.0000 0.1106355759
H   H22       1.0  0.57250  0.39010  0.54420  1.0000 0.1106355759
H   H23       1.0  0.42750  0.89010  0.45580  1.0000 0.1106355759
H   H24       1.0  0.92750  0.10990  0.04420  1.0000 0.1106355759
H   H25       1.0  0.34470  0.25000  0.07250  1.0000 0.1106355759
H   H26       1.0  0.84470  0.75000  0.42750  1.0000 0.1106355759
H   H27       1.0  0.15530  0.25000  0.57250  1.0000 0.1106355759
H   H28       1.0  0.65530  0.75000  0.92750  1.0000 0.1106355759
H   H29       1.0  0.53520  0.25000  0.89290  1.0000 0.1106355759
H   H30       1.0  0.03520  0.75000  0.60710  1.0000 0.1106355759
H   H31       1.0  0.96480  0.25000  0.39290  1.0000 0.1106355759
H   H32       1.0  0.46480  0.75000  0.10710  1.0000 0.1106355759
H   H33       1.0  0.41970  0.25000  0.26790  1.0000 0.1106355759
H   H34       1.0  0.91970  0.75000  0.23210  1.0000 0.1106355759
H   H35       1.0  0.08030  0.25000  0.76790  1.0000 0.1106355759
H   H36       1.0  0.58030  0.75000  0.73210  1.0000 0.1106355759
H   H37       1.0  0.70580  0.25000  0.34580  1.0000 0.1106355759
H   H38       1.0  0.20580  0.75000  0.15420  1.0000 0.1106355759
H   H39       1.0  0.79420  0.25000  0.84580  1.0000 0.1106355759
H   H40       1.0  0.29420  0.75000  0.65420  1.0000 0.1106355759
H   H41       1.0  0.65640  0.34580  0.98760  1.0000 0.1106355759
H   H42       1.0  0.15640  0.65420  0.51240  1.0000 0.1106355759
H   H43       1.0  0.84360  0.15420  0.48760  1.0000 0.1106355759
H   H44       1.0  0.34360  0.84580  0.01240  1.0000 0.1106355759
H   H45       1.0  0.34360  0.65420  0.01240  1.0000 0.1106355759
H   H46       1.0  0.84360  0.34580  0.48760  1.0000 0.1106355759
H   H47       1.0  0.15640  0.84580  0.51240  1.0000 0.1106355759
H   H48       1.0  0.65640  0.15420  0.98760  1.0000 0.1106355759
H   H49       1.0  0.58870  0.40690  0.04930  1.0000 0.1106355759
H   H50       1.0  0.08870  0.59310  0.45070  1.0000 0.1106355759
H   H51       1.0  0.91130  0.09310  0.54930  1.0000 0.1106355759
H   H52       1.0  0.41130  0.90690  0.95070  1.0000 0.1106355759
H   H53       1.0  0.41130  0.59310  0.95070  1.0000 0.1106355759
H   H54       1.0  0.91130  0.40690  0.54930  1.0000 0.1106355759
H   H55       1.0  0.08870  0.90690  0.45070  1.0000 0.1106355759
H   H56       1.0  0.58870  0.09310  0.04930  1.0000 0.1106355759
H   H57       1.0  0.48170  0.31040  0.14910  1.0000 0.1106355759
H   H58       1.0  0.98170  0.68960  0.35090  1.0000 0.1043207742
H   H59       1.0  0.01830  0.18960  0.64910  1.0000 0.1106355759
H   H60       1.0  0.51830  0.81040  0.85090  1.0000 0.1106355759
H   H61       1.0  0.51830  0.68960  0.85090  1.0000 0.1106355759
H   H62       1.0  0.01830  0.31040  0.64910  1.0000 0.1106355759
H   H63       1.0  0.98170  0.81040  0.35090  1.0000 0.1043207742
H   H64       1.0  0.48170  0.18960  0.14910  1.0000 0.1106355759
H   H65       1.0  0.64120  0.40690  0.19260  1.0000 0.1106355759
H   H66       1.0  0.14120  0.59310  0.30740  1.0000 0.1106355759
H   H67       1.0  0.85880  0.09310  0.69260  1.0000 0.1106355759
H   H68       1.0  0.35880  0.90690  0.80740  1.0000 0.1106355759
H   H69       1.0  0.35880  0.59310  0.80740  1.0000 0.1106355759
H   H70       1.0  0.85880  0.40690  0.69260  1.0000 0.1106355759
H   H71       1.0  0.14120  0.90690  0.30740  1.0000 0.1106355759
H   H72       1.0  0.64120  0.09310  0.19260  1.0000 0.1106355759
H   H73       1.0  0.74250  0.34750  0.21980  1.0000 0.1106355759
H   H74       1.0  0.24250  0.65250  0.28020  1.0000 0.1106355759
H   H75       1.0  0.75750  0.15250  0.71980  1.0000 0.1106355759
H   H76       1.0  0.25750  0.84750  0.78020  1.0000 0.1106355759
H   H77       1.0  0.25750  0.65250  0.78020  1.0000 0.1106355759
H   H78       1.0  0.75750  0.34750  0.71980  1.0000 0.1106355759
H   H79       1.0  0.24250  0.84750  0.28020  1.0000 0.1106355759
H   H80       1.0  0.74250  0.15250  0.21980  1.0000 0.1106355759
H   H81       1.0  0.84870  0.25000  0.12200  1.0000 0.1106355759
H   H82       1.0  0.34870  0.75000  0.37800  1.0000 0.1106355759
H   H83       1.0  0.65130  0.25000  0.62200  1.0000 0.1106355759
H   H84       1.0  0.15130  0.75000  0.87800  1.0000 0.1106355759
H   H85       1.0  0.81730  0.25000  0.03250  1.0000 0.1106355759
H   H86       1.0  0.31730  0.75000  0.46750  1.0000 0.1106355759
H   H87       1.0  0.68270  0.25000  0.53250  1.0000 0.1106355759
H   H88       1.0  0.18270  0.75000  0.96750  1.0000 0.1106355759
C   C1        1.0  0.75630  0.53440  0.09320  1.0000 0.0716949451
C   C2        1.0  0.25630  0.46560  0.40680  1.0000 0.0716949451
C   C3        1.0  0.74370  0.96560  0.59320  1.0000 0.0716949451
C   C4        1.0  0.24370  0.03440  0.90680  1.0000 0.0716949451
C   C5        1.0  0.24370  0.46560  0.90680  1.0000 0.0716949451
C   C6        1.0  0.74370  0.53440  0.59320  1.0000 0.0716949451
C   C7        1.0  0.25630  0.03440  0.40680  1.0000 0.0716949451
C   C8        1.0  0.75630  0.96560  0.09320  1.0000 0.0716949451
C   C9        1.0  0.88500  0.44580  0.05720  1.0000 0.0756822232
C   C10       1.0  0.38500  0.55420  0.44280  1.0000 0.0756822232
C   C11       1.0  0.61500  0.05420  0.55720  1.0000 0.0756822232
C   C12       1.0  0.11500  0.94580  0.94280  1.0000 0.0756822232
C   C13       1.0  0.11500  0.55420  0.94280  1.0000 0.0756822232
C   C14       1.0  0.61500  0.44580  0.55720  1.0000 0.0756822232
C   C15       1.0  0.38500  0.94580  0.44280  1.0000 0.0756822232
C   C16       1.0  0.88500  0.05420  0.05720  1.0000 0.0756822232
C   C17       1.0  0.37180  0.25000  0.02160  1.0000 -0.0231424147
C   C18       1.0  0.87180  0.75000  0.47840  1.0000 -0.0231424147
C   C19       1.0  0.12820  0.25000  0.52160  1.0000 -0.0231424147
C   C20       1.0  0.62820  0.75000  0.97840  1.0000 -0.0231424147
C   C21       1.0  0.47430  0.25000  0.92320  1.0000 0.0716949451
C   C22       1.0  0.97430  0.75000  0.57680  1.0000 0.0716949451
C   C23       1.0  0.02570  0.25000  0.42320  1.0000 0.0716949451
C   C24       1.0  0.52570  0.75000  0.07680  1.0000 0.0716949451
C   C25       1.0  0.47750  0.25000  0.30140  1.0000 0.0619640224
C   C26       1.0  0.97750  0.75000  0.19860  1.0000 0.0619640224
C   C27       1.0  0.02250  0.25000  0.80140  1.0000 0.0619640224
C   C28       1.0  0.52250  0.75000  0.69860  1.0000 0.0619640224
C   C29       1.0  0.63280  0.25000  0.34390  1.0000 0.0397938969
C   C30       1.0  0.13280  0.75000  0.15610  1.0000 0.0397938969
C   C31       1.0  0.86720  0.25000  0.84390  1.0000 0.0397938969
C   C32       1.0  0.36720  0.75000  0.65610  1.0000 0.0397938969
C   C33       1.0  0.72350  0.34500  0.09890  1.0000 0.2604996137
C   C34       1.0  0.22350  0.65500  0.40110  1.0000 0.2604996137
C   C35       1.0  0.77650  0.15500  0.59890  1.0000 0.2604996137
C   C36       1.0  0.27650  0.84500  0.90110  1.0000 0.2604996137
C   C37       1.0  0.27650  0.65500  0.90110  1.0000 0.2604996137
C   C38       1.0  0.77650  0.34500  0.59890  1.0000 0.2604996137
C   C39       1.0  0.22350  0.84500  0.40110  1.0000 0.2604996137
C   C40       1.0  0.72350  0.15500  0.09890  1.0000 0.2604996137
C   C41       1.0  0.63100  0.34580  0.04140  1.0000 -0.3720580347
C   C42       1.0  0.13100  0.65420  0.45860  1.0000 -0.375802917
C   C43       1.0  0.86900  0.15420  0.54140  1.0000 -0.375802917
C   C44       1.0  0.36900  0.84580  0.95860  1.0000 -0.375802917
C   C45       1.0  0.36900  0.65420  0.95860  1.0000 -0.375802917
C   C46       1.0  0.86900  0.34580  0.54140  1.0000 -0.375802917
C   C47       1.0  0.13100  0.84580  0.45860  1.0000 -0.375802917
C   C48       1.0  0.63100  0.15420  0.04140  1.0000 -0.3720580347
C   C49       1.0  0.56580  0.25000  0.05700  1.0000 0.2691079102
C   C50       1.0  0.06580  0.75000  0.44300  1.0000 0.2691079102
C   C51       1.0  0.93420  0.25000  0.55700  1.0000 0.2691079102
C   C52       1.0  0.43420  0.75000  0.94300  1.0000 0.2691079102
C   C53       1.0  0.52460  0.25000  0.14020  1.0000 -0.3888875633
C   C54       1.0  0.02460  0.75000  0.35980  1.0000 -0.3888875633
C   C55       1.0  0.97540  0.25000  0.64020  1.0000 -0.3888875633
C   C56       1.0  0.47540  0.75000  0.85980  1.0000 -0.3888875633
C   C57       1.0  0.61820  0.25000  0.19680  1.0000 0.2604996137
C   C58       1.0  0.11820  0.75000  0.30320  1.0000 0.2604996137
C   C59       1.0  0.88180  0.25000  0.69680  1.0000 0.2604996137
C   C60       1.0  0.38180  0.75000  0.80320  1.0000 0.2604996137
C   C61       1.0  0.68370  0.34620  0.18350  1.0000 -0.3720580347
C   C62       1.0  0.18370  0.65380  0.31650  1.0000 -0.3720580347
C   C63       1.0  0.81630  0.15380  0.68350  1.0000 -0.3720580347
C   C64       1.0  0.31630  0.84620  0.81650  1.0000 -0.3720580347
C   C65       1.0  0.31630  0.65380  0.81650  1.0000 -0.3720580347
C   C66       1.0  0.81630  0.34620  0.68350  1.0000 -0.3720580347
C   C67       1.0  0.18370  0.84620  0.31650  1.0000 -0.3720580347
C   C68       1.0  0.68370  0.15380  0.18350  1.0000 -0.3720580347
C   C69       1.0  0.78980  0.25000  0.08580  1.0000 -0.3888875633
C   C70       1.0  0.28980  0.75000  0.41420  1.0000 -0.3888875633
C   C71       1.0  0.71020  0.25000  0.58580  1.0000 -0.3888875633
C   C72       1.0  0.21020  0.75000  0.91420  1.0000 -0.3888875633
N   N1        1.0  0.83100  0.59750  0.07520  1.0000 -0.1969687209
N   N2        1.0  0.33100  0.40250  0.42480  1.0000 -0.1969687209
N   N3        1.0  0.66900  0.90250  0.57520  1.0000 -0.1969687209
N   N4        1.0  0.16900  0.09750  0.92480  1.0000 -0.1969687209
N   N5        1.0  0.16900  0.40250  0.92480  1.0000 -0.1969687209
N   N6        1.0  0.66900  0.59750  0.57520  1.0000 -0.1969687209
N   N7        1.0  0.33100  0.09750  0.42480  1.0000 -0.1969687209
N   N8        1.0  0.83100  0.90250  0.07520  1.0000 -0.1969687209
N   N9        1.0  0.91290  0.54150  0.05130  1.0000 -0.2112802157
N   N10       1.0  0.41290  0.45850  0.44870  1.0000 -0.2112802157
N   N11       1.0  0.58710  0.95850  0.55130  1.0000 -0.2112802157
N   N12       1.0  0.08710  0.04150  0.94870  1.0000 -0.2112802157
N   N13       1.0  0.08710  0.45850  0.94870  1.0000 -0.2112802157
N   N14       1.0  0.58710  0.54150  0.55130  1.0000 -0.2112802157
N   N15       1.0  0.41290  0.04150  0.44870  1.0000 -0.2112802157
N   N16       1.0  0.91290  0.95850  0.05130  1.0000 -0.2112802157
N   N17       1.0  0.78700  0.43850  0.08450  1.0000 -0.0669811377
N   N18       1.0  0.28700  0.56150  0.41550  1.0000 -0.0669811377
N   N19       1.0  0.71300  0.06150  0.58450  1.0000 -0.0669811377
N   N20       1.0  0.21300  0.93850  0.91550  1.0000 -0.0669811377
N   N21       1.0  0.21300  0.56150  0.91550  1.0000 -0.0669811377
N   N22       1.0  0.71300  0.43850  0.58450  1.0000 -0.0669811377
N   N23       1.0  0.28700  0.93850  0.41550  1.0000 -0.0669811377
N   N24       1.0  0.78700  0.06150  0.08450  1.0000 -0.0669811377
N   N25       1.0  0.31620  0.25000  0.95620  1.0000 -0.2112802157
N   N26       1.0  0.81620  0.75000  0.54380  1.0000 -0.2112802157
N   N27       1.0  0.18380  0.25000  0.45620  1.0000 -0.2112802157
N   N28       1.0  0.68380  0.75000  0.04380  1.0000 -0.2112802157
N   N29       1.0  0.38350  0.25000  0.89410  1.0000 -0.259668795
N   N30       1.0  0.88350  0.75000  0.60590  1.0000 -0.259668795
N   N31       1.0  0.11650  0.25000  0.39410  1.0000 -0.259668795
N   N32       1.0  0.61650  0.75000  0.10590  1.0000 -0.259668795
N   N33       1.0  0.47460  0.25000  0.00240  1.0000 -0.0904857587
N   N34       1.0  0.97460  0.75000  0.49760  1.0000 -0.0904857587
N   N35       1.0  0.02540  0.25000  0.50240  1.0000 -0.0904857587
N   N36       1.0  0.52540  0.75000  0.99760  1.0000 -0.0904857587
N   N37       1.0  0.47190  0.25000  0.37740  1.0000 -0.1811032422
N   N38       1.0  0.97190  0.75000  0.12260  1.0000 -0.1811032422
N   N39       1.0  0.02810  0.25000  0.87740  1.0000 -0.1811032422
N   N40       1.0  0.52810  0.75000  0.62260  1.0000 -0.1811032422
N   N41       1.0  0.57220  0.25000  0.40610  1.0000 -0.2300407566
N   N42       1.0  0.07220  0.75000  0.09390  1.0000 -0.2300407566
N   N43       1.0  0.92780  0.25000  0.90610  1.0000 -0.2300407566
N   N44       1.0  0.42780  0.75000  0.59390  1.0000 -0.2300407566
N   N45       1.0  0.57740  0.25000  0.27750  1.0000 -0.0669811377
N   N46       1.0  0.07740  0.75000  0.22250  1.0000 -0.0669811377
N   N47       1.0  0.92260  0.25000  0.77750  1.0000 -0.0669811377
N   N48       1.0  0.42260  0.75000  0.72250  1.0000 -0.0669811377
O   O1        1.0  0.89850  0.75000  0.94670  1.0000 -0.6809355743
O   O2        1.0  0.39850  0.25000  0.55330  1.0000 -0.6809355743
O   O3        1.0  0.60150  0.75000  0.44670  1.0000 -0.6809355743
O   O4        1.0  0.10150  0.25000  0.05330  1.0000 -0.6809355743
