# DDEC6 charges by PACMAN v1.1 (https://github.com/mtap-research/PACMAN-charge/)
data_2012[Zn][nan]3[FSR]24
_chemical_formula_sum              "Zn6 H16 C24 N4 O8 F8"
_cell_length_a       11.6977
_cell_length_b       11.6977
_cell_length_c       8.1471
_cell_angle_alpha    75.2658
_cell_angle_beta     104.734
_cell_angle_gamma    109.553

_symmetry_space_group_name_H-M    "P 1"
_symmetry_Int_Tables_number       1

loop_
  _symmetry_equiv_pos_as_xyz
  'x, y, z'

loop_
  _atom_site_type_symbol
  _atom_site_label
  _atom_site_symmetry_multiplicity
  _atom_site_fract_x
  _atom_site_fract_y
  _atom_site_fract_z
  _atom_site_occupancy
  _atom_site_charge
Zn  Zn1       1.0  0.86802  0.86802  0.75000  1.0000 1.0096684305
Zn  Zn2       1.0  0.13198  0.13198  0.25000  1.0000 1.0096684305
Zn  Zn3       1.0  0.92137  0.09977  0.43687  1.0000 0.9614407031
Zn  Zn4       1.0  0.09977  0.92137  0.06313  1.0000 0.9614407031
Zn  Zn5       1.0  0.07863  0.90023  0.56313  1.0000 0.9614407031
Zn  Zn6       1.0  0.90023  0.07863  0.93687  1.0000 0.9614407031
H   H1        1.0  0.31090  0.03510  0.76600  1.0000 0.1303919537
H   H2        1.0  0.03510  0.31090  0.73400  1.0000 0.1303919537
H   H3        1.0  0.68910  0.96490  0.23400  1.0000 0.1303919537
H   H4        1.0  0.96490  0.68910  0.26600  1.0000 0.1303919537
H   H5        1.0  0.25720  0.77040  0.52090  1.0000 0.1088602079
H   H6        1.0  0.77040  0.25720  0.97910  1.0000 0.1088602079
H   H7        1.0  0.74280  0.22960  0.47910  1.0000 0.1088602079
H   H8        1.0  0.22960  0.74280  0.02090  1.0000 0.1088602079
H   H9        1.0  0.46250  0.77990  0.59650  1.0000 0.1404487399
H   H10       1.0  0.77990  0.46250  0.90350  1.0000 0.1404487399
H   H11       1.0  0.53750  0.22010  0.40350  1.0000 0.1404487399
H   H12       1.0  0.22010  0.53750  0.09650  1.0000 0.1404487399
H   H13       1.0  0.51790  0.05490  0.84180  1.0000 0.1303919537
H   H14       1.0  0.05490  0.51790  0.65820  1.0000 0.1303919537
H   H15       1.0  0.48210  0.94510  0.15820  1.0000 0.1303919537
H   H16       1.0  0.94510  0.48210  0.34180  1.0000 0.1303919537
C   C1        1.0  0.34185  0.98355  0.73070  1.0000 0.0936021639
C   C2        1.0  0.98355  0.34185  0.76930  1.0000 0.0936021639
C   C3        1.0  0.65815  0.01645  0.26930  1.0000 0.0936021639
C   C4        1.0  0.01645  0.65815  0.23070  1.0000 0.0936021639
C   C5        1.0  0.31035  0.82765  0.58760  1.0000 0.0816701112
C   C6        1.0  0.82765  0.31035  0.91240  1.0000 0.0816701112
C   C7        1.0  0.68965  0.17235  0.41240  1.0000 0.0816701112
C   C8        1.0  0.17235  0.68965  0.08760  1.0000 0.0816701112
C   C9        1.0  0.43377  0.83303  0.63200  1.0000 -0.159534877
C   C10       1.0  0.83303  0.43377  0.86800  1.0000 -0.159534877
C   C11       1.0  0.56623  0.16697  0.36800  1.0000 -0.159534877
C   C12       1.0  0.16697  0.56623  0.13200  1.0000 -0.159534877
C   C13       1.0  0.46628  0.99532  0.77780  1.0000 -0.159534877
C   C14       1.0  0.99532  0.46628  0.72220  1.0000 -0.159534877
C   C15       1.0  0.53372  0.00468  0.22220  1.0000 -0.159534877
C   C16       1.0  0.00468  0.53372  0.27780  1.0000 -0.159534877
C   C17       1.0  0.51408  0.91832  0.72970  1.0000 0.014133543
C   C18       1.0  0.91832  0.51408  0.77030  1.0000 0.014133543
C   C19       1.0  0.48592  0.08168  0.27030  1.0000 0.014133543
C   C20       1.0  0.08168  0.48592  0.22970  1.0000 0.014133543
C   C21       1.0  0.65117  0.93023  0.78050  1.0000 0.5859131424
C   C22       1.0  0.93023  0.65117  0.71950  1.0000 0.5859131424
C   C23       1.0  0.34883  0.06977  0.21950  1.0000 0.5859131424
C   C24       1.0  0.06977  0.34883  0.28050  1.0000 0.5859131424
N   N1        1.0  0.26368  0.90126  0.63650  1.0000 -0.2254616412
N   N2        1.0  0.90126  0.26368  0.86350  1.0000 -0.2254616412
N   N3        1.0  0.73632  0.09874  0.36350  1.0000 -0.2254616412
N   N4        1.0  0.09874  0.73632  0.13650  1.0000 -0.2254616412
O   O1        1.0  0.68895  0.86267  0.72200  1.0000 -0.5360871943
O   O2        1.0  0.86267  0.68895  0.77800  1.0000 -0.5360871943
O   O3        1.0  0.31105  0.13733  0.27800  1.0000 -0.5360871943
O   O4        1.0  0.13733  0.31105  0.22200  1.0000 -0.5360871943
O   O5        1.0  0.71311  0.00787  0.87530  1.0000 -0.5580936017
O   O6        1.0  0.00787  0.71311  0.62470  1.0000 -0.5580936017
O   O7        1.0  0.28689  0.99213  0.12470  1.0000 -0.5580936017
O   O8        1.0  0.99213  0.28689  0.37530  1.0000 -0.5580936017
F   F1        1.0  0.89116  0.90948  0.50500  1.0000 -0.5360871943
F   F2        1.0  0.90948  0.89116  0.99500  1.0000 -0.5360871943
F   F3        1.0  0.10884  0.09052  0.49500  1.0000 -0.5360871943
F   F4        1.0  0.09052  0.10884  0.00500  1.0000 -0.5360871943
F   F5        1.0  0.91470  0.07444  0.69140  1.0000 -0.5768873485
F   F6        1.0  0.07444  0.91470  0.80860  1.0000 -0.5768873485
F   F7        1.0  0.08530  0.92556  0.30860  1.0000 -0.5768873485
F   F8        1.0  0.92556  0.08530  0.19140  1.0000 -0.5768873485
