# DDEC6 charges by PACMAN v1.1 (https://github.com/mtap-research/PACMAN-charge/)
data_2012[Cd][bcu]3[FSR]2
_chemical_formula_sum              "Cd24 H72 C48 N96 Cl24"
_cell_length_a       18.287
_cell_length_b       18.287
_cell_length_c       18.287
_cell_angle_alpha    105.112
_cell_angle_beta     105.112
_cell_angle_gamma    118.594

_symmetry_space_group_name_H-M    "P 1"
_symmetry_Int_Tables_number       1

loop_
  _symmetry_equiv_pos_as_xyz
  'x, y, z'

loop_
  _atom_site_type_symbol
  _atom_site_label
  _atom_site_symmetry_multiplicity
  _atom_site_fract_x
  _atom_site_fract_y
  _atom_site_fract_z
  _atom_site_occupancy
  _atom_site_charge
Cd  Cd1       1.0  0.42136  0.29889  0.50991  1.0000 0.6585026882
Cd  Cd2       1.0  0.78898  0.91145  0.49009  1.0000 0.6585026882
Cd  Cd3       1.0  0.08855  0.57864  0.87753  1.0000 0.6585026882
Cd  Cd4       1.0  0.70111  0.21102  0.12247  1.0000 0.6585026882
Cd  Cd5       1.0  0.68570  0.47109  0.61727  1.0000 0.7411852978
Cd  Cd6       1.0  0.85382  0.06843  0.38273  1.0000 0.7411852978
Cd  Cd7       1.0  0.93157  0.31430  0.78539  1.0000 0.7411852978
Cd  Cd8       1.0  0.52891  0.14618  0.21461  1.0000 0.7411852978
Cd  Cd9       1.0  0.92877  0.67093  0.79428  1.0000 0.6684274874
Cd  Cd10      1.0  0.87665  0.13449  0.20572  1.0000 0.6684274874
Cd  Cd11      1.0  0.86551  0.07123  0.74216  1.0000 0.6684274874
Cd  Cd12      1.0  0.32907  0.12335  0.25784  1.0000 0.6684274874
Cd  Cd13      1.0  0.07124  0.86533  0.74215  1.0000 0.6684274874
Cd  Cd14      1.0  0.12318  0.32909  0.25785  1.0000 0.6684274874
Cd  Cd15      1.0  0.67091  0.92876  0.79409  1.0000 0.6684274874
Cd  Cd16      1.0  0.13467  0.87682  0.20591  1.0000 0.6684274874
Cd  Cd17      1.0  0.31426  0.93143  0.78529  1.0000 0.7334929607
Cd  Cd18      1.0  0.14614  0.52897  0.21471  1.0000 0.7334929607
Cd  Cd19      1.0  0.47103  0.68574  0.61717  1.0000 0.7334929607
Cd  Cd20      1.0  0.06857  0.85386  0.38283  1.0000 0.7334929607
Cd  Cd21      1.0  0.57856  0.08848  0.87738  1.0000 0.6585026882
Cd  Cd22      1.0  0.21110  0.70118  0.12262  1.0000 0.6585026882
Cd  Cd23      1.0  0.29882  0.42144  0.50992  1.0000 0.6585026882
Cd  Cd24      1.0  0.91152  0.78890  0.49008  1.0000 0.6585026882
H   H1        1.0  0.22690  0.05220  0.56330  1.0000 0.1509468644
H   H2        1.0  0.48890  0.66360  0.43670  1.0000 0.1509468644
H   H3        1.0  0.33640  0.77310  0.82530  1.0000 0.1509468644
H   H4        1.0  0.94780  0.51110  0.17470  1.0000 0.1509468644
H   H5        1.0  0.33620  0.12020  0.60360  1.0000 0.1699407553
H   H6        1.0  0.51660  0.73260  0.39640  1.0000 0.1699407553
H   H7        1.0  0.26740  0.66380  0.78400  1.0000 0.1699407553
H   H8        1.0  0.87980  0.48340  0.21600  1.0000 0.1699407553
H   H9        1.0  0.27580  0.15670  0.58030  1.0000 0.1699407553
H   H10       1.0  0.57640  0.69550  0.41970  1.0000 0.1699407553
H   H11       1.0  0.30450  0.72420  0.88090  1.0000 0.1699407553
H   H12       1.0  0.84330  0.42360  0.11910  1.0000 0.1699407553
H   H13       1.0  0.77800  0.41220  0.49560  1.0000 0.1509468644
H   H14       1.0  0.91660  0.28240  0.50440  1.0000 0.1509468644
H   H15       1.0  0.71760  0.22200  0.63420  1.0000 0.1509468644
H   H16       1.0  0.58780  0.08340  0.36580  1.0000 0.1509468644
H   H17       1.0  0.75180  0.31250  0.44570  1.0000 0.1509468644
H   H18       1.0  0.86680  0.30610  0.55430  1.0000 0.1509468644
H   H19       1.0  0.69390  0.24820  0.56070  1.0000 0.1509468644
H   H20       1.0  0.68750  0.13320  0.43930  1.0000 0.1509468644
H   H21       1.0  0.74640  0.37060  0.39760  1.0000 0.1699407553
H   H22       1.0  0.97300  0.34880  0.60240  1.0000 0.1699407553
H   H23       1.0  0.65120  0.25360  0.62420  1.0000 0.1699407553
H   H24       1.0  0.62940  0.02700  0.37580  1.0000 0.1699407553
H   H25       1.0  0.68510  0.74380  0.63210  1.0000 0.1509468644
H   H26       1.0  0.11170  0.05300  0.36790  1.0000 0.1509468644
H   H27       1.0  0.94700  0.31490  0.05870  1.0000 0.1509468644
H   H28       1.0  0.25620  0.88830  0.94130  1.0000 0.1509468644
H   H29       1.0  0.73500  0.71030  0.68270  1.0000 0.1699407553
H   H30       1.0  0.02760  0.05230  0.31730  1.0000 0.1699407553
H   H31       1.0  0.94770  0.26500  0.97530  1.0000 0.1699407553
H   H32       1.0  0.28970  0.97240  0.02470  1.0000 0.1699407553
H   H33       1.0  0.72340  0.69310  0.59050  1.0000 0.1599202766
H   H34       1.0  0.10260  0.13290  0.40950  1.0000 0.1599202766
H   H35       1.0  0.86710  0.27660  0.96970  1.0000 0.1599202766
H   H36       1.0  0.30690  0.89740  0.03030  1.0000 0.1599202766
H   H37       1.0  0.08510  0.12330  0.86100  1.0000 0.1699407553
H   H38       1.0  0.26230  0.22410  0.13900  1.0000 0.1699407553
H   H39       1.0  0.77590  0.91490  0.03820  1.0000 0.1699407553
H   H40       1.0  0.87670  0.73770  0.96180  1.0000 0.1699407553
H   H41       1.0  0.01880  0.03740  0.87220  1.0000 0.18059002
H   H42       1.0  0.16520  0.14660  0.12780  1.0000 0.18059002
H   H43       1.0  0.85340  0.98120  0.01860  1.0000 0.18059002
H   H44       1.0  0.96260  0.83480  0.98140  1.0000 0.18059002
H   H45       1.0  0.10780  0.05150  0.86510  1.0000 0.1699407553
H   H46       1.0  0.18640  0.24270  0.13490  1.0000 0.1699407553
H   H47       1.0  0.75730  0.89220  0.94370  1.0000 0.1699407553
H   H48       1.0  0.94850  0.81360  0.05630  1.0000 0.1699407553
H   H49       1.0  0.22160  0.72350  0.61590  1.0000 0.1509468644
H   H50       1.0  0.10760  0.60570  0.38410  1.0000 0.1509468644
H   H51       1.0  0.39430  0.77840  0.50190  1.0000 0.1509468644
H   H52       1.0  0.27650  0.89240  0.49810  1.0000 0.1509468644
H   H53       1.0  0.25590  0.67820  0.56170  1.0000 0.1599202766
H   H54       1.0  0.11650  0.69420  0.43830  1.0000 0.1599202766
H   H55       1.0  0.30580  0.74410  0.42230  1.0000 0.1599202766
H   H56       1.0  0.32180  0.88350  0.57770  1.0000 0.1599202766
H   H57       1.0  0.24720  0.65930  0.63890  1.0000 0.1699407553
H   H58       1.0  0.02040  0.60830  0.36110  1.0000 0.1699407553
H   H59       1.0  0.39170  0.75280  0.41210  1.0000 0.1699407553
H   H60       1.0  0.34070  0.97960  0.58790  1.0000 0.1699407553
H   H61       1.0  0.66610  0.27040  0.78130  1.0000 0.1699407553
H   H62       1.0  0.48910  0.88480  0.21870  1.0000 0.1699407553
H   H63       1.0  0.11520  0.33390  0.60430  1.0000 0.1699407553
H   H64       1.0  0.72960  0.51090  0.39570  1.0000 0.1699407553
H   H65       1.0  0.71480  0.29860  0.87820  1.0000 0.1599202766
H   H66       1.0  0.42040  0.83660  0.12180  1.0000 0.1599202766
H   H67       1.0  0.16340  0.28520  0.58380  1.0000 0.1599202766
H   H68       1.0  0.70140  0.57960  0.41620  1.0000 0.1599202766
H   H69       1.0  0.77530  0.34060  0.83370  1.0000 0.1509468644
H   H70       1.0  0.50690  0.94160  0.16630  1.0000 0.1509468644
H   H71       1.0  0.05840  0.22470  0.56530  1.0000 0.1509468644
H   H72       1.0  0.65940  0.49310  0.43470  1.0000 0.1509468644
C   C1        1.0  0.27280  0.07840  0.47980  1.0000 0.3514345042
C   C2        1.0  0.59860  0.79300  0.52020  1.0000 0.3514345042
C   C3        1.0  0.20700  0.72720  0.80560  1.0000 0.3514345042
C   C4        1.0  0.92160  0.40140  0.19440  1.0000 0.3514345042
C   C5        1.0  0.27840  0.10400  0.56380  1.0000 -0.4987128489
C   C6        1.0  0.54020  0.71460  0.43620  1.0000 -0.4987128489
C   C7        1.0  0.28540  0.72160  0.82560  1.0000 -0.4987128489
C   C8        1.0  0.89600  0.45980  0.17440  1.0000 -0.4987128489
C   C9        1.0  0.63380  0.31180  0.42500  1.0000 0.3670058824
C   C10       1.0  0.88680  0.20880  0.57500  1.0000 0.3670058824
C   C11       1.0  0.79120  0.36620  0.67800  1.0000 0.3670058824
C   C12       1.0  0.68820  0.11320  0.32200  1.0000 0.3670058824
C   C13       1.0  0.73750  0.35600  0.44270  1.0000 -0.4987128489
C   C14       1.0  0.91330  0.29480  0.55730  1.0000 -0.4987128489
C   C15       1.0  0.70520  0.26250  0.61850  1.0000 -0.4987128489
C   C16       1.0  0.64400  0.08670  0.38150  1.0000 -0.4987128489
C   C17       1.0  0.60350  0.60440  0.59170  1.0000 0.3670058824
C   C18       1.0  0.01270  0.01180  0.40830  1.0000 0.3670058824
C   C19       1.0  0.98820  0.39650  0.00090  1.0000 0.3670058824
C   C20       1.0  0.39560  0.98730  0.99910  1.0000 0.3670058824
C   C21       1.0  0.69480  0.69600  0.62740  1.0000 -0.5133000263
C   C22       1.0  0.06860  0.06740  0.37260  1.0000 -0.5133000263
C   C23       1.0  0.93260  0.30520  0.00120  1.0000 -0.5133000263
C   C24       1.0  0.30400  0.93140  0.99880  1.0000 -0.5133000263
C   C25       1.0  0.00010  0.99980  0.74750  1.0000 0.3792716391
C   C26       1.0  0.25230  0.25260  0.25250  1.0000 0.3792716391
C   C27       1.0  0.74740  0.99990  0.99970  1.0000 0.3792716391
C   C28       1.0  0.00020  0.74770  0.00030  1.0000 0.3792716391
C   C29       1.0  0.05860  0.05870  0.84590  1.0000 -0.4854128458
C   C30       1.0  0.21280  0.21270  0.15410  1.0000 -0.4854128458
C   C31       1.0  0.78730  0.94140  0.00010  1.0000 -0.4854128458
C   C32       1.0  0.94130  0.78720  0.99990  1.0000 -0.4854128458
C   C33       1.0  0.36480  0.79100  0.67740  1.0000 0.3514345042
C   C34       1.0  0.11360  0.68740  0.32260  1.0000 0.3514345042
C   C35       1.0  0.31260  0.63520  0.42620  1.0000 0.3514345042
C   C36       1.0  0.20900  0.88640  0.57380  1.0000 0.3514345042
C   C37       1.0  0.26280  0.70490  0.61790  1.0000 -0.4987128489
C   C38       1.0  0.08700  0.64490  0.38210  1.0000 -0.4987128489
C   C39       1.0  0.35510  0.73720  0.44210  1.0000 -0.4987128489
C   C40       1.0  0.29510  0.91300  0.55790  1.0000 -0.4987128489
C   C41       1.0  0.72780  0.20780  0.80460  1.0000 0.3567901753
C   C42       1.0  0.40320  0.92320  0.19540  1.0000 0.3567901753
C   C43       1.0  0.07680  0.27220  0.48000  1.0000 0.3567901753
C   C44       1.0  0.79220  0.59680  0.52000  1.0000 0.3567901753
C   C45       1.0  0.72040  0.28610  0.82630  1.0000 -0.4987128489
C   C46       1.0  0.45980  0.89410  0.17370  1.0000 -0.4987128489
C   C47       1.0  0.10590  0.27960  0.56570  1.0000 -0.4987128489
C   C48       1.0  0.71390  0.54020  0.43430  1.0000 -0.4987128489
N   N1        1.0  0.32440  0.13730  0.45310  1.0000 -0.2401586124
N   N2        1.0  0.68420  0.87130  0.54690  1.0000 -0.2401586124
N   N3        1.0  0.12870  0.67560  0.81290  1.0000 -0.2401586124
N   N4        1.0  0.86270  0.31580  0.18710  1.0000 -0.2401586124
N   N5        1.0  0.29520  0.08460  0.37080  1.0000 -0.0495397487
N   N6        1.0  0.71380  0.92440  0.62920  1.0000 -0.0495397487
N   N7        1.0  0.07560  0.70480  0.78940  1.0000 -0.0495397487
N   N8        1.0  0.91540  0.28620  0.21060  1.0000 -0.0495397487
N   N9        1.0  0.22920  0.99670  0.34870  1.0000 -0.0495397487
N   N10       1.0  0.64800  0.88050  0.65130  1.0000 -0.0495397487
N   N11       1.0  0.11950  0.77080  0.76750  1.0000 -0.0495397487
N   N12       1.0  0.00330  0.35200  0.23250  1.0000 -0.0495397487
N   N13       1.0  0.21390  0.99080  0.41590  1.0000 -0.2601251362
N   N14       1.0  0.57490  0.79800  0.58410  1.0000 -0.2601251362
N   N15       1.0  0.20200  0.78610  0.77690  1.0000 -0.2601251362
N   N16       1.0  0.00920  0.42510  0.22310  1.0000 -0.2601251362
N   N17       1.0  0.61080  0.34680  0.48060  1.0000 -0.2601251362
N   N18       1.0  0.86620  0.13020  0.51940  1.0000 -0.2601251362
N   N19       1.0  0.86980  0.38920  0.73600  1.0000 -0.2601251362
N   N20       1.0  0.65320  0.13380  0.26400  1.0000 -0.2601251362
N   N21       1.0  0.51570  0.28960  0.44110  1.0000 -0.0600030929
N   N22       1.0  0.84850  0.07460  0.55890  1.0000 -0.0600030929
N   N23       1.0  0.92540  0.48430  0.77390  1.0000 -0.0600030929
N   N24       1.0  0.71040  0.15150  0.22610  1.0000 -0.0600030929
N   N25       1.0  0.48710  0.22590  0.36660  1.0000 -0.0284492101
N   N26       1.0  0.85930  0.12050  0.63340  1.0000 -0.0249196575
N   N27       1.0  0.87950  0.51290  0.73880  1.0000 -0.0284492101
N   N28       1.0  0.77410  0.14070  0.26120  1.0000 -0.0249196575
N   N29       1.0  0.55760  0.23570  0.35290  1.0000 -0.2493409552
N   N30       1.0  0.88280  0.20470  0.64710  1.0000 -0.2493409552
N   N31       1.0  0.79530  0.44240  0.67810  1.0000 -0.2493409552
N   N32       1.0  0.76430  0.11720  0.32190  1.0000 -0.2493409552
N   N33       1.0  0.59170  0.52140  0.57190  1.0000 -0.2163137891
N   N34       1.0  0.94950  0.01980  0.42810  1.0000 -0.2163137891
N   N35       1.0  0.98020  0.40830  0.92970  1.0000 -0.2163137891
N   N36       1.0  0.47860  0.05050  0.07030  1.0000 -0.2163137891
N   N37       1.0  0.50010  0.45940  0.54150  1.0000 -0.0284492101
N   N38       1.0  0.91790  0.95860  0.45850  1.0000 -0.0284492101
N   N39       1.0  0.04140  0.49990  0.95930  1.0000 -0.0284492101
N   N40       1.0  0.54060  0.08210  0.04070  1.0000 -0.0284492101
N   N41       1.0  0.45890  0.49960  0.54050  1.0000 -0.0284492101
N   N42       1.0  0.95910  0.91840  0.45950  1.0000 -0.0284492101
N   N43       1.0  0.08160  0.54110  0.04070  1.0000 -0.0284492101
N   N44       1.0  0.50040  0.04090  0.95930  1.0000 -0.0284492101
N   N45       1.0  0.52100  0.59100  0.57220  1.0000 -0.2119226479
N   N46       1.0  0.01880  0.94880  0.42780  1.0000 -0.2119226479
N   N47       1.0  0.05120  0.47900  0.07000  1.0000 -0.2119226479
N   N48       1.0  0.40900  0.98120  0.93000  1.0000 -0.2119226479
N   N49       1.0  0.00490  0.93520  0.70030  1.0000 -0.2401586124
N   N50       1.0  0.23490  0.30460  0.29970  1.0000 -0.2401586124
N   N51       1.0  0.69540  0.99510  0.93030  1.0000 -0.2401586124
N   N52       1.0  0.06480  0.76510  0.06970  1.0000 -0.2401586124
N   N53       1.0  0.94000  0.89920  0.62180  1.0000 -0.0411650841
N   N54       1.0  0.27740  0.31820  0.37820  1.0000 -0.0411650841
N   N55       1.0  0.68180  0.06000  0.95920  1.0000 -0.0411650841
N   N56       1.0  0.10080  0.72260  0.04080  1.0000 -0.0411650841
N   N57       1.0  0.89980  0.94060  0.62100  1.0000 -0.0495397487
N   N58       1.0  0.31960  0.27880  0.37900  1.0000 -0.0495397487
N   N59       1.0  0.72120  0.10020  0.04080  1.0000 -0.0495397487
N   N60       1.0  0.05940  0.68040  0.95920  1.0000 -0.0495397487
N   N61       1.0  0.93700  0.00670  0.70190  1.0000 -0.2493409552
N   N62       1.0  0.30480  0.23510  0.29810  1.0000 -0.2601251362
N   N63       1.0  0.76490  0.06300  0.06970  1.0000 -0.2601251362
N   N64       1.0  0.99330  0.69520  0.93030  1.0000 -0.2601251362
N   N65       1.0  0.39040  0.87030  0.73630  1.0000 -0.2401586124
N   N66       1.0  0.13400  0.65410  0.26370  1.0000 -0.2401586124
N   N67       1.0  0.34590  0.60960  0.47990  1.0000 -0.2401586124
N   N68       1.0  0.12970  0.86600  0.52010  1.0000 -0.2401586124
N   N69       1.0  0.48300  0.92440  0.77360  1.0000 -0.0495397487
N   N70       1.0  0.15080  0.70940  0.22640  1.0000 -0.0495397487
N   N71       1.0  0.29060  0.51700  0.44140  1.0000 -0.0495397487
N   N72       1.0  0.07560  0.84920  0.55860  1.0000 -0.0495397487
N   N73       1.0  0.51330  0.87890  0.73860  1.0000 -0.0284492101
N   N74       1.0  0.14030  0.77470  0.26140  1.0000 -0.0284492101
N   N75       1.0  0.22530  0.48670  0.36560  1.0000 -0.0284492101
N   N76       1.0  0.12110  0.85970  0.63440  1.0000 -0.0284492101
N   N77       1.0  0.44130  0.79540  0.67750  1.0000 -0.2312041786
N   N78       1.0  0.11790  0.76380  0.32250  1.0000 -0.2312041786
N   N79       1.0  0.23620  0.55870  0.35410  1.0000 -0.2312041786
N   N80       1.0  0.20460  0.88210  0.64590  1.0000 -0.2312041786
N   N81       1.0  0.67510  0.12840  0.81330  1.0000 -0.2312041786
N   N82       1.0  0.31510  0.86180  0.18670  1.0000 -0.2312041786
N   N83       1.0  0.13820  0.32490  0.45330  1.0000 -0.2312041786
N   N84       1.0  0.87160  0.68490  0.54670  1.0000 -0.2312041786
N   N85       1.0  0.70480  0.07610  0.79050  1.0000 -0.0495397487
N   N86       1.0  0.28560  0.91430  0.20950  1.0000 -0.0495397487
N   N87       1.0  0.08570  0.29520  0.37130  1.0000 -0.0495397487
N   N88       1.0  0.92390  0.71440  0.62870  1.0000 -0.0495397487
N   N89       1.0  0.77200  0.11990  0.76810  1.0000 -0.0702343084
N   N90       1.0  0.35180  0.00390  0.23190  1.0000 -0.0702343084
N   N91       1.0  0.99610  0.22800  0.34790  1.0000 -0.0702343084
N   N92       1.0  0.88010  0.64820  0.65210  1.0000 -0.0702343084
N   N93       1.0  0.78600  0.20230  0.77730  1.0000 -0.2601251362
N   N94       1.0  0.42500  0.00870  0.22270  1.0000 -0.2601251362
N   N95       1.0  0.99130  0.21400  0.41630  1.0000 -0.2601251362
N   N96       1.0  0.79770  0.57500  0.58370  1.0000 -0.2601251362
Cl  Cl1       1.0  0.55745  0.34630  0.64155  1.0000 -0.478287118
Cl  Cl2       1.0  0.70475  0.91590  0.35845  1.0000 -0.478287118
Cl  Cl3       1.0  0.08410  0.44255  0.78885  1.0000 -0.478287118
Cl  Cl4       1.0  0.65370  0.29525  0.21115  1.0000 -0.478287118
Cl  Cl5       1.0  0.76080  0.60236  0.76716  1.0000 -0.4413378754
Cl  Cl6       1.0  0.83520  0.99364  0.23284  1.0000 -0.4413378754
Cl  Cl7       1.0  0.00636  0.23920  0.84156  1.0000 -0.4413378754
Cl  Cl8       1.0  0.39764  0.16480  0.15844  1.0000 -0.4413378754
Cl  Cl9       1.0  0.00020  0.84397  0.84397  1.0000 -0.4987128489
Cl  Cl10      1.0  0.00000  0.15623  0.15603  1.0000 -0.4987128489
Cl  Cl11      1.0  0.84377  0.99980  0.84377  1.0000 -0.4987128489
Cl  Cl12      1.0  0.15603  0.00000  0.15623  1.0000 -0.4987128489
Cl  Cl13      1.0  0.23920  0.00644  0.84144  1.0000 -0.4413378754
Cl  Cl14      1.0  0.16500  0.39776  0.15856  1.0000 -0.4452932873
Cl  Cl15      1.0  0.60224  0.76080  0.76724  1.0000 -0.4452932873
Cl  Cl16      1.0  0.99356  0.83500  0.23276  1.0000 -0.4452932873
Cl  Cl17      1.0  0.44243  0.08380  0.78843  1.0000 -0.478287118
Cl  Cl18      1.0  0.29537  0.65400  0.21157  1.0000 -0.478287118
Cl  Cl19      1.0  0.34600  0.55757  0.64137  1.0000 -0.478287118
Cl  Cl20      1.0  0.91620  0.70463  0.35863  1.0000 -0.478287118
Cl  Cl21      1.0  0.68091  0.25412  0.99989  1.0000 -0.4631462344
Cl  Cl22      1.0  0.25423  0.68102  0.00011  1.0000 -0.4631462344
Cl  Cl23      1.0  0.31898  0.31909  0.57321  1.0000 -0.4631462344
Cl  Cl24      1.0  0.74588  0.74577  0.42679  1.0000 -0.4631462344
