# DDEC6 charges by PACMAN v1.1 (https://github.com/mtap-research/PACMAN-charge/)
data_2012[Er][nan]3[FSR]2
_chemical_formula_sum              "Er8 H80 C136 O72"
_cell_length_a       10.6914
_cell_length_b       15.734
_cell_length_c       23.326
_cell_angle_alpha    90
_cell_angle_beta     90
_cell_angle_gamma    90

_symmetry_space_group_name_H-M    "P 1"
_symmetry_Int_Tables_number       1

loop_
  _symmetry_equiv_pos_as_xyz
  'x, y, z'

loop_
  _atom_site_type_symbol
  _atom_site_label
  _atom_site_symmetry_multiplicity
  _atom_site_fract_x
  _atom_site_fract_y
  _atom_site_fract_z
  _atom_site_occupancy
  _atom_site_charge
Er  Er1       1.0  0.96912  0.54764  0.91594  1.0000 2.0792472155
Er  Er2       1.0  0.53088  0.95236  0.41594  1.0000 2.0792472155
Er  Er3       1.0  0.96912  0.45236  0.58406  1.0000 2.0792472155
Er  Er4       1.0  0.53088  0.04764  0.08406  1.0000 2.0792472155
Er  Er5       1.0  0.03088  0.45236  0.08406  1.0000 2.0792472155
Er  Er6       1.0  0.46912  0.04764  0.58406  1.0000 2.0792472155
Er  Er7       1.0  0.03088  0.54764  0.41594  1.0000 2.0792472155
Er  Er8       1.0  0.46912  0.95236  0.91594  1.0000 2.0792472155
H   H1        1.0  0.14900  0.65500  0.85400  1.0000 0.3348151983
H   H2        1.0  0.35100  0.84500  0.35400  1.0000 0.3348151983
H   H3        1.0  0.14900  0.34500  0.64600  1.0000 0.3348151983
H   H4        1.0  0.35100  0.15500  0.14600  1.0000 0.3348151983
H   H5        1.0  0.85100  0.34500  0.14600  1.0000 0.3348151983
H   H6        1.0  0.64900  0.15500  0.64600  1.0000 0.3348151983
H   H7        1.0  0.85100  0.65500  0.35400  1.0000 0.3348151983
H   H8        1.0  0.64900  0.84500  0.85400  1.0000 0.3348151983
H   H9        1.0  0.12500  0.59600  0.82200  1.0000 0.3179805444
H   H10       1.0  0.37500  0.90400  0.32200  1.0000 0.3179805444
H   H11       1.0  0.12500  0.40400  0.67800  1.0000 0.3179805444
H   H12       1.0  0.37500  0.09600  0.17800  1.0000 0.3179805444
H   H13       1.0  0.87500  0.40400  0.17800  1.0000 0.3179805444
H   H14       1.0  0.62500  0.09600  0.67800  1.0000 0.3179805444
H   H15       1.0  0.87500  0.59600  0.32200  1.0000 0.3179805444
H   H16       1.0  0.62500  0.90400  0.82200  1.0000 0.3179805444
H   H17       1.0  0.59550  0.39900  0.84870  1.0000 0.1512311613
H   H18       1.0  0.90450  0.10100  0.34870  1.0000 0.1512311613
H   H19       1.0  0.59550  0.60100  0.65130  1.0000 0.1512311613
H   H20       1.0  0.90450  0.89900  0.15130  1.0000 0.1512311613
H   H21       1.0  0.40450  0.60100  0.15130  1.0000 0.1512311613
H   H22       1.0  0.09550  0.89900  0.65130  1.0000 0.1512311613
H   H23       1.0  0.40450  0.39900  0.34870  1.0000 0.1512311613
H   H24       1.0  0.09550  0.10100  0.84870  1.0000 0.1512311613
H   H25       1.0  0.55760  0.27150  0.69960  1.0000 0.1374002718
H   H26       1.0  0.94240  0.22850  0.19960  1.0000 0.1374002718
H   H27       1.0  0.55760  0.72850  0.80040  1.0000 0.1374002718
H   H28       1.0  0.94240  0.77150  0.30040  1.0000 0.1374002718
H   H29       1.0  0.44240  0.72850  0.30040  1.0000 0.1374002718
H   H30       1.0  0.05760  0.77150  0.80040  1.0000 0.1374002718
H   H31       1.0  0.44240  0.27150  0.19960  1.0000 0.1374002718
H   H32       1.0  0.05760  0.22850  0.69960  1.0000 0.1374002718
H   H33       1.0  0.87750  0.40170  0.73270  1.0000 0.1321656628
H   H34       1.0  0.62250  0.09830  0.23270  1.0000 0.1321656628
H   H35       1.0  0.87750  0.59830  0.76730  1.0000 0.1321656628
H   H36       1.0  0.62250  0.90170  0.26730  1.0000 0.1321656628
H   H37       1.0  0.12250  0.59830  0.26730  1.0000 0.1321656628
H   H38       1.0  0.37750  0.90170  0.76730  1.0000 0.1321656628
H   H39       1.0  0.12250  0.40170  0.23270  1.0000 0.1321656628
H   H40       1.0  0.37750  0.09830  0.73270  1.0000 0.1321656628
H   H41       1.0  0.40460  0.25130  0.77430  1.0000 0.1321656628
H   H42       1.0  0.09540  0.24870  0.27430  1.0000 0.1321656628
H   H43       1.0  0.40460  0.74870  0.72570  1.0000 0.1321656628
H   H44       1.0  0.09540  0.75130  0.22570  1.0000 0.1321656628
H   H45       1.0  0.59540  0.74870  0.22570  1.0000 0.1321656628
H   H46       1.0  0.90460  0.75130  0.72570  1.0000 0.1321656628
H   H47       1.0  0.59540  0.25130  0.27430  1.0000 0.1321656628
H   H48       1.0  0.90460  0.24870  0.77430  1.0000 0.1321656628
H   H49       1.0  0.36480  0.34910  0.77270  1.0000 0.1374002718
H   H50       1.0  0.13520  0.15090  0.27270  1.0000 0.1374002718
H   H51       1.0  0.36480  0.65090  0.72730  1.0000 0.1374002718
H   H52       1.0  0.13520  0.84910  0.22730  1.0000 0.1374002718
H   H53       1.0  0.63520  0.65090  0.22730  1.0000 0.1374002718
H   H54       1.0  0.86480  0.84910  0.72730  1.0000 0.1374002718
H   H55       1.0  0.63520  0.34910  0.27270  1.0000 0.1374002718
H   H56       1.0  0.86480  0.15090  0.77270  1.0000 0.1374002718
H   H57       1.0  0.47230  0.18930  0.87030  1.0000 0.1374002718
H   H58       1.0  0.02770  0.31070  0.37030  1.0000 0.1374002718
H   H59       1.0  0.47230  0.81070  0.62970  1.0000 0.1374002718
H   H60       1.0  0.02770  0.68930  0.12970  1.0000 0.1374002718
H   H61       1.0  0.52770  0.81070  0.12970  1.0000 0.1374002718
H   H62       1.0  0.97230  0.68930  0.62970  1.0000 0.1374002718
H   H63       1.0  0.52770  0.18930  0.37030  1.0000 0.1374002718
H   H64       1.0  0.97230  0.31070  0.87030  1.0000 0.1374002718
H   H65       1.0  0.31090  0.29460  0.01070  1.0000 0.1614357919
H   H66       1.0  0.18910  0.20540  0.51070  1.0000 0.1614357919
H   H67       1.0  0.31090  0.70540  0.48930  1.0000 0.1614357919
H   H68       1.0  0.18910  0.79460  0.98930  1.0000 0.1614357919
H   H69       1.0  0.68910  0.70540  0.98930  1.0000 0.1614357919
H   H70       1.0  0.81090  0.79460  0.48930  1.0000 0.1614357919
H   H71       1.0  0.68910  0.29460  0.51070  1.0000 0.1614357919
H   H72       1.0  0.81090  0.20540  0.01070  1.0000 0.1614357919
H   H73       1.0  0.29300  0.41520  0.85800  1.0000 0.1374002718
H   H74       1.0  0.20700  0.08480  0.35800  1.0000 0.1374002718
H   H75       1.0  0.29300  0.58480  0.64200  1.0000 0.1374002718
H   H76       1.0  0.20700  0.91520  0.14200  1.0000 0.1374002718
H   H77       1.0  0.70700  0.58480  0.14200  1.0000 0.1374002718
H   H78       1.0  0.79300  0.91520  0.64200  1.0000 0.1374002718
H   H79       1.0  0.70700  0.41520  0.35800  1.0000 0.1374002718
H   H80       1.0  0.79300  0.08480  0.85800  1.0000 0.1321656628
C   C1        1.0  0.74920  0.40580  0.79719  1.0000 0.0157381634
C   C2        1.0  0.75080  0.09420  0.29719  1.0000 0.0157381634
C   C3        1.0  0.74920  0.59420  0.70281  1.0000 0.0157381634
C   C4        1.0  0.75080  0.90580  0.20281  1.0000 0.0157381634
C   C5        1.0  0.25080  0.59420  0.20281  1.0000 0.0157381634
C   C6        1.0  0.24920  0.90580  0.70281  1.0000 0.0157381634
C   C7        1.0  0.25080  0.40580  0.29719  1.0000 0.0157381634
C   C8        1.0  0.24920  0.09420  0.79719  1.0000 0.0157381634
C   C9        1.0  0.62830  0.38150  0.81268  1.0000 -0.1492553011
C   C10       1.0  0.87170  0.11850  0.31268  1.0000 -0.1492553011
C   C11       1.0  0.62830  0.61850  0.68732  1.0000 -0.1492553011
C   C12       1.0  0.87170  0.88150  0.18732  1.0000 -0.1492553011
C   C13       1.0  0.37170  0.61850  0.18732  1.0000 -0.1492553011
C   C14       1.0  0.12830  0.88150  0.68732  1.0000 -0.1492553011
C   C15       1.0  0.37170  0.38150  0.31268  1.0000 -0.1492553011
C   C16       1.0  0.12830  0.11850  0.81268  1.0000 -0.1492553011
C   C17       1.0  0.55520  0.33240  0.77658  1.0000 0.1512311613
C   C18       1.0  0.94480  0.16760  0.27658  1.0000 0.1512311613
C   C19       1.0  0.55520  0.66760  0.72342  1.0000 0.1512311613
C   C20       1.0  0.94480  0.83240  0.22342  1.0000 0.1512311613
C   C21       1.0  0.44480  0.66760  0.22342  1.0000 0.1512311613
C   C22       1.0  0.05520  0.83240  0.72342  1.0000 0.1512311613
C   C23       1.0  0.44480  0.33240  0.27658  1.0000 0.1512311613
C   C24       1.0  0.05520  0.16760  0.77658  1.0000 0.1512311613
C   C25       1.0  0.60510  0.30730  0.72410  1.0000 -0.1724438875
C   C26       1.0  0.89490  0.19270  0.22410  1.0000 -0.1724438875
C   C27       1.0  0.60510  0.69270  0.77590  1.0000 -0.1724438875
C   C28       1.0  0.89490  0.80730  0.27590  1.0000 -0.1724438875
C   C29       1.0  0.39490  0.69270  0.27590  1.0000 -0.1724438875
C   C30       1.0  0.10510  0.80730  0.77590  1.0000 -0.1724438875
C   C31       1.0  0.39490  0.30730  0.22410  1.0000 -0.1724438875
C   C32       1.0  0.10510  0.19270  0.72410  1.0000 -0.1724438875
C   C33       1.0  0.72380  0.33400  0.70685  1.0000 -0.0073815574
C   C34       1.0  0.77620  0.16600  0.20685  1.0000 -0.0073815574
C   C35       1.0  0.72380  0.66600  0.79315  1.0000 -0.0073815574
C   C36       1.0  0.77620  0.83400  0.29315  1.0000 -0.0073815574
C   C37       1.0  0.27620  0.66600  0.29315  1.0000 -0.0073815574
C   C38       1.0  0.22380  0.83400  0.79315  1.0000 -0.0073815574
C   C39       1.0  0.27620  0.33400  0.20685  1.0000 -0.0073815574
C   C40       1.0  0.22380  0.16600  0.70685  1.0000 -0.0073815574
C   C41       1.0  0.79640  0.38350  0.74392  1.0000 -0.1225890725
C   C42       1.0  0.70360  0.11650  0.24392  1.0000 -0.1225890725
C   C43       1.0  0.79640  0.61650  0.75608  1.0000 -0.1225890725
C   C44       1.0  0.70360  0.88350  0.25608  1.0000 -0.1225890725
C   C45       1.0  0.20360  0.61650  0.25608  1.0000 -0.1225890725
C   C46       1.0  0.29640  0.88350  0.75608  1.0000 -0.1225890725
C   C47       1.0  0.20360  0.38350  0.24392  1.0000 -0.1225890725
C   C48       1.0  0.29640  0.11650  0.74392  1.0000 -0.1225890725
C   C49       1.0  0.42190  0.30780  0.79125  1.0000 -0.315656802
C   C50       1.0  0.07810  0.19220  0.29125  1.0000 -0.315656802
C   C51       1.0  0.42190  0.69220  0.70875  1.0000 -0.315656802
C   C52       1.0  0.07810  0.80780  0.20875  1.0000 -0.315656802
C   C53       1.0  0.57810  0.69220  0.20875  1.0000 -0.315656802
C   C54       1.0  0.92190  0.80780  0.70875  1.0000 -0.315656802
C   C55       1.0  0.57810  0.30780  0.29125  1.0000 -0.315656802
C   C56       1.0  0.92190  0.19220  0.79125  1.0000 -0.315656802
C   C57       1.0  0.39040  0.30410  0.85427  1.0000 0.1512311613
C   C58       1.0  0.10960  0.19590  0.35427  1.0000 0.1512311613
C   C59       1.0  0.39040  0.69590  0.64573  1.0000 0.1512311613
C   C60       1.0  0.10960  0.80410  0.14573  1.0000 0.1512311613
C   C61       1.0  0.60960  0.69590  0.14573  1.0000 0.1512311613
C   C62       1.0  0.89040  0.80410  0.64573  1.0000 0.1512311613
C   C63       1.0  0.60960  0.30410  0.35427  1.0000 0.1512311613
C   C64       1.0  0.89040  0.19590  0.85427  1.0000 0.1512311613
C   C65       1.0  0.42680  0.23450  0.88757  1.0000 -0.1492553011
C   C66       1.0  0.07320  0.26550  0.38757  1.0000 -0.1492553011
C   C67       1.0  0.42680  0.76550  0.61243  1.0000 -0.1492553011
C   C68       1.0  0.07320  0.73450  0.11243  1.0000 -0.1492553011
C   C69       1.0  0.57320  0.76550  0.11243  1.0000 -0.1492553011
C   C70       1.0  0.92680  0.73450  0.61243  1.0000 -0.1492553011
C   C71       1.0  0.57320  0.23450  0.38757  1.0000 -0.1492553011
C   C72       1.0  0.92680  0.26550  0.88757  1.0000 -0.1492553011
C   C73       1.0  0.39750  0.23030  0.94548  1.0000 0.008408369
C   C74       1.0  0.10250  0.26970  0.44548  1.0000 0.008408369
C   C75       1.0  0.39750  0.76970  0.55452  1.0000 0.008408369
C   C76       1.0  0.10250  0.73030  0.05452  1.0000 0.008408369
C   C77       1.0  0.60250  0.76970  0.05452  1.0000 0.008408369
C   C78       1.0  0.89750  0.73030  0.55452  1.0000 0.008408369
C   C79       1.0  0.60250  0.23030  0.44548  1.0000 0.008408369
C   C80       1.0  0.89750  0.26970  0.94548  1.0000 0.008408369
C   C81       1.0  0.32930  0.29640  0.97091  1.0000 -0.0893335923
C   C82       1.0  0.17070  0.20360  0.47091  1.0000 -0.0893335923
C   C83       1.0  0.32930  0.70360  0.52909  1.0000 -0.0893335923
C   C84       1.0  0.17070  0.79640  0.02909  1.0000 -0.0893335923
C   C85       1.0  0.67070  0.70360  0.02909  1.0000 -0.0893335923
C   C86       1.0  0.82930  0.79640  0.52909  1.0000 -0.0893335923
C   C87       1.0  0.67070  0.29640  0.47091  1.0000 -0.0893335923
C   C88       1.0  0.82930  0.20360  0.97091  1.0000 -0.0893335923
C   C89       1.0  0.28870  0.36430  0.93789  1.0000 -0.0073815574
C   C90       1.0  0.21130  0.13570  0.43789  1.0000 -0.0073815574
C   C91       1.0  0.28870  0.63570  0.56211  1.0000 -0.0073815574
C   C92       1.0  0.21130  0.86430  0.06211  1.0000 -0.0073815574
C   C93       1.0  0.71130  0.63570  0.06211  1.0000 -0.0073815574
C   C94       1.0  0.78870  0.86430  0.56211  1.0000 -0.0073815574
C   C95       1.0  0.71130  0.36430  0.43789  1.0000 -0.0073815574
C   C96       1.0  0.78870  0.13570  0.93789  1.0000 -0.0073815574
C   C97       1.0  0.32000  0.36810  0.88024  1.0000 -0.1589660741
C   C98       1.0  0.18000  0.13190  0.38024  1.0000 -0.1589660741
C   C99       1.0  0.32000  0.63190  0.61976  1.0000 -0.1589660741
C   C100      1.0  0.18000  0.86810  0.11976  1.0000 -0.1589660741
C   C101      1.0  0.68000  0.63190  0.11976  1.0000 -0.1589660741
C   C102      1.0  0.82000  0.86810  0.61976  1.0000 -0.1589660741
C   C103      1.0  0.68000  0.36810  0.38024  1.0000 -0.1589660741
C   C104      1.0  0.82000  0.13190  0.88024  1.0000 -0.1589660741
C   C105      1.0  0.82500  0.45680  0.83885  1.0000 0.5518600212
C   C106      1.0  0.67500  0.04320  0.33885  1.0000 0.5518600212
C   C107      1.0  0.82500  0.54320  0.66115  1.0000 0.5518600212
C   C108      1.0  0.67500  0.95680  0.16115  1.0000 0.5518600212
C   C109      1.0  0.17500  0.54320  0.16115  1.0000 0.5518600212
C   C110      1.0  0.32500  0.95680  0.66115  1.0000 0.5518600212
C   C111      1.0  0.17500  0.45680  0.33885  1.0000 0.5518600212
C   C112      1.0  0.32500  0.04320  0.83885  1.0000 0.5518600212
C   C113      1.0  0.77680  0.30860  0.64952  1.0000 0.6070575879
C   C114      1.0  0.72320  0.19140  0.14952  1.0000 0.6070575879
C   C115      1.0  0.77680  0.69140  0.85048  1.0000 0.6070575879
C   C116      1.0  0.72320  0.80860  0.35048  1.0000 0.6070575879
C   C117      1.0  0.22320  0.69140  0.35048  1.0000 0.6070575879
C   C118      1.0  0.27680  0.80860  0.85048  1.0000 0.6070575879
C   C119      1.0  0.22320  0.30860  0.14952  1.0000 0.6070575879
C   C120      1.0  0.27680  0.19140  0.64952  1.0000 0.6070575879
C   C121      1.0  0.43330  0.15540  0.98145  1.0000 0.6415522487
C   C122      1.0  0.06670  0.34460  0.48145  1.0000 0.6415522487
C   C123      1.0  0.43330  0.84460  0.51855  1.0000 0.6415522487
C   C124      1.0  0.06670  0.65540  0.01855  1.0000 0.6415522487
C   C125      1.0  0.56670  0.84460  0.01855  1.0000 0.6415522487
C   C126      1.0  0.93330  0.65540  0.51855  1.0000 0.6415522487
C   C127      1.0  0.56670  0.15540  0.48145  1.0000 0.6415522487
C   C128      1.0  0.93330  0.34460  0.98145  1.0000 0.6415522487
C   C129      1.0  0.20590  0.43050  0.96519  1.0000 0.6639399619
C   C130      1.0  0.29410  0.06950  0.46519  1.0000 0.6639399619
C   C131      1.0  0.20590  0.56950  0.53481  1.0000 0.6639399619
C   C132      1.0  0.29410  0.93050  0.03481  1.0000 0.6639399619
C   C133      1.0  0.79410  0.56950  0.03481  1.0000 0.6639399619
C   C134      1.0  0.70590  0.93050  0.53481  1.0000 0.6639399619
C   C135      1.0  0.79410  0.43050  0.46519  1.0000 0.6639399619
C   C136      1.0  0.70590  0.06950  0.96519  1.0000 0.6639399619
O   O1        1.0  0.94220  0.46542  0.83083  1.0000 -0.6405820458
O   O2        1.0  0.55780  0.03458  0.33083  1.0000 -0.6405820458
O   O3        1.0  0.94220  0.53458  0.66917  1.0000 -0.6405820458
O   O4        1.0  0.55780  0.96542  0.16917  1.0000 -0.6405820458
O   O5        1.0  0.05780  0.53458  0.16917  1.0000 -0.6405820458
O   O6        1.0  0.44220  0.96542  0.66917  1.0000 -0.6405820458
O   O7        1.0  0.05780  0.46542  0.33083  1.0000 -0.6405820458
O   O8        1.0  0.44220  0.03458  0.83083  1.0000 -0.6405820458
O   O9        1.0  0.77240  0.49034  0.88062  1.0000 -0.5412073939
O   O10       1.0  0.72760  0.00966  0.38062  1.0000 -0.5412073939
O   O11       1.0  0.77240  0.50966  0.61938  1.0000 -0.5412073939
O   O12       1.0  0.72760  0.99034  0.11938  1.0000 -0.5412073939
O   O13       1.0  0.22760  0.50966  0.11938  1.0000 -0.5412073939
O   O14       1.0  0.27240  0.99034  0.61938  1.0000 -0.5412073939
O   O15       1.0  0.22760  0.49034  0.38062  1.0000 -0.5412073939
O   O16       1.0  0.27240  0.00966  0.88062  1.0000 -0.5412073939
O   O17       1.0  0.87630  0.34284  0.63298  1.0000 -0.6461704879
O   O18       1.0  0.62370  0.15716  0.13298  1.0000 -0.6461704879
O   O19       1.0  0.87630  0.65716  0.86702  1.0000 -0.6461704879
O   O20       1.0  0.62370  0.84284  0.36702  1.0000 -0.6461704879
O   O21       1.0  0.12370  0.65716  0.36702  1.0000 -0.6461704879
O   O22       1.0  0.37630  0.84284  0.86702  1.0000 -0.6461704879
O   O23       1.0  0.12370  0.34284  0.13298  1.0000 -0.6461704879
O   O24       1.0  0.37630  0.15716  0.63298  1.0000 -0.6461704879
O   O25       1.0  0.72170  0.25310  0.62069  1.0000 -0.4932313173
O   O26       1.0  0.77830  0.24690  0.12069  1.0000 -0.4932313173
O   O27       1.0  0.72170  0.74690  0.87931  1.0000 -0.4932313173
O   O28       1.0  0.77830  0.75310  0.37931  1.0000 -0.4932313173
O   O29       1.0  0.27830  0.74690  0.37931  1.0000 -0.4932313173
O   O30       1.0  0.22170  0.75310  0.87931  1.0000 -0.4932313173
O   O31       1.0  0.27830  0.25310  0.12069  1.0000 -0.4932313173
O   O32       1.0  0.22170  0.24690  0.62069  1.0000 -0.4932313173
O   O33       1.0  0.44870  0.16739  0.03481  1.0000 -0.6094918756
O   O34       1.0  0.05130  0.33261  0.53481  1.0000 -0.6094918756
O   O35       1.0  0.44870  0.83261  0.46519  1.0000 -0.6094918756
O   O36       1.0  0.05130  0.66739  0.96519  1.0000 -0.6094918756
O   O37       1.0  0.55130  0.83261  0.96519  1.0000 -0.6094918756
O   O38       1.0  0.94870  0.66739  0.46519  1.0000 -0.6094918756
O   O39       1.0  0.55130  0.16739  0.53481  1.0000 -0.6094918756
O   O40       1.0  0.94870  0.33261  0.03481  1.0000 -0.6094918756
O   O41       1.0  0.44620  0.08431  0.95825  1.0000 -0.6749763696
O   O42       1.0  0.05380  0.41569  0.45825  1.0000 -0.6753059833
O   O43       1.0  0.44620  0.91569  0.54175  1.0000 -0.6749763696
O   O44       1.0  0.05380  0.58431  0.04175  1.0000 -0.6753059833
O   O45       1.0  0.55380  0.91569  0.04175  1.0000 -0.6749763696
O   O46       1.0  0.94620  0.58431  0.54175  1.0000 -0.6749763696
O   O47       1.0  0.55380  0.08431  0.45825  1.0000 -0.6749763696
O   O48       1.0  0.94620  0.41569  0.95825  1.0000 -0.6749763696
O   O49       1.0  0.18070  0.42042  0.01734  1.0000 -0.6265279561
O   O50       1.0  0.31930  0.07958  0.51734  1.0000 -0.6265279561
O   O51       1.0  0.18070  0.57958  0.48266  1.0000 -0.6265279561
O   O52       1.0  0.31930  0.92042  0.98266  1.0000 -0.6265279561
O   O53       1.0  0.81930  0.57958  0.98266  1.0000 -0.6265279561
O   O54       1.0  0.68070  0.92042  0.48266  1.0000 -0.6265279561
O   O55       1.0  0.81930  0.42042  0.51734  1.0000 -0.6265279561
O   O56       1.0  0.68070  0.07958  0.01734  1.0000 -0.6265279561
O   O57       1.0  0.16660  0.49010  0.93376  1.0000 -0.6405820458
O   O58       1.0  0.33340  0.00990  0.43376  1.0000 -0.6405820458
O   O59       1.0  0.16660  0.50990  0.56624  1.0000 -0.6405820458
O   O60       1.0  0.33340  0.99010  0.06624  1.0000 -0.6405820458
O   O61       1.0  0.83340  0.50990  0.06624  1.0000 -0.6405820458
O   O62       1.0  0.66667  0.99010  0.56624  1.0000 -0.6405820458
O   O63       1.0  0.83340  0.49010  0.43376  1.0000 -0.6405820458
O   O64       1.0  0.66667  0.00990  0.93376  1.0000 -0.6405820458
O   O65       1.0  0.11820  0.60490  0.85090  1.0000 -0.6038916319
O   O66       1.0  0.38180  0.89510  0.35090  1.0000 -0.6038916319
O   O67       1.0  0.11820  0.39510  0.64910  1.0000 -0.6038916319
O   O68       1.0  0.38180  0.10490  0.14910  1.0000 -0.6038916319
O   O69       1.0  0.88180  0.39510  0.14910  1.0000 -0.6038916319
O   O70       1.0  0.61820  0.10490  0.64910  1.0000 -0.6038916319
O   O71       1.0  0.88180  0.60490  0.35090  1.0000 -0.6038916319
O   O72       1.0  0.61820  0.89510  0.85090  1.0000 -0.6038916319
