# DDEC6 charges by PACMAN v1.1 (https://github.com/mtap-research/PACMAN-charge/)
data_2012[Eu][nan]3[FSR]1
_chemical_formula_sum              "Eu2 H40 C52 O19"
_cell_length_a       16.7754
_cell_length_b       16.7754
_cell_length_c       14.5399
_cell_angle_alpha    75.8811
_cell_angle_beta     104.119
_cell_angle_gamma    155.534

_symmetry_space_group_name_H-M    "P 1"
_symmetry_Int_Tables_number       1

loop_
  _symmetry_equiv_pos_as_xyz
  'x, y, z'

loop_
  _atom_site_type_symbol
  _atom_site_label
  _atom_site_symmetry_multiplicity
  _atom_site_fract_x
  _atom_site_fract_y
  _atom_site_fract_z
  _atom_site_occupancy
  _atom_site_charge
Eu  Eu1       1.0  0.99349  0.49093  0.96882  1.0000 2.044572472
Eu  Eu2       1.0  0.49093  0.99349  0.03118  1.0000 2.044572472
H   H1        1.0  0.81300  0.71260  0.52700  1.0000 0.100490858
H   H2        1.0  0.71260  0.81300  0.47300  1.0000 0.100490858
H   H3        1.0  0.72330  0.69030  0.43380  1.0000 0.0926136518
H   H4        1.0  0.69030  0.72330  0.56620  1.0000 0.0926136518
H   H5        1.0  0.22400  0.11020  0.49500  1.0000 0.100490858
H   H6        1.0  0.11020  0.22400  0.50500  1.0000 0.100490858
H   H7        1.0  0.26090  0.08510  0.42820  1.0000 0.100490858
H   H8        1.0  0.08510  0.26090  0.57180  1.0000 0.100490858
H   H9        1.0  0.75620  0.62400  0.34560  1.0000 0.100490858
H   H10       1.0  0.62400  0.75620  0.65440  1.0000 0.100490858
H   H11       1.0  0.84580  0.64000  0.43400  1.0000 0.100490858
H   H12       1.0  0.64000  0.84580  0.56600  1.0000 0.100490858
H   H13       1.0  0.11810  0.04750  0.28760  1.0000 0.100490858
H   H14       1.0  0.04750  0.11810  0.71240  1.0000 0.100490858
H   H15       1.0  0.11890  0.10970  0.35360  1.0000 0.100490858
H   H16       1.0  0.10970  0.11890  0.64640  1.0000 0.100490858
H   H17       1.0  0.66420  0.41280  0.34020  1.0000 0.1141741867
H   H18       1.0  0.41280  0.66420  0.65980  1.0000 0.1141741867
H   H19       1.0  0.54900  0.21100  0.26230  1.0000 0.119663546
H   H20       1.0  0.21100  0.54900  0.73770  1.0000 0.119663546
H   H21       1.0  0.03540  0.66260  0.12720  1.0000 0.129523232
H   H22       1.0  0.66260  0.03540  0.87280  1.0000 0.129523232
H   H23       1.0  0.14800  0.86460  0.20300  1.0000 0.129523232
H   H24       1.0  0.86460  0.14800  0.79700  1.0000 0.129523232
H   H25       1.0  0.60460  0.73900  0.20980  1.0000 0.129523232
H   H26       1.0  0.73900  0.60460  0.79020  1.0000 0.129523232
H   H27       1.0  0.61370  0.88170  0.11950  1.0000 0.129523232
H   H28       1.0  0.88170  0.61370  0.88050  1.0000 0.129523232
H   H29       1.0  0.18740  0.38860  0.12730  1.0000 0.119663546
H   H30       1.0  0.38860  0.18740  0.87270  1.0000 0.119663546
H   H31       1.0  0.17690  0.24290  0.21540  1.0000 0.119663546
H   H32       1.0  0.24290  0.17690  0.78460  1.0000 0.119663546
H   H33       1.0  0.49470  0.29150  0.56210  1.0000 0.119663546
H   H34       1.0  0.29150  0.49470  0.43790  1.0000 0.119663546
H   H35       1.0  0.71870  0.43810  0.68350  1.0000 0.119663546
H   H36       1.0  0.43810  0.71870  0.31650  1.0000 0.119663546
H   H37       1.0  0.35080  0.92680  0.79000  1.0000 0.119663546
H   H38       1.0  0.92680  0.35080  0.21000  1.0000 0.119663546
H   H39       1.0  0.12120  0.77780  0.67170  1.0000 0.1454676682
H   H40       1.0  0.77780  0.12120  0.32830  1.0000 0.1446644659
C   C1        1.0  0.98440  0.87800  0.41310  1.0000 0.0727991531
C   C2        1.0  0.87800  0.98440  0.58690  1.0000 0.0727991531
C   C3        1.0  0.84240  0.78200  0.47150  1.0000 -0.0961739997
C   C4        1.0  0.78200  0.84240  0.52850  1.0000 -0.0961739997
C   C5        1.0  0.16900  0.01660  0.46910  1.0000 -0.0961739997
C   C6        1.0  0.01660  0.16900  0.53090  1.0000 -0.0961739997
C   C7        1.0  0.87610  0.71130  0.37970  1.0000 -0.0961739997
C   C8        1.0  0.71130  0.87610  0.62030  1.0000 -0.0961739997
C   C9        1.0  0.04160  0.99980  0.32990  1.0000 -0.0796271046
C   C10       1.0  0.99980  0.04160  0.67010  1.0000 -0.0796271046
C   C11       1.0  0.91680  0.65860  0.27770  1.0000 0.250610659
C   C12       1.0  0.65860  0.91680  0.72230  1.0000 0.250610659
C   C13       1.0  0.73830  0.46370  0.29660  1.0000 -0.2522979682
C   C14       1.0  0.46370  0.73830  0.70340  1.0000 -0.2522979682
C   C15       1.0  0.67040  0.34360  0.24930  1.0000 -0.0796271046
C   C16       1.0  0.34360  0.67040  0.75070  1.0000 -0.0796271046
C   C17       1.0  0.77410  0.41190  0.18460  1.0000 -0.0605314379
C   C18       1.0  0.41190  0.77410  0.81540  1.0000 -0.0605314379
C   C19       1.0  0.95880  0.61120  0.16840  1.0000 -0.0605314379
C   C20       1.0  0.61120  0.95880  0.83160  1.0000 -0.0605314379
C   C21       1.0  0.02620  0.73180  0.21500  1.0000 -0.2209741478
C   C22       1.0  0.73180  0.02620  0.78500  1.0000 -0.2209741478
C   C23       1.0  0.88960  0.97800  0.22280  1.0000 0.250610659
C   C24       1.0  0.97800  0.88960  0.77720  1.0000 0.250610659
C   C25       1.0  0.72260  0.87040  0.19320  1.0000 -0.2314020699
C   C26       1.0  0.87040  0.72260  0.80680  1.0000 -0.2314020699
C   C27       1.0  0.72760  0.95520  0.13860  1.0000 -0.0669191485
C   C28       1.0  0.95520  0.72760  0.86140  1.0000 -0.0669191485
C   C29       1.0  0.90380  0.15080  0.11290  1.0000 -0.0483453056
C   C30       1.0  0.15080  0.90380  0.88710  1.0000 -0.0483453056
C   C31       1.0  0.06910  0.25690  0.14290  1.0000 -0.0796271046
C   C32       1.0  0.25690  0.06910  0.85710  1.0000 -0.0796271046
C   C33       1.0  0.06350  0.17030  0.19710  1.0000 -0.2522979682
C   C34       1.0  0.17030  0.06350  0.80290  1.0000 -0.2522979682
C   C35       1.0  0.91907  0.25233  0.05880  1.0000 0.5947190219
C   C36       1.0  0.25233  0.91907  0.94120  1.0000 0.5947190219
C   C37       1.0  0.28180  0.02020  0.60840  1.0000 0.250610659
C   C38       1.0  0.02020  0.28180  0.39160  1.0000 0.250610659
C   C39       1.0  0.46300  0.21700  0.60910  1.0000 -0.2522979682
C   C40       1.0  0.21700  0.46300  0.39090  1.0000 -0.2522979682
C   C41       1.0  0.59920  0.30480  0.68000  1.0000 -0.0796271046
C   C42       1.0  0.30480  0.59920  0.32000  1.0000 -0.0796271046
C   C43       1.0  0.55950  0.19710  0.74540  1.0000 -0.0379593154
C   C44       1.0  0.19710  0.55950  0.25460  1.0000 -0.0379593154
C   C45       1.0  0.38010  0.00050  0.74420  1.0000 -0.0796271046
C   C46       1.0  0.00050  0.38010  0.25580  1.0000 -0.0796271046
C   C47       1.0  0.24150  0.91110  0.67430  1.0000 -0.2051635837
C   C48       1.0  0.91110  0.24150  0.32570  1.0000 -0.2051635837
C   C49       1.0  0.71000  0.29800  0.82290  1.0000 0.610382318
C   C50       1.0  0.29800  0.71000  0.17710  1.0000 0.610382318
C   C51       1.0  0.69410  0.27810  0.13520  1.0000 0.6266198153
C   C52       1.0  0.27810  0.69410  0.86480  1.0000 0.6266198153
O   O1        1.0  0.77370  0.16890  0.04050  1.0000 -0.712801159
O   O2        1.0  0.16890  0.77370  0.95950  1.0000 -0.712801159
O   O3        1.0  0.07442  0.41958  0.03330  1.0000 -0.5326578622
O   O4        1.0  0.41958  0.07442  0.96670  1.0000 -0.5326578622
O   O5        1.0  0.53470  0.09950  0.15930  1.0000 -0.6163381343
O   O6        1.0  0.09950  0.53470  0.84070  1.0000 -0.6163381343
O   O7        1.0  0.78100  0.34060  0.06640  1.0000 -0.7690207963
O   O8        1.0  0.34060  0.78100  0.93360  1.0000 -0.7690207963
O   O9        1.0  0.66910  0.19790  0.88890  1.0000 -0.7477602964
O   O10       1.0  0.19790  0.66910  0.11110  1.0000 -0.7477602964
O   O11       1.0  0.87230  0.47610  0.82340  1.0000 -0.5827274328
O   O12       1.0  0.47610  0.87230  0.17660  1.0000 -0.5827274328
O   O13       1.0  0.99610  0.78870  0.31800  1.0000 -0.1812320581
O   O14       1.0  0.78870  0.99610  0.68200  1.0000 -0.1812320581
O   O15       1.0  0.12960  0.91120  0.54450  1.0000 -0.1973995721
O   O16       1.0  0.91120  0.12960  0.45550  1.0000 -0.1973995721
O   O17       1.0  0.87260  0.88540  0.27930  1.0000 -0.1812320581
O   O18       1.0  0.88540  0.87260  0.72070  1.0000 -0.1812320581
O   O19       1.0  0.92260  0.92260  0.50000  1.0000 -0.1914832597
