# DDEC6 charges by PACMAN v1.1 (https://github.com/mtap-research/PACMAN-charge/)
data_2012[Fe][bpq]3[FSR]1
_chemical_formula_sum              "Fe4 H16 C32 O20"
_cell_length_a       11.2638
_cell_length_b       11.2638
_cell_length_c       13.807
_cell_angle_alpha    72.481
_cell_angle_beta     107.519
_cell_angle_gamma    89.5209

_symmetry_space_group_name_H-M    "P 1"
_symmetry_Int_Tables_number       1

loop_
  _symmetry_equiv_pos_as_xyz
  'x, y, z'

loop_
  _atom_site_type_symbol
  _atom_site_label
  _atom_site_symmetry_multiplicity
  _atom_site_fract_x
  _atom_site_fract_y
  _atom_site_fract_z
  _atom_site_occupancy
  _atom_site_charge
Fe  Fe1       1.0  0.00104  0.00104  0.25000  1.0000 1.2909736426
Fe  Fe2       1.0  0.99896  0.99896  0.75000  1.0000 1.2840380858
Fe  Fe3       1.0  0.00000  0.00000  0.00000  1.0000 1.2909736426
Fe  Fe4       1.0  0.00000  0.00000  0.50000  1.0000 1.2909736426
H   H1        1.0  0.60854  0.00618  0.42112  1.0000 0.1246889026
H   H2        1.0  0.00618  0.60854  0.07888  1.0000 0.1246889026
H   H3        1.0  0.39146  0.99382  0.57888  1.0000 0.1246889026
H   H4        1.0  0.99382  0.39146  0.92112  1.0000 0.1246889026
H   H5        1.0  0.38834  0.00656  0.36613  1.0000 0.1258155893
H   H6        1.0  0.00657  0.38834  0.13387  1.0000 0.1258155893
H   H7        1.0  0.61165  0.99343  0.63387  1.0000 0.1258155893
H   H8        1.0  0.99343  0.61165  0.86613  1.0000 0.1258155893
H   H9        1.0  0.39013  0.00703  0.06979  1.0000 0.1258155893
H   H10       1.0  0.00703  0.39013  0.43021  1.0000 0.1258155893
H   H11       1.0  0.60987  0.99297  0.93021  1.0000 0.1258155893
H   H12       1.0  0.99297  0.60987  0.56979  1.0000 0.1258155893
H   H13       1.0  0.61033  0.00665  0.12479  1.0000 0.1246889026
H   H14       1.0  0.00665  0.61033  0.37521  1.0000 0.1258155893
H   H15       1.0  0.38967  0.99335  0.87521  1.0000 0.1258155893
H   H16       1.0  0.99335  0.38967  0.62479  1.0000 0.1246889026
C   C1        1.0  0.62829  0.00639  0.27766  1.0000 -0.0347276457
C   C2        1.0  0.00639  0.62829  0.22234  1.0000 -0.0347276457
C   C3        1.0  0.37171  0.99361  0.72234  1.0000 -0.0347276457
C   C4        1.0  0.99361  0.37171  0.77766  1.0000 -0.0347276457
C   C5        1.0  0.56328  0.00636  0.34833  1.0000 -0.0931420011
C   C6        1.0  0.00636  0.56328  0.15167  1.0000 -0.0931420011
C   C7        1.0  0.43672  0.99364  0.65167  1.0000 -0.0931420011
C   C8        1.0  0.99364  0.43672  0.84833  1.0000 -0.0931420011
C   C9        1.0  0.43433  0.00658  0.31612  1.0000 -0.0931420011
C   C10       1.0  0.00658  0.43434  0.18388  1.0000 -0.0931420011
C   C11       1.0  0.56566  0.99341  0.68388  1.0000 -0.0931420011
C   C12       1.0  0.99342  0.56566  0.81612  1.0000 -0.0931420011
C   C13       1.0  0.37039  0.00683  0.21325  1.0000 -0.0347276457
C   C14       1.0  0.00683  0.37039  0.28675  1.0000 -0.0347276457
C   C15       1.0  0.62961  0.99317  0.78675  1.0000 -0.0347276457
C   C16       1.0  0.99317  0.62961  0.71325  1.0000 -0.0347276457
C   C17       1.0  0.43538  0.00686  0.14259  1.0000 -0.0931420011
C   C18       1.0  0.00686  0.43538  0.35741  1.0000 -0.0931420011
C   C19       1.0  0.56462  0.99314  0.85741  1.0000 -0.0931420011
C   C20       1.0  0.99314  0.56462  0.64259  1.0000 -0.0931420011
C   C21       1.0  0.56433  0.00663  0.17479  1.0000 -0.0931420011
C   C22       1.0  0.00663  0.56433  0.32521  1.0000 -0.0931420011
C   C23       1.0  0.43567  0.99337  0.82521  1.0000 -0.0931420011
C   C24       1.0  0.99337  0.43567  0.67479  1.0000 -0.0931420011
C   C25       1.0  0.76516  0.00614  0.31185  1.0000 0.5794604014
C   C26       1.0  0.00615  0.76516  0.18815  1.0000 0.5794604014
C   C27       1.0  0.23483  0.99385  0.68815  1.0000 0.5794604014
C   C28       1.0  0.99386  0.23484  0.81185  1.0000 0.5794604014
C   C29       1.0  0.23351  0.00707  0.17907  1.0000 0.5794604014
C   C30       1.0  0.00707  0.23351  0.32093  1.0000 0.5794604014
C   C31       1.0  0.76649  0.99293  0.82093  1.0000 0.5794604014
C   C32       1.0  0.99293  0.76649  0.67907  1.0000 0.5794604014
O   O1        1.0  0.82306  0.01294  0.40410  1.0000 -0.4981443022
O   O2        1.0  0.01294  0.82306  0.09590  1.0000 -0.4981443022
O   O3        1.0  0.17694  0.98706  0.59590  1.0000 -0.4981443022
O   O4        1.0  0.98706  0.17694  0.90410  1.0000 -0.4981443022
O   O5        1.0  0.82552  0.99914  0.24913  1.0000 -0.4886781831
O   O6        1.0  0.99914  0.82552  0.25087  1.0000 -0.4886781831
O   O7        1.0  0.17448  0.00086  0.75087  1.0000 -0.4886781831
O   O8        1.0  0.00086  0.17448  0.74913  1.0000 -0.4886781831
O   O9        1.0  0.17374  0.00850  0.24347  1.0000 -0.4981443022
O   O10       1.0  0.00850  0.17374  0.25653  1.0000 -0.4981443022
O   O11       1.0  0.82626  0.99150  0.75653  1.0000 -0.4981443022
O   O12       1.0  0.99150  0.82626  0.74347  1.0000 -0.4981443022
O   O13       1.0  0.17501  0.00585  0.08513  1.0000 -0.4886781831
O   O14       1.0  0.00585  0.17501  0.41487  1.0000 -0.4886781831
O   O15       1.0  0.82499  0.99415  0.91487  1.0000 -0.4886781831
O   O16       1.0  0.99415  0.82499  0.58513  1.0000 -0.4886781831
O   O17       1.0  0.93499  0.05983  0.09235  1.0000 -0.5336187491
O   O18       1.0  0.05983  0.93499  0.40765  1.0000 -0.5336187491
O   O19       1.0  0.06501  0.94017  0.90765  1.0000 -0.5354022194
O   O20       1.0  0.94017  0.06501  0.59235  1.0000 -0.5336187491
