# DDEC6 charges by PACMAN v1.1 (https://github.com/mtap-research/PACMAN-charge/)
data_2012[Co][ecu]3[FSR]6
_chemical_formula_sum              "Co8 H72 C96 N16 O36"
_cell_length_a       11.269
_cell_length_b       13.382
_cell_length_c       25.592
_cell_angle_alpha    90
_cell_angle_beta     90
_cell_angle_gamma    90

_symmetry_space_group_name_H-M    "P 1"
_symmetry_Int_Tables_number       1

loop_
  _symmetry_equiv_pos_as_xyz
  'x, y, z'

loop_
  _atom_site_type_symbol
  _atom_site_label
  _atom_site_symmetry_multiplicity
  _atom_site_fract_x
  _atom_site_fract_y
  _atom_site_fract_z
  _atom_site_occupancy
  _atom_site_charge
Co  Co1       1.0  0.08290  0.05992  0.36345  1.0000 0.888925504
Co  Co2       1.0  0.41710  0.94008  0.86345  1.0000 0.888925504
Co  Co3       1.0  0.58290  0.44008  0.63655  1.0000 0.888925504
Co  Co4       1.0  0.91710  0.55992  0.13655  1.0000 0.888925504
Co  Co5       1.0  0.82858  0.94032  0.42114  1.0000 0.888925504
Co  Co6       1.0  0.67142  0.05968  0.92114  1.0000 0.888925504
Co  Co7       1.0  0.32858  0.55968  0.57886  1.0000 0.888925504
Co  Co8       1.0  0.17142  0.44032  0.07886  1.0000 0.888925504
H   H1        1.0  0.89180  0.12870  0.41240  1.0000 0.3811344654
H   H2        1.0  0.60820  0.87130  0.91240  1.0000 0.3811344654
H   H3        1.0  0.39180  0.37130  0.58760  1.0000 0.3811344654
H   H4        1.0  0.10820  0.62870  0.08760  1.0000 0.3811344654
H   H5        1.0  0.85070  0.09090  0.35590  1.0000 0.3811344654
H   H6        1.0  0.64930  0.90910  0.85590  1.0000 0.3811344654
H   H7        1.0  0.35070  0.40910  0.64410  1.0000 0.3811344654
H   H8        1.0  0.14930  0.59090  0.14410  1.0000 0.3811344654
H   H9        1.0  0.28770  0.29150  0.44000  1.0000 0.1315816663
H   H10       1.0  0.21230  0.70850  0.94000  1.0000 0.1315816663
H   H11       1.0  0.78770  0.20850  0.56000  1.0000 0.1315816663
H   H12       1.0  0.71230  0.79150  0.06000  1.0000 0.1315816663
H   H13       1.0  0.86760  0.68690  0.32300  1.0000 0.1315816663
H   H14       1.0  0.63240  0.31310  0.82300  1.0000 0.1315816663
H   H15       1.0  0.36760  0.81310  0.67700  1.0000 0.1315816663
H   H16       1.0  0.13240  0.18690  0.17700  1.0000 0.1315816663
H   H17       1.0  0.37710  0.41380  0.49050  1.0000 0.1090015522
H   H18       1.0  0.12290  0.58620  0.99050  1.0000 0.1090015522
H   H19       1.0  0.87710  0.08620  0.50950  1.0000 0.1090015522
H   H20       1.0  0.62290  0.91380  0.00950  1.0000 0.1090015522
H   H21       1.0  0.85560  0.57550  0.25320  1.0000 0.1028490589
H   H22       1.0  0.64440  0.42450  0.75320  1.0000 0.1028490589
H   H23       1.0  0.35560  0.92450  0.74680  1.0000 0.1028490589
H   H24       1.0  0.14440  0.07550  0.24680  1.0000 0.1028490589
H   H25       1.0  0.06970  0.50570  0.54490  1.0000 0.0918306434
H   H26       1.0  0.43030  0.49430  0.04490  1.0000 0.0918306434
H   H27       1.0  0.56970  0.99430  0.45510  1.0000 0.0918306434
H   H28       1.0  0.93030  0.00570  0.95510  1.0000 0.0918306434
H   H29       1.0  0.07880  0.86180  0.23380  1.0000 0.1315816663
H   H30       1.0  0.42120  0.13820  0.73380  1.0000 0.1315816663
H   H31       1.0  0.57880  0.63820  0.76620  1.0000 0.1315816663
H   H32       1.0  0.92120  0.36180  0.26620  1.0000 0.1315816663
H   H33       1.0  0.47820  0.88520  0.34160  1.0000 0.1315816663
H   H34       1.0  0.02180  0.11480  0.84160  1.0000 0.1315816663
H   H35       1.0  0.97820  0.61480  0.65840  1.0000 0.1315816663
H   H36       1.0  0.52180  0.38520  0.15840  1.0000 0.1315816663
H   H37       1.0  0.50340  0.18600  0.33220  1.0000 0.1364814515
H   H38       1.0  0.99660  0.81400  0.83220  1.0000 0.1364814515
H   H39       1.0  0.00340  0.31400  0.66780  1.0000 0.1364814515
H   H40       1.0  0.49660  0.68600  0.16780  1.0000 0.1364814515
H   H41       1.0  0.96890  0.38610  0.49670  1.0000 0.1364814515
H   H42       1.0  0.53110  0.61390  0.99670  1.0000 0.1364814515
H   H43       1.0  0.46890  0.11390  0.50330  1.0000 0.1364814515
H   H44       1.0  0.03110  0.88610  0.00330  1.0000 0.1364814515
H   H45       1.0  0.27350  0.90100  0.34360  1.0000 0.1090015522
H   H46       1.0  0.22650  0.09900  0.84360  1.0000 0.1090015522
H   H47       1.0  0.77350  0.59900  0.65640  1.0000 0.1090015522
H   H48       1.0  0.72650  0.40100  0.15640  1.0000 0.1090015522
H   H49       1.0  0.14680  0.72710  0.60220  1.0000 0.1090015522
H   H50       1.0  0.35320  0.27290  0.10220  1.0000 0.1090015522
H   H51       1.0  0.64680  0.77290  0.39780  1.0000 0.1090015522
H   H52       1.0  0.85320  0.22710  0.89780  1.0000 0.1090015522
H   H53       1.0  0.26180  0.81170  0.43710  1.0000 0.1364814515
H   H54       1.0  0.23820  0.18830  0.93710  1.0000 0.1364814515
H   H55       1.0  0.76180  0.68830  0.56290  1.0000 0.1364814515
H   H56       1.0  0.73820  0.31170  0.06290  1.0000 0.1364814515
H   H57       1.0  0.04390  0.85290  0.55950  1.0000 0.1315816663
H   H58       1.0  0.45610  0.14710  0.05950  1.0000 0.1315816663
H   H59       1.0  0.54390  0.64710  0.44050  1.0000 0.1315816663
H   H60       1.0  0.95610  0.35290  0.94050  1.0000 0.1315816663
H   H61       1.0  0.29730  0.19470  0.33860  1.0000 0.1028490589
H   H62       1.0  0.20270  0.80530  0.83860  1.0000 0.1028490589
H   H63       1.0  0.79730  0.30530  0.66140  1.0000 0.1028490589
H   H64       1.0  0.70270  0.69470  0.16140  1.0000 0.1028490589
H   H65       1.0  0.05560  0.74860  0.16550  1.0000 0.1090015522
H   H66       1.0  0.44440  0.25140  0.66550  1.0000 0.1090015522
H   H67       1.0  0.55560  0.75140  0.83450  1.0000 0.1090015522
H   H68       1.0  0.94440  0.24860  0.33450  1.0000 0.1090015522
H   H69       1.0  0.35170  0.68760  0.48200  1.0000 0.1028490589
H   H70       1.0  0.14830  0.31240  0.98200  1.0000 0.1028490589
H   H71       1.0  0.85170  0.81240  0.51800  1.0000 0.1028490589
H   H72       1.0  0.64830  0.18760  0.01800  1.0000 0.1028490589
C   C1        1.0  0.64760  0.02840  0.34567  1.0000 0.5615155958
C   C2        1.0  0.85240  0.97160  0.84567  1.0000 0.5615155958
C   C3        1.0  0.14760  0.47160  0.65433  1.0000 0.5615155958
C   C4        1.0  0.35240  0.52840  0.15433  1.0000 0.5615155958
C   C5        1.0  0.24100  0.33370  0.46164  1.0000 -0.1525496635
C   C6        1.0  0.25900  0.66630  0.96164  1.0000 -0.1525496635
C   C7        1.0  0.74100  0.16630  0.53836  1.0000 -0.1525496635
C   C8        1.0  0.75900  0.83370  0.03836  1.0000 -0.1525496635
C   C9        1.0  0.11650  0.32310  0.46368  1.0000 0.0314196032
C   C10       1.0  0.38350  0.67690  0.96368  1.0000 0.0314196032
C   C11       1.0  0.61650  0.17690  0.53632  1.0000 0.0314196032
C   C12       1.0  0.88350  0.82310  0.03632  1.0000 0.0314196032
C   C13       1.0  0.90680  0.70106  0.29097  1.0000 -0.1618476398
C   C14       1.0  0.59320  0.29894  0.79097  1.0000 -0.1618476398
C   C15       1.0  0.40680  0.79894  0.70903  1.0000 -0.1618476398
C   C16       1.0  0.09320  0.20106  0.20903  1.0000 -0.1618476398
C   C17       1.0  0.51420  0.03400  0.33991  1.0000 0.0246586539
C   C18       1.0  0.98580  0.96600  0.83991  1.0000 0.0246586539
C   C19       1.0  0.01420  0.46600  0.66009  1.0000 0.0246586539
C   C20       1.0  0.48580  0.53400  0.16009  1.0000 0.0246586539
C   C21       1.0  0.29320  0.40680  0.49200  1.0000 0.0918306434
C   C22       1.0  0.20680  0.59320  0.99200  1.0000 0.0918306434
C   C23       1.0  0.79320  0.09320  0.50800  1.0000 0.0918306434
C   C24       1.0  0.70680  0.90680  0.00800  1.0000 0.0918306434
C   C25       1.0  0.07480  0.92484  0.46130  1.0000 0.5844202005
C   C26       1.0  0.42520  0.07516  0.96130  1.0000 0.5844202005
C   C27       1.0  0.57480  0.57516  0.53870  1.0000 0.5844202005
C   C28       1.0  0.92520  0.42484  0.03870  1.0000 0.5844202005
C   C29       1.0  0.05640  0.24020  0.43440  1.0000 0.5615155958
C   C30       1.0  0.44360  0.75980  0.93440  1.0000 0.5615155958
C   C31       1.0  0.55640  0.25980  0.56560  1.0000 0.5615155958
C   C32       1.0  0.94360  0.74020  0.06560  1.0000 0.5615155958
C   C33       1.0  0.89950  0.63550  0.24901  1.0000 0.0777395032
C   C34       1.0  0.60050  0.36450  0.74901  1.0000 0.0777395032
C   C35       1.0  0.39950  0.86450  0.75099  1.0000 0.0777395032
C   C36       1.0  0.10050  0.13550  0.25099  1.0000 0.0777395032
C   C37       1.0  0.11390  0.46050  0.52387  1.0000 0.0681950072
C   C38       1.0  0.38610  0.53950  0.02387  1.0000 0.0681950072
C   C39       1.0  0.61390  0.03950  0.47613  1.0000 0.0681950072
C   C40       1.0  0.88610  0.96050  0.97613  1.0000 0.0681950072
C   C41       1.0  0.03040  0.80430  0.23831  1.0000 -0.1525496635
C   C42       1.0  0.46960  0.19570  0.73831  1.0000 -0.1525496635
C   C43       1.0  0.53040  0.69570  0.76169  1.0000 -0.1525496635
C   C44       1.0  0.96960  0.30430  0.26169  1.0000 -0.1525496635
C   C45       1.0  0.44310  0.94980  0.34143  1.0000 -0.1618476398
C   C46       1.0  0.05690  0.05020  0.84143  1.0000 -0.1618476398
C   C47       1.0  0.94310  0.55020  0.65857  1.0000 -0.1618476398
C   C48       1.0  0.55690  0.44980  0.15857  1.0000 -0.1618476398
C   C49       1.0  0.97290  0.78770  0.28488  1.0000 0.0314196032
C   C50       1.0  0.52710  0.21230  0.78488  1.0000 0.0314196032
C   C51       1.0  0.47290  0.71230  0.71512  1.0000 0.0314196032
C   C52       1.0  0.02710  0.28770  0.21512  1.0000 0.0314196032
C   C53       1.0  0.45810  0.12660  0.33642  1.0000 -0.1618476398
C   C54       1.0  0.04190  0.87340  0.83642  1.0000 -0.1618476398
C   C55       1.0  0.95810  0.37340  0.66358  1.0000 -0.1618476398
C   C56       1.0  0.54190  0.62660  0.16358  1.0000 -0.1618476398
C   C57       1.0  0.05310  0.38960  0.49510  1.0000 -0.1618476398
C   C58       1.0  0.44690  0.61040  0.99510  1.0000 -0.1618476398
C   C59       1.0  0.55310  0.11040  0.50490  1.0000 -0.1618476398
C   C60       1.0  0.94690  0.88960  0.00490  1.0000 -0.1618476398
C   C61       1.0  0.32100  0.95960  0.34273  1.0000 0.0777395032
C   C62       1.0  0.17900  0.04040  0.84273  1.0000 0.0777395032
C   C63       1.0  0.82100  0.54040  0.65727  1.0000 0.0777395032
C   C64       1.0  0.67900  0.45960  0.15727  1.0000 0.0777395032
C   C65       1.0  0.16820  0.74310  0.56728  1.0000 0.0777395032
C   C66       1.0  0.33180  0.25690  0.06728  1.0000 0.0777395032
C   C67       1.0  0.66820  0.75690  0.43272  1.0000 0.0777395032
C   C68       1.0  0.83180  0.24310  0.93272  1.0000 0.0777395032
C   C69       1.0  0.14170  0.84740  0.49291  1.0000 0.0406036564
C   C70       1.0  0.35830  0.15260  0.99291  1.0000 0.0406036564
C   C71       1.0  0.64170  0.65260  0.50709  1.0000 0.0406036564
C   C72       1.0  0.85830  0.34740  0.00709  1.0000 0.0406036564
C   C73       1.0  0.97750  0.86553  0.32789  1.0000 0.5859299861
C   C74       1.0  0.52250  0.13447  0.82789  1.0000 0.5859299861
C   C75       1.0  0.47750  0.63447  0.67211  1.0000 0.5859299861
C   C76       1.0  0.02250  0.36553  0.17211  1.0000 0.5859299861
C   C77       1.0  0.23450  0.79520  0.47112  1.0000 -0.1710233502
C   C78       1.0  0.26550  0.20480  0.97112  1.0000 -0.1710233502
C   C79       1.0  0.73450  0.70480  0.52888  1.0000 -0.1710233502
C   C80       1.0  0.76550  0.29520  0.02888  1.0000 -0.1710233502
C   C81       1.0  0.10770  0.81990  0.54249  1.0000 -0.1710233502
C   C82       1.0  0.39230  0.18010  0.04249  1.0000 -0.1710233502
C   C83       1.0  0.60770  0.68010  0.45751  1.0000 -0.1710233502
C   C84       1.0  0.89230  0.31990  0.95751  1.0000 -0.1710233502
C   C85       1.0  0.33470  0.13110  0.33925  1.0000 0.0918306434
C   C86       1.0  0.16530  0.86890  0.83925  1.0000 0.0918306434
C   C87       1.0  0.83470  0.36890  0.66075  1.0000 0.0918306434
C   C88       1.0  0.66530  0.63110  0.16075  1.0000 0.0918306434
C   C89       1.0  0.01700  0.73600  0.19783  1.0000 0.0918306434
C   C90       1.0  0.48300  0.26400  0.69783  1.0000 0.0918306434
C   C91       1.0  0.51700  0.76400  0.80217  1.0000 0.0918306434
C   C92       1.0  0.98300  0.23600  0.30217  1.0000 0.0918306434
C   C93       1.0  0.28670  0.72090  0.49800  1.0000 0.0681950072
C   C94       1.0  0.21330  0.27910  0.99800  1.0000 0.0649959483
C   C95       1.0  0.78670  0.77910  0.50200  1.0000 0.0681950072
C   C96       1.0  0.71330  0.22090  0.00200  1.0000 0.0681950072
N   N1        1.0  0.26703  0.04963  0.34279  1.0000 -0.2355966977
N   N2        1.0  0.23297  0.95037  0.84279  1.0000 -0.2355966977
N   N3        1.0  0.76703  0.45037  0.65721  1.0000 -0.2355966977
N   N4        1.0  0.73297  0.54963  0.15721  1.0000 -0.2355966977
N   N5        1.0  0.23277  0.46824  0.52337  1.0000 -0.2587128393
N   N6        1.0  0.26723  0.53176  0.02337  1.0000 -0.2587128393
N   N7        1.0  0.73277  0.03176  0.47663  1.0000 -0.2587128393
N   N8        1.0  0.76723  0.96824  0.97663  1.0000 -0.2587128393
N   N9        1.0  0.95182  0.65336  0.20284  1.0000 -0.2520961128
N   N10       1.0  0.54818  0.34664  0.70284  1.0000 -0.2520961128
N   N11       1.0  0.45182  0.84664  0.79716  1.0000 -0.2520961128
N   N12       1.0  0.04818  0.15336  0.29716  1.0000 -0.2520961128
N   N13       1.0  0.25420  0.69088  0.54497  1.0000 -0.21998002
N   N14       1.0  0.24580  0.30912  0.04497  1.0000 -0.21998002
N   N15       1.0  0.75420  0.80912  0.45503  1.0000 -0.21998002
N   N16       1.0  0.74580  0.19088  0.95503  1.0000 -0.21998002
O   O1        1.0  0.96718  0.93731  0.47410  1.0000 -0.5693592168
O   O2        1.0  0.53282  0.06269  0.97410  1.0000 -0.5693592168
O   O3        1.0  0.46718  0.56269  0.52590  1.0000 -0.5693592168
O   O4        1.0  0.03282  0.43731  0.02590  1.0000 -0.5693592168
O   O5        1.0  0.04476  0.93817  0.31889  1.0000 -0.5584174432
O   O6        1.0  0.45524  0.06183  0.81889  1.0000 -0.5584174432
O   O7        1.0  0.54476  0.56183  0.68111  1.0000 -0.5584174432
O   O8        1.0  0.95524  0.43817  0.18111  1.0000 -0.5584174432
O   O9        1.0  0.68534  0.95151  0.36914  1.0000 -0.585047666
O   O10       1.0  0.81466  0.04849  0.86914  1.0000 -0.585047666
O   O11       1.0  0.18534  0.54849  0.63086  1.0000 -0.585047666
O   O12       1.0  0.31466  0.45151  0.13086  1.0000 -0.585047666
O   O13       1.0  0.91539  0.84992  0.36764  1.0000 -0.5482959784
O   O14       1.0  0.58461  0.15008  0.86764  1.0000 -0.5482959784
O   O15       1.0  0.41539  0.65008  0.63236  1.0000 -0.5482959784
O   O16       1.0  0.08461  0.34992  0.13236  1.0000 -0.5482959784
O   O17       1.0  0.13003  0.96638  0.42530  1.0000 -0.5391295366
O   O18       1.0  0.36997  0.03362  0.92530  1.0000 -0.5391295366
O   O19       1.0  0.63003  0.53362  0.57470  1.0000 -0.5391295366
O   O20       1.0  0.86997  0.46638  0.07470  1.0000 -0.5391295366
O   O21       1.0  0.12286  0.18572  0.40667  1.0000 -0.5693592168
O   O22       1.0  0.37714  0.81428  0.90667  1.0000 -0.5693592168
O   O23       1.0  0.62286  0.31428  0.59333  1.0000 -0.5693592168
O   O24       1.0  0.87714  0.68572  0.09333  1.0000 -0.5693592168
O   O25       1.0  0.89895  0.07331  0.38693  1.0000 -0.7916834093
O   O26       1.0  0.60105  0.92669  0.88693  1.0000 -0.7916834093
O   O27       1.0  0.39895  0.42669  0.61307  1.0000 -0.7916834093
O   O28       1.0  0.10105  0.57331  0.11307  1.0000 -0.7916834093
O   O29       1.0  0.94634  0.23236  0.43875  1.0000 -0.5482959784
O   O30       1.0  0.55366  0.76764  0.93875  1.0000 -0.5482959784
O   O31       1.0  0.44634  0.26764  0.56125  1.0000 -0.5482959784
O   O32       1.0  0.05366  0.73236  0.06125  1.0000 -0.5482959784
O   O33       1.0  0.70809  0.09881  0.32867  1.0000 -0.5391295366
O   O34       1.0  0.79191  0.90119  0.82867  1.0000 -0.5391295366
O   O35       1.0  0.20809  0.40119  0.67133  1.0000 -0.5391295366
O   O36       1.0  0.29191  0.59881  0.17133  1.0000 -0.5391295366
