# DDEC6 charges by PACMAN v1.1 (https://github.com/mtap-research/PACMAN-charge/)
data_2012[Sm][hex]3[FSR]1
_chemical_formula_sum              "Sm6 P6 H94 C74 N6 O48"
_cell_length_a       15.04
_cell_length_b       15.09
_cell_length_c       15.179
_cell_angle_alpha    105.689
_cell_angle_beta     103.559
_cell_angle_gamma    117.111

_symmetry_space_group_name_H-M    "P 1"
_symmetry_Int_Tables_number       1

loop_
  _symmetry_equiv_pos_as_xyz
  'x, y, z'

loop_
  _atom_site_type_symbol
  _atom_site_label
  _atom_site_symmetry_multiplicity
  _atom_site_fract_x
  _atom_site_fract_y
  _atom_site_fract_z
  _atom_site_occupancy
  _atom_site_charge
Sm  Sm1       1.0  0.18247  0.88732  0.31907  1.0000 2.0886056071
Sm  Sm2       1.0  0.81753  0.11268  0.68093  1.0000 2.0886056071
Sm  Sm3       1.0  0.44276  0.13319  0.30217  1.0000 2.1179966574
Sm  Sm4       1.0  0.55724  0.86681  0.69783  1.0000 2.1179966574
Sm  Sm5       1.0  0.58430  0.93771  0.35706  1.0000 2.1999470835
Sm  Sm6       1.0  0.41570  0.06229  0.64294  1.0000 2.1999470835
P   P1        1.0  0.38310  0.85830  0.47740  1.0000 1.3749519234
P   P2        1.0  0.61690  0.14170  0.52260  1.0000 1.3749519234
P   P3        1.0  0.30540  0.82810  0.19910  1.0000 1.3052253371
P   P4        1.0  0.69460  0.17190  0.80090  1.0000 1.3052253371
P   P5        1.0  0.37500  0.18950  0.47880  1.0000 1.3270508891
P   P6        1.0  0.62500  0.81050  0.52120  1.0000 1.3270508891
H   H1        1.0  0.20160  0.37480  0.93270  1.0000 0.3584802096
H   H2        1.0  0.79840  0.62520  0.06730  1.0000 0.3584802096
H   H3        1.0  0.65850  0.84650  0.22320  1.0000 0.3524490243
H   H4        1.0  0.34150  0.15350  0.77680  1.0000 0.3524490243
H   H5        1.0  0.59210  0.75970  0.24280  1.0000 0.3584802096
H   H6        1.0  0.40790  0.24030  0.75720  1.0000 0.3584802096
H   H7        1.0  0.25020  0.67970  0.29030  1.0000 0.2779093629
H   H8        1.0  0.74980  0.32030  0.70970  1.0000 0.2779093629
H   H9        1.0  0.34290  0.90640  0.06320  1.0000 0.2779093629
H   H10       1.0  0.65710  0.09360  0.93680  1.0000 0.2779093629
H   H11       1.0  0.16340  0.10970  0.44320  1.0000 0.2779093629
H   H12       1.0  0.83660  0.89030  0.55680  1.0000 0.2779093629
H   H13       1.0  0.32510  0.68520  0.47140  1.0000 0.1662708802
H   H14       1.0  0.67490  0.31480  0.52860  1.0000 0.1662708802
H   H15       1.0  0.22480  0.69540  0.44290  1.0000 0.1662708802
H   H16       1.0  0.77520  0.30460  0.55710  1.0000 0.1662708802
H   H17       1.0  0.15180  0.49060  0.31110  1.0000 0.1106496846
H   H18       1.0  0.84820  0.50940  0.68890  1.0000 0.1106496846
H   H19       1.0  0.09160  0.55010  0.29610  1.0000 0.1207051051
H   H20       1.0  0.90840  0.44990  0.70390  1.0000 0.1207051051
H   H21       1.0  0.03600  0.40810  0.13870  1.0000 0.1106496846
H   H22       1.0  0.96400  0.59190  0.86130  1.0000 0.1106496846
H   H23       1.0  0.09760  0.52310  0.13730  1.0000 0.1293816919
H   H24       1.0  0.90240  0.47690  0.86270  1.0000 0.1293816919
H   H25       1.0  0.19270  0.40510  0.16170  1.0000 0.1106496846
H   H26       1.0  0.80730  0.59490  0.83830  1.0000 0.1106496846
H   H27       1.0  0.35970  0.54660  0.18580  1.0000 0.1207051051
H   H28       1.0  0.64030  0.45340  0.81420  1.0000 0.1207051051
H   H29       1.0  0.30690  0.61210  0.16780  1.0000 0.1293816919
H   H30       1.0  0.69310  0.38790  0.83220  1.0000 0.1293816919
H   H31       1.0  0.41250  0.68610  0.34140  1.0000 0.1293816919
H   H32       1.0  0.58750  0.31390  0.65860  1.0000 0.1293816919
H   H33       1.0  0.33950  0.56850  0.33460  1.0000 0.1207051051
H   H34       1.0  0.66050  0.43150  0.66540  1.0000 0.1207051051
H   H35       1.0  0.16420  0.78030  0.05570  1.0000 0.1769312268
H   H36       1.0  0.83580  0.21970  0.94430  1.0000 0.1769312268
H   H37       1.0  0.19990  0.69830  0.03090  1.0000 0.160835514
H   H38       1.0  0.80010  0.30170  0.96910  1.0000 0.160835514
H   H39       1.0  0.28210  0.71000  0.92180  1.0000 0.1106496846
H   H40       1.0  0.71790  0.29000  0.07820  1.0000 0.1106496846
H   H41       1.0  0.38620  0.78010  0.02400  1.0000 0.1293816919
H   H42       1.0  0.61380  0.21990  0.97600  1.0000 0.1293816919
H   H43       1.0  0.43570  0.80550  0.89240  1.0000 0.1207051051
H   H44       1.0  0.56430  0.19450  0.10760  1.0000 0.1207051051
H   H45       1.0  0.47160  0.91630  0.97540  1.0000 0.1106496846
H   H46       1.0  0.52840  0.08370  0.02460  1.0000 0.1106496846
H   H47       1.0  0.28550  0.79300  0.79270  1.0000 0.1106496846
H   H48       1.0  0.71450  0.20700  0.20730  1.0000 0.1106496846
H   H49       1.0  0.23440  0.91360  0.83710  1.0000 0.1207051051
H   H50       1.0  0.76560  0.08640  0.16290  1.0000 0.1207051051
H   H51       1.0  0.33780  0.98910  0.93970  1.0000 0.1293816919
H   H52       1.0  0.66220  0.01090  0.06030  1.0000 0.1293816919
H   H53       1.0  0.18720  0.88220  0.96670  1.0000 0.1293816919
H   H54       1.0  0.81280  0.11780  0.03330  1.0000 0.1293816919
H   H55       1.0  0.15960  0.77350  0.88700  1.0000 0.1106496846
H   H56       1.0  0.84040  0.22650  0.11300  1.0000 0.1106496846
H   H57       1.0  0.33100  0.31900  0.51180  1.0000 0.160835514
H   H58       1.0  0.66900  0.68100  0.48820  1.0000 0.160835514
H   H59       1.0  0.28230  0.25260  0.39570  1.0000 0.1769312268
H   H60       1.0  0.71770  0.74740  0.60430  1.0000 0.1769312268
H   H61       1.0  0.11110  0.24410  0.39870  1.0000 0.1106496846
H   H62       1.0  0.88890  0.75590  0.60130  1.0000 0.1106496846
H   H63       1.0  0.09400  0.14420  0.31570  1.0000 0.1293816919
H   H64       1.0  0.90600  0.85580  0.68430  1.0000 0.1293816919
H   H65       1.0  0.92760  0.10050  0.32590  1.0000 0.1207051051
H   H66       1.0  0.07240  0.89950  0.67410  1.0000 0.1207051051
H   H67       1.0  0.96280  0.02650  0.35600  1.0000 0.1293816919
H   H68       1.0  0.03720  0.97350  0.64400  1.0000 0.1293816919
H   H69       1.0  0.99120  0.21010  0.49380  1.0000 0.1106496846
H   H70       1.0  0.00880  0.78990  0.50620  1.0000 0.1106496846
H   H71       1.0  0.07510  0.18810  0.62450  1.0000 0.1293816919
H   H72       1.0  0.92490  0.81190  0.37550  1.0000 0.1293816919
H   H73       1.0  0.05660  0.08240  0.54860  1.0000 0.1106496846
H   H74       1.0  0.94340  0.91760  0.45140  1.0000 0.1106496846
H   H75       1.0  0.23840  0.22810  0.61050  1.0000 0.1207051051
H   H76       1.0  0.76160  0.77190  0.38950  1.0000 0.1207051051
H   H77       1.0  0.20000  0.29820  0.57630  1.0000 0.1106496846
H   H78       1.0  0.80000  0.70180  0.42370  1.0000 0.1106496846
H   H79       1.0  0.99870  0.83220  0.97470  1.0000 0.1207051051
H   H80       1.0  0.00130  0.16780  0.02530  1.0000 0.1207051051
H   H81       1.0  0.86910  0.82490  0.84140  1.0000 0.1106496846
H   H82       1.0  0.13090  0.17510  0.15860  1.0000 0.1106496846
H   H83       1.0  0.76150  0.93220  0.03990  1.0000 0.1106496846
H   H84       1.0  0.23850  0.06780  0.96010  1.0000 0.1106496846
H   H85       1.0  0.88910  0.94140  0.16990  1.0000 0.1106496846
H   H86       1.0  0.11090  0.05860  0.83010  1.0000 0.1106496846
H   H87       1.0  0.98940  0.59320  0.42190  1.0000 0.1293816919
H   H88       1.0  0.01060  0.40680  0.57810  1.0000 0.1293816919
H   H89       1.0  0.83820  0.45000  0.42750  1.0000 0.1207051051
H   H90       1.0  0.16180  0.55000  0.57250  1.0000 0.1207051051
H   H91       1.0  0.63380  0.41990  0.17990  1.0000 0.1293816919
H   H92       1.0  0.36620  0.58010  0.82010  1.0000 0.1293816919
H   H93       1.0  0.78230  0.55350  0.16720  1.0000 0.1207051051
H   H94       1.0  0.21770  0.44650  0.83280  1.0000 0.1207051051
C   C1        1.0  0.28980  0.70990  0.43190  1.0000 -0.4163218195
C   C2        1.0  0.71020  0.29010  0.56810  1.0000 -0.4163218195
C   C3        1.0  0.14470  0.53740  0.28140  1.0000 -0.0897910165
C   C4        1.0  0.85530  0.46260  0.71860  1.0000 -0.0897910165
C   C5        1.0  0.10640  0.47720  0.16720  1.0000 -0.1929351444
C   C6        1.0  0.89360  0.52280  0.83280  1.0000 -0.1929351444
C   C7        1.0  0.19050  0.45810  0.13890  1.0000 -0.1172806384
C   C8        1.0  0.80950  0.54190  0.86110  1.0000 -0.1172806384
C   C9        1.0  0.30650  0.56190  0.19610  1.0000 -0.212513184
C   C10       1.0  0.69350  0.43810  0.80390  1.0000 -0.212513184
C   C11       1.0  0.33970  0.61910  0.30700  1.0000 -0.0796424093
C   C12       1.0  0.66030  0.38090  0.69300  1.0000 -0.0796424093
C   C13       1.0  0.15800  0.41100  0.02600  1.0000 0.5504205769
C   C14       1.0  0.84200  0.58900  0.97400  1.0000 0.5504205769
C   C15       1.0  0.22690  0.77500  0.06440  1.0000 -0.4414110089
C   C16       1.0  0.77310  0.22500  0.93560  1.0000 -0.4414110089
C   C17       1.0  0.33960  0.78410  0.97130  1.0000 -0.0990651289
C   C18       1.0  0.66040  0.21590  0.02870  1.0000 -0.0990651289
C   C19       1.0  0.40870  0.84560  0.92400  1.0000 -0.2210723141
C   C20       1.0  0.59130  0.15440  0.07600  1.0000 -0.2210723141
C   C21       1.0  0.34170  0.86470  0.84710  1.0000 -0.1172806384
C   C22       1.0  0.65830  0.13530  0.15290  1.0000 -0.1172806384
C   C23       1.0  0.28410  0.91370  0.89080  1.0000 -0.2210723141
C   C24       1.0  0.71590  0.08630  0.10920  1.0000 -0.2210723141
C   C25       1.0  0.21890  0.84660  0.93730  1.0000 -0.0897910165
C   C26       1.0  0.78110  0.15340  0.06270  1.0000 -0.0897910165
C   C27       1.0  0.41100  0.93650  0.80270  1.0000 0.6343717819
C   C28       1.0  0.58900  0.06350  0.19730  1.0000 0.6343717819
C   C29       1.0  0.29190  0.24620  0.45830  1.0000 -0.4163218195
C   C30       1.0  0.70810  0.75380  0.54170  1.0000 -0.4163218195
C   C31       1.0  0.09370  0.17030  0.38070  1.0000 -0.0990651289
C   C32       1.0  0.90630  0.82970  0.61930  1.0000 -0.0990651289
C   C33       1.0  0.98160  0.10090  0.37560  1.0000 -0.2210723141
C   C34       1.0  0.01840  0.89910  0.62440  1.0000 -0.2210723141
C   C35       1.0  0.97700  0.13770  0.47820  1.0000 -0.1172806384
C   C36       1.0  0.02300  0.86230  0.52180  1.0000 -0.1172806384
C   C37       1.0  0.07230  0.15470  0.55960  1.0000 -0.2210723141
C   C38       1.0  0.92770  0.84530  0.44040  1.0000 -0.2210723141
C   C39       1.0  0.18170  0.22440  0.56070  1.0000 -0.1089121157
C   C40       1.0  0.81830  0.77560  0.43930  1.0000 -0.1089121157
C   C41       1.0  0.86560  0.06670  0.47660  1.0000 0.6238338595
C   C42       1.0  0.13440  0.93330  0.52340  1.0000 0.6238338595
C   C43       1.0  0.04800  0.90440  0.16820  1.0000 0.5504205769
C   C44       1.0  0.95200  0.09560  0.83180  1.0000 0.5504205769
C   C45       1.0  0.95970  0.89320  0.08520  1.0000 0.0012621768
C   C46       1.0  0.04030  0.10680  0.91480  1.0000 0.0012621768
C   C47       1.0  0.95120  0.85520  0.98760  1.0000 -0.1172806384
C   C48       1.0  0.04880  0.14480  0.01240  1.0000 -0.1172806384
C   C49       1.0  0.87290  0.84840  0.90840  1.0000 -0.0990651289
C   C50       1.0  0.12710  0.15160  0.09160  1.0000 -0.0990651289
C   C51       1.0  0.80150  0.88080  0.92760  1.0000 -0.0450397039
C   C52       1.0  0.19850  0.11920  0.07240  1.0000 -0.0450397039
C   C53       1.0  0.81090  0.91200  0.02730  1.0000 -0.0990651289
C   C54       1.0  0.18910  0.08800  0.97270  1.0000 -0.0990651289
C   C55       1.0  0.88820  0.92130  0.10380  1.0000 -0.1089121157
C   C56       1.0  0.11180  0.07870  0.89620  1.0000 -0.1172806384
C   C57       1.0  0.72110  0.87330  0.84740  1.0000 0.5504205769
C   C58       1.0  0.27890  0.12670  0.15260  1.0000 0.5504205769
C   C59       1.0  0.99820  0.68020  0.29400  1.0000 0.5235704725
C   C60       1.0  0.00180  0.31980  0.70600  1.0000 0.5235704725
C   C61       1.0  0.89780  0.58600  0.29590  1.0000 -0.0020961938
C   C62       1.0  0.10220  0.41400  0.70410  1.0000 -0.0020961938
C   C63       1.0  0.91550  0.55620  0.37190  1.0000 -0.1251011694
C   C64       1.0  0.08450  0.44380  0.62810  1.0000 -0.1251011694
C   C65       1.0  0.82650  0.47320  0.37490  1.0000 -0.1172806384
C   C66       1.0  0.17350  0.52680  0.62510  1.0000 -0.1172806384
C   C67       1.0  0.71980  0.41950  0.30230  1.0000 -0.0171436703
C   C68       1.0  0.28020  0.58050  0.69770  1.0000 -0.0171436703
C   C69       1.0  0.70740  0.45420  0.22910  1.0000 -0.0990651289
C   C70       1.0  0.29260  0.54580  0.77090  1.0000 -0.0990651289
C   C71       1.0  0.79260  0.53440  0.22290  1.0000 -0.1089121157
C   C72       1.0  0.20740  0.46560  0.77710  1.0000 -0.1089121157
C   C73       1.0  0.62760  0.33070  0.30900  1.0000 0.5504205769
C   C74       1.0  0.37240  0.66930  0.69100  1.0000 0.5504205769
N   N1        1.0  0.25610  0.64030  0.32410  1.0000 0.0248977935
N   N2        1.0  0.74390  0.35970  0.67590  1.0000 0.0248977935
N   N3        1.0  0.28850  0.83770  0.01570  1.0000 0.0384039983
N   N4        1.0  0.71150  0.16230  0.98430  1.0000 0.0384039983
N   N5        1.0  0.18070  0.17900  0.45810  1.0000 0.0384039983
N   N6        1.0  0.81930  0.82100  0.54190  1.0000 0.0384039983
O   O1        1.0  0.44600  0.90570  0.59130  1.0000 -0.9332437072
O   O2        1.0  0.55400  0.09430  0.40870  1.0000 -0.9332437072
O   O3        1.0  0.45380  0.87340  0.42080  1.0000 -0.8626565093
O   O4        1.0  0.54620  0.12660  0.57920  1.0000 -0.8626565093
O   O5        1.0  0.31840  0.91070  0.46320  1.0000 -0.9332437072
O   O6        1.0  0.68160  0.08930  0.53680  1.0000 -0.9332437072
O   O7        1.0  0.07280  0.38760  0.97140  1.0000 -0.4623199011
O   O8        1.0  0.92720  0.61240  0.02860  1.0000 -0.4623199011
O   O9        1.0  0.22650  0.39880  0.99650  1.0000 -0.4414110089
O   O10       1.0  0.77350  0.60120  0.00350  1.0000 -0.4414110089
O   O11       1.0  0.22080  0.75240  0.22890  1.0000 -0.8326911385
O   O12       1.0  0.77920  0.24760  0.77110  1.0000 -0.8326911385
O   O13       1.0  0.32990  0.94450  0.25050  1.0000 -0.9332437072
O   O14       1.0  0.67010  0.05550  0.74950  1.0000 -0.9332437072
O   O15       1.0  0.40620  0.82710  0.21440  1.0000 -0.83965913
O   O16       1.0  0.59380  0.17290  0.78560  1.0000 -0.83965913
O   O17       1.0  0.50380  0.94800  0.81740  1.0000 -0.6823281104
O   O18       1.0  0.49620  0.05200  0.18260  1.0000 -0.6823281104
O   O19       1.0  0.37080  0.97480  0.75350  1.0000 -0.6705537195
O   O20       1.0  0.62920  0.02520  0.24650  1.0000 -0.6705537195
O   O21       1.0  0.38730  0.17930  0.57700  1.0000 -0.8910855407
O   O22       1.0  0.61270  0.82070  0.42300  1.0000 -0.8910855407
O   O23       1.0  0.31220  0.07720  0.38810  1.0000 -0.9474025721
O   O24       1.0  0.68780  0.92280  0.61190  1.0000 -0.9474025721
O   O25       1.0  0.47740  0.26220  0.46760  1.0000 -0.8326911385
O   O26       1.0  0.52260  0.73780  0.53240  1.0000 -0.8326911385
O   O27       1.0  0.78250  0.03570  0.40210  1.0000 -0.663730433
O   O28       1.0  0.21750  0.96430  0.59790  1.0000 -0.663730433
O   O29       1.0  0.85970  0.03880  0.54710  1.0000 -0.663730433
O   O30       1.0  0.14030  0.96120  0.45290  1.0000 -0.663730433
O   O31       1.0  0.08780  0.72890  0.36240  1.0000 -0.5579326505
O   O32       1.0  0.91220  0.27110  0.63760  1.0000 -0.5579326505
O   O33       1.0  0.98100  0.71080  0.22550  1.0000 -0.6083131189
O   O34       1.0  0.01900  0.28920  0.77450  1.0000 -0.6083131189
O   O35       1.0  0.64550  0.28060  0.35710  1.0000 -0.5996493453
O   O36       1.0  0.35450  0.71940  0.64290  1.0000 -0.5996493453
O   O37       1.0  0.53010  0.30140  0.26170  1.0000 -0.6083131189
O   O38       1.0  0.46990  0.69860  0.73830  1.0000 -0.6083131189
O   O39       1.0  0.05640  0.94800  0.25740  1.0000 -0.641579991
O   O40       1.0  0.94360  0.05200  0.74260  1.0000 -0.641579991
O   O41       1.0  0.10110  0.86690  0.14850  1.0000 -0.5767985339
O   O42       1.0  0.89890  0.13310  0.85150  1.0000 -0.5767985339
O   O43       1.0  0.69830  0.82030  0.75630  1.0000 -0.6173922176
O   O44       1.0  0.30170  0.17970  0.24370  1.0000 -0.6173922176
O   O45       1.0  0.68090  0.92770  0.87310  1.0000 -0.6173922176
O   O46       1.0  0.31910  0.07230  0.12690  1.0000 -0.6173922176
O   O47       1.0  0.59720  0.81160  0.22730  1.0000 -0.7483530993
O   O48       1.0  0.40280  0.18840  0.77270  1.0000 -0.7483530993
