# DDEC6 charges by PACMAN v1.1 (https://github.com/mtap-research/PACMAN-charge/)
data_2012[Zn][nod]3[FSR]1
_chemical_formula_sum              "Zn8 H24 C40 Br8 N32"
_cell_length_a       13.636
_cell_length_b       10.209
_cell_length_c       19.362
_cell_angle_alpha    90
_cell_angle_beta     133.181
_cell_angle_gamma    90

_symmetry_space_group_name_H-M    "P 1"
_symmetry_Int_Tables_number       1

loop_
  _symmetry_equiv_pos_as_xyz
  'x, y, z'

loop_
  _atom_site_type_symbol
  _atom_site_label
  _atom_site_symmetry_multiplicity
  _atom_site_fract_x
  _atom_site_fract_y
  _atom_site_fract_z
  _atom_site_occupancy
  _atom_site_charge
Zn  Zn1       1.0  0.98927  0.08513  0.32673  1.0000 0.6078341139
Zn  Zn2       1.0  0.01073  0.58513  0.17327  1.0000 0.6078341139
Zn  Zn3       1.0  0.01073  0.91487  0.67327  1.0000 0.6078341139
Zn  Zn4       1.0  0.98927  0.41487  0.82673  1.0000 0.6078341139
Zn  Zn5       1.0  0.34671  0.50397  0.65462  1.0000 0.6078341139
Zn  Zn6       1.0  0.65329  0.00397  0.84538  1.0000 0.6078341139
Zn  Zn7       1.0  0.65329  0.49603  0.34538  1.0000 0.6078341139
Zn  Zn8       1.0  0.34671  0.99603  0.15462  1.0000 0.6078341139
H   H1        1.0  0.21320  0.91110  0.47640  1.0000 0.1007225482
H   H2        1.0  0.78680  0.41110  0.02360  1.0000 0.1007225482
H   H3        1.0  0.78680  0.08890  0.52360  1.0000 0.1007225482
H   H4        1.0  0.21320  0.58890  0.97640  1.0000 0.1007225482
H   H5        1.0  0.56380  0.29560  0.81100  1.0000 0.1007225482
H   H6        1.0  0.43620  0.79560  0.68900  1.0000 0.1007225482
H   H7        1.0  0.43620  0.70440  0.18900  1.0000 0.1007225482
H   H8        1.0  0.56380  0.20440  0.31100  1.0000 0.1007225482
H   H9        1.0  0.16330  0.29340  0.47820  1.0000 0.1136882586
H   H10       1.0  0.83670  0.79340  0.02180  1.0000 0.1136882586
H   H11       1.0  0.83670  0.70660  0.52180  1.0000 0.1136882586
H   H12       1.0  0.16330  0.20660  0.97820  1.0000 0.1136882586
H   H13       1.0  0.76030  0.67770  0.29110  1.0000 0.1007225482
H   H14       1.0  0.23970  0.17770  0.20890  1.0000 0.1007225482
H   H15       1.0  0.23970  0.32230  0.70890  1.0000 0.1007225482
H   H16       1.0  0.76030  0.82230  0.79110  1.0000 0.1007225482
H   H17       1.0  0.04850  0.29150  0.23720  1.0000 0.1007225482
H   H18       1.0  0.95150  0.79150  0.26280  1.0000 0.1007225482
H   H19       1.0  0.95150  0.70850  0.76280  1.0000 0.1007225482
H   H20       1.0  0.04850  0.20850  0.73720  1.0000 0.1007225482
H   H21       1.0  0.82440  0.29820  0.35030  1.0000 0.122613391
H   H22       1.0  0.17560  0.79820  0.14970  1.0000 0.122613391
H   H23       1.0  0.17560  0.70180  0.64970  1.0000 0.122613391
H   H24       1.0  0.82440  0.20180  0.85030  1.0000 0.122613391
C   C1        1.0  0.24530  0.99050  0.51140  1.0000 0.2034476978
C   C2        1.0  0.75470  0.49050  0.98860  1.0000 0.2034476978
C   C3        1.0  0.75470  0.00950  0.48860  1.0000 0.2034476978
C   C4        1.0  0.24530  0.50950  0.01140  1.0000 0.2034476978
C   C5        1.0  0.39750  0.09880  0.64760  1.0000 0.2965902296
C   C6        1.0  0.60250  0.59880  0.85240  1.0000 0.2965902296
C   C7        1.0  0.60250  0.90120  0.35240  1.0000 0.2965902296
C   C8        1.0  0.39750  0.40120  0.14760  1.0000 0.2965902296
C   C9        1.0  0.49980  0.25200  0.75190  1.0000 0.2099156362
C   C10       1.0  0.50020  0.75200  0.74810  1.0000 0.2099156362
C   C11       1.0  0.50020  0.74800  0.24810  1.0000 0.2099156362
C   C12       1.0  0.49980  0.24800  0.25190  1.0000 0.2099156362
C   C13       1.0  0.32900  0.21780  0.60430  1.0000 0.0654079747
C   C14       1.0  0.67100  0.71780  0.89570  1.0000 0.0654079747
C   C15       1.0  0.67100  0.78220  0.39570  1.0000 0.064994326
C   C16       1.0  0.32900  0.28220  0.10430  1.0000 0.064994326
C   C17       1.0  0.21310  0.21540  0.51020  1.0000 0.0460145158
C   C18       1.0  0.78690  0.71540  0.98980  1.0000 0.0460145158
C   C19       1.0  0.78690  0.78460  0.48980  1.0000 0.0460145158
C   C20       1.0  0.21310  0.28460  0.01020  1.0000 0.0460145158
C   C21       1.0  0.79630  0.59820  0.29090  1.0000 0.2034476978
C   C22       1.0  0.20370  0.09820  0.20910  1.0000 0.2034476978
C   C23       1.0  0.20370  0.40180  0.70910  1.0000 0.2034476978
C   C24       1.0  0.79630  0.90180  0.79090  1.0000 0.2034476978
C   C25       1.0  0.90710  0.48890  0.26250  1.0000 0.2876039949
C   C26       1.0  0.09290  0.98890  0.23750  1.0000 0.2876039949
C   C27       1.0  0.09290  0.51110  0.73750  1.0000 0.2876039949
C   C28       1.0  0.90710  0.01110  0.76250  1.0000 0.2876039949
C   C29       1.0  0.00160  0.33560  0.25040  1.0000 0.2099156362
C   C30       1.0  0.99840  0.83560  0.24960  1.0000 0.2099156362
C   C31       1.0  0.99840  0.66440  0.74960  1.0000 0.2099156362
C   C32       1.0  0.00160  0.16440  0.75040  1.0000 0.2099156362
C   C33       1.0  0.89630  0.37090  0.29450  1.0000 0.064994326
C   C34       1.0  0.10370  0.87090  0.20550  1.0000 0.0654079747
C   C35       1.0  0.10370  0.62910  0.70550  1.0000 0.0654079747
C   C36       1.0  0.89630  0.12910  0.79450  1.0000 0.064994326
C   C37       1.0  0.83220  0.37470  0.32640  1.0000 0.0383314054
C   C38       1.0  0.16780  0.87470  0.17360  1.0000 0.0383314054
C   C39       1.0  0.16780  0.62530  0.67360  1.0000 0.0383314054
C   C40       1.0  0.83220  0.12530  0.82640  1.0000 0.0383314054
Br  Br1       1.0  0.82812  0.99300  0.32341  1.0000 -0.4996846857
Br  Br2       1.0  0.17188  0.49300  0.17659  1.0000 -0.4996846857
Br  Br3       1.0  0.17188  0.00700  0.67659  1.0000 -0.4996846857
Br  Br4       1.0  0.82812  0.50700  0.82341  1.0000 -0.4996846857
Br  Br5       1.0  0.23274  0.59107  0.50410  1.0000 -0.4865373093
Br  Br6       1.0  0.76726  0.09107  0.99590  1.0000 -0.4865373093
Br  Br7       1.0  0.76726  0.40893  0.49590  1.0000 -0.4865373093
Br  Br8       1.0  0.23274  0.90893  0.00410  1.0000 -0.4865373093
N   N1        1.0  0.17120  0.10030  0.46400  1.0000 -0.2544195744
N   N2        1.0  0.82880  0.60030  0.03600  1.0000 -0.2544195744
N   N3        1.0  0.82880  0.89970  0.53600  1.0000 -0.2550180349
N   N4        1.0  0.17120  0.39970  0.96400  1.0000 -0.2544195744
N   N5        1.0  0.35890  0.98450  0.60250  1.0000 -0.3178936857
N   N6        1.0  0.64110  0.48450  0.89750  1.0000 -0.3178936857
N   N7        1.0  0.64110  0.01550  0.39750  1.0000 -0.3178936857
N   N8        1.0  0.35890  0.51550  0.10250  1.0000 -0.3178936857
N   N9        1.0  0.50600  0.12100  0.74210  1.0000 -0.3588038179
N   N10       1.0  0.49400  0.62100  0.75790  1.0000 -0.3588038179
N   N11       1.0  0.49400  0.87900  0.25790  1.0000 -0.3588038179
N   N12       1.0  0.50600  0.37900  0.24210  1.0000 -0.3588038179
N   N13       1.0  0.39770  0.31490  0.67280  1.0000 -0.3178936857
N   N14       1.0  0.60230  0.81490  0.82720  1.0000 -0.3178936857
N   N15       1.0  0.60230  0.68510  0.32720  1.0000 -0.3178936857
N   N16       1.0  0.39770  0.18510  0.17280  1.0000 -0.3178936857
N   N17       1.0  0.78080  0.48940  0.32290  1.0000 -0.2550180349
N   N18       1.0  0.21920  0.98940  0.17710  1.0000 -0.2550180349
N   N19       1.0  0.21920  0.51060  0.67710  1.0000 -0.2550180349
N   N20       1.0  0.78080  0.01060  0.82290  1.0000 -0.2550180349
N   N21       1.0  0.85720  0.60370  0.25920  1.0000 -0.3178936857
N   N22       1.0  0.14280  0.10370  0.24080  1.0000 -0.3178936857
N   N23       1.0  0.14280  0.39630  0.74080  1.0000 -0.3178936857
N   N24       1.0  0.85720  0.89630  0.75920  1.0000 -0.3178936857
N   N25       1.0  0.97400  0.46510  0.23430  1.0000 -0.3588038179
N   N26       1.0  0.02600  0.96510  0.26570  1.0000 -0.3588038179
N   N27       1.0  0.02600  0.53490  0.76570  1.0000 -0.3588038179
N   N28       1.0  0.97400  0.03490  0.73430  1.0000 -0.3588038179
N   N29       1.0  0.95840  0.27350  0.28650  1.0000 -0.3134312722
N   N30       1.0  0.04160  0.77350  0.21350  1.0000 -0.3134312722
N   N31       1.0  0.04160  0.72650  0.71350  1.0000 -0.3134312722
N   N32       1.0  0.95840  0.22650  0.78650  1.0000 -0.3134312722
