# DDEC6 charges by PACMAN v1.1 (https://github.com/mtap-research/PACMAN-charge/)
data_2012[Cd][nan]3[FSR]8
_chemical_formula_sum              "Cd12 H40 C32 O56"
_cell_length_a       9.4417
_cell_length_b       13.7005
_cell_length_c       15.6523
_cell_angle_alpha    90
_cell_angle_beta     90
_cell_angle_gamma    90

_symmetry_space_group_name_H-M    "P 1"
_symmetry_Int_Tables_number       1

loop_
  _symmetry_equiv_pos_as_xyz
  'x, y, z'

loop_
  _atom_site_type_symbol
  _atom_site_label
  _atom_site_symmetry_multiplicity
  _atom_site_fract_x
  _atom_site_fract_y
  _atom_site_fract_z
  _atom_site_occupancy
  _atom_site_charge
Cd  Cd1       1.0  0.39626  0.13221  0.49733  1.0000 0.9625450115
Cd  Cd2       1.0  0.39626  0.86779  0.50267  1.0000 0.9625450115
Cd  Cd3       1.0  0.60374  0.36779  0.99733  1.0000 0.9625450115
Cd  Cd4       1.0  0.60374  0.63221  0.00267  1.0000 0.9625450115
Cd  Cd5       1.0  0.13413  0.00129  0.61262  1.0000 0.9625450115
Cd  Cd6       1.0  0.13413  0.99871  0.38738  1.0000 0.9625450115
Cd  Cd7       1.0  0.86587  0.49871  0.11262  1.0000 0.9625450115
Cd  Cd8       1.0  0.86587  0.50129  0.88738  1.0000 0.9625450115
Cd  Cd9       1.0  0.20859  0.26833  0.22264  1.0000 0.9971827309
Cd  Cd10      1.0  0.20859  0.73167  0.77736  1.0000 0.9971827309
Cd  Cd11      1.0  0.79141  0.23167  0.72264  1.0000 0.9971827309
Cd  Cd12      1.0  0.79141  0.76833  0.27736  1.0000 0.9971827309
H   H1        1.0  0.33400  0.31900  0.55000  1.0000 0.3584722287
H   H2        1.0  0.33400  0.68100  0.45000  1.0000 0.3584722287
H   H3        1.0  0.66600  0.18100  0.05000  1.0000 0.3584722287
H   H4        1.0  0.66600  0.81900  0.95000  1.0000 0.3584722287
H   H5        1.0  0.19100  0.08900  0.75700  1.0000 0.3584722287
H   H6        1.0  0.19100  0.91100  0.24300  1.0000 0.3584722287
H   H7        1.0  0.80900  0.41100  0.25700  1.0000 0.3584722287
H   H8        1.0  0.80900  0.58900  0.74300  1.0000 0.3584722287
H   H9        1.0  0.62100  0.18900  0.37930  1.0000 0.3309663872
H   H10       1.0  0.62100  0.81100  0.62070  1.0000 0.3309663872
H   H11       1.0  0.37900  0.31100  0.87930  1.0000 0.3309663872
H   H12       1.0  0.37900  0.68900  0.12070  1.0000 0.3309663872
H   H13       1.0  0.62300  0.22700  0.45900  1.0000 0.3355651388
H   H14       1.0  0.62300  0.77300  0.54100  1.0000 0.3355651388
H   H15       1.0  0.37700  0.27300  0.95900  1.0000 0.3355651388
H   H16       1.0  0.37700  0.72700  0.04100  1.0000 0.3355651388
H   H17       1.0  0.89200  0.93500  0.68740  1.0000 0.3584722287
H   H18       1.0  0.89200  0.06500  0.31260  1.0000 0.3546851913
H   H19       1.0  0.10800  0.56500  0.18740  1.0000 0.3546851913
H   H20       1.0  0.10800  0.43500  0.81260  1.0000 0.3546851913
H   H21       1.0  0.86200  0.96000  0.60600  1.0000 0.3355651388
H   H22       1.0  0.86200  0.04000  0.39400  1.0000 0.3355651388
H   H23       1.0  0.13800  0.54000  0.10600  1.0000 0.3355651388
H   H24       1.0  0.13800  0.46000  0.89400  1.0000 0.3355651388
H   H25       1.0  0.10850  0.34370  0.50920  1.0000 0.113548243
H   H26       1.0  0.10850  0.65630  0.49080  1.0000 0.113548243
H   H27       1.0  0.89150  0.15630  0.00920  1.0000 0.113548243
H   H28       1.0  0.89150  0.84370  0.99080  1.0000 0.113548243
H   H29       1.0  0.99330  0.19200  0.46220  1.0000 0.113548243
H   H30       1.0  0.99330  0.80800  0.53780  1.0000 0.113548243
H   H31       1.0  0.00670  0.30800  0.96220  1.0000 0.113548243
H   H32       1.0  0.00670  0.69200  0.03780  1.0000 0.113548243
H   H33       1.0  0.43360  0.03650  0.79820  1.0000 0.113548243
H   H34       1.0  0.43360  0.96350  0.20180  1.0000 0.113548243
H   H35       1.0  0.56640  0.46350  0.29820  1.0000 0.113548243
H   H36       1.0  0.56640  0.53650  0.70180  1.0000 0.113548243
H   H37       1.0  0.52530  0.94930  0.67130  1.0000 0.1049340258
H   H38       1.0  0.52530  0.05070  0.32870  1.0000 0.1049340258
H   H39       1.0  0.47470  0.55070  0.17130  1.0000 0.1049340258
H   H40       1.0  0.47470  0.44930  0.82870  1.0000 0.1049340258
C   C1        1.0  0.21180  0.27930  0.40450  1.0000 0.5488263707
C   C2        1.0  0.21180  0.72070  0.59550  1.0000 0.5488263707
C   C3        1.0  0.78820  0.22070  0.90450  1.0000 0.5488263707
C   C4        1.0  0.78820  0.77930  0.09550  1.0000 0.5488263707
C   C5        1.0  0.16190  0.28220  0.49730  1.0000 0.0102597474
C   C6        1.0  0.16190  0.71780  0.50270  1.0000 0.0102597474
C   C7        1.0  0.83810  0.21780  0.99730  1.0000 0.0102597474
C   C8        1.0  0.83810  0.78220  0.00270  1.0000 0.0102597474
C   C9        1.0  0.06520  0.19170  0.50920  1.0000 0.0214237811
C   C10       1.0  0.06520  0.80830  0.49080  1.0000 0.0214237811
C   C11       1.0  0.93480  0.30830  0.00920  1.0000 0.0214237811
C   C12       1.0  0.93480  0.69170  0.99080  1.0000 0.0214237811
C   C13       1.0  0.98750  0.20050  0.59310  1.0000 0.556923006
C   C14       1.0  0.98750  0.79950  0.40690  1.0000 0.556923006
C   C15       1.0  0.01250  0.29950  0.09310  1.0000 0.556923006
C   C16       1.0  0.01250  0.70050  0.90690  1.0000 0.556923006
C   C17       1.0  0.30410  0.91920  0.76090  1.0000 0.5488263707
C   C18       1.0  0.30410  0.08080  0.23910  1.0000 0.5488263707
C   C19       1.0  0.69590  0.58080  0.26090  1.0000 0.5488263707
C   C20       1.0  0.69590  0.41920  0.73910  1.0000 0.5488263707
C   C21       1.0  0.37400  0.01850  0.74780  1.0000 0.0102597474
C   C22       1.0  0.37400  0.98150  0.25220  1.0000 0.0102597474
C   C23       1.0  0.62600  0.48150  0.24780  1.0000 0.0102597474
C   C24       1.0  0.62600  0.51850  0.75220  1.0000 0.0102597474
C   C25       1.0  0.46600  0.00940  0.66570  1.0000 0.0214237811
C   C26       1.0  0.46600  0.99060  0.33430  1.0000 0.0214237811
C   C27       1.0  0.53400  0.49060  0.16570  1.0000 0.0214237811
C   C28       1.0  0.53400  0.50940  0.83430  1.0000 0.0214237811
C   C29       1.0  0.56520  0.09650  0.66250  1.0000 0.570903335
C   C30       1.0  0.56520  0.90350  0.33750  1.0000 0.570903335
C   C31       1.0  0.43480  0.40350  0.16250  1.0000 0.570903335
C   C32       1.0  0.43480  0.59650  0.83750  1.0000 0.570903335
O   O1        1.0  0.32510  0.23970  0.38590  1.0000 -0.5410642435
O   O2        1.0  0.32510  0.76030  0.61410  1.0000 -0.5410642435
O   O3        1.0  0.67490  0.26030  0.88590  1.0000 -0.5410642435
O   O4        1.0  0.67490  0.73970  0.11410  1.0000 -0.5410642435
O   O5        1.0  0.12390  0.31040  0.34850  1.0000 -0.5195438077
O   O6        1.0  0.12390  0.68960  0.65150  1.0000 -0.5195438077
O   O7        1.0  0.87610  0.18960  0.84850  1.0000 -0.5195438077
O   O8        1.0  0.87610  0.81040  0.15150  1.0000 -0.5195438077
O   O9        1.0  0.27640  0.27190  0.55430  1.0000 -0.4350365062
O   O10       1.0  0.27640  0.72810  0.44570  1.0000 -0.4350365062
O   O11       1.0  0.72360  0.22810  0.05430  1.0000 -0.4344736894
O   O12       1.0  0.72360  0.77190  0.94570  1.0000 -0.4350365062
O   O13       1.0  0.14620  0.10740  0.50110  1.0000 -0.6275132854
O   O14       1.0  0.14620  0.89260  0.49890  1.0000 -0.6275132854
O   O15       1.0  0.85380  0.39260  0.00110  1.0000 -0.6275132854
O   O16       1.0  0.85380  0.60740  0.99890  1.0000 -0.6275132854
O   O17       1.0  0.99640  0.13560  0.64970  1.0000 -0.5833170672
O   O18       1.0  0.99640  0.86440  0.35030  1.0000 -0.5833170672
O   O19       1.0  0.00360  0.36440  0.14970  1.0000 -0.5833170672
O   O20       1.0  0.00360  0.63560  0.85030  1.0000 -0.5833170672
O   O21       1.0  0.90830  0.27500  0.60360  1.0000 -0.5195438077
O   O22       1.0  0.90830  0.72500  0.39640  1.0000 -0.5195438077
O   O23       1.0  0.09170  0.22500  0.10360  1.0000 -0.5195438077
O   O24       1.0  0.09170  0.77500  0.89640  1.0000 -0.5195438077
O   O25       1.0  0.18190  0.90440  0.73080  1.0000 -0.5533324142
O   O26       1.0  0.18190  0.09560  0.26920  1.0000 -0.5533324142
O   O27       1.0  0.81810  0.59560  0.23080  1.0000 -0.5533324142
O   O28       1.0  0.81810  0.40440  0.76920  1.0000 -0.5533324142
O   O29       1.0  0.37320  0.85450  0.80000  1.0000 -0.508120652
O   O30       1.0  0.37320  0.14550  0.20000  1.0000 -0.508120652
O   O31       1.0  0.62680  0.64550  0.30000  1.0000 -0.508120652
O   O32       1.0  0.62680  0.35450  0.70000  1.0000 -0.508120652
O   O33       1.0  0.27040  0.09150  0.73100  1.0000 -0.4475808178
O   O34       1.0  0.27040  0.90850  0.26900  1.0000 -0.4475808178
O   O35       1.0  0.72960  0.40850  0.23100  1.0000 -0.4475808178
O   O36       1.0  0.72960  0.59150  0.76900  1.0000 -0.4475808178
O   O37       1.0  0.38320  0.99920  0.59340  1.0000 -0.620457377
O   O38       1.0  0.38320  0.00080  0.40660  1.0000 -0.620457377
O   O39       1.0  0.61680  0.50080  0.09340  1.0000 -0.620457377
O   O40       1.0  0.61680  0.49920  0.90660  1.0000 -0.620457377
O   O41       1.0  0.55830  0.15790  0.60350  1.0000 -0.5410642435
O   O42       1.0  0.55830  0.84210  0.39650  1.0000 -0.5410642435
O   O43       1.0  0.44170  0.34210  0.10350  1.0000 -0.5410642435
O   O44       1.0  0.44170  0.65790  0.89650  1.0000 -0.5410642435
O   O45       1.0  0.65510  0.10070  0.72250  1.0000 -0.5410642435
O   O46       1.0  0.65510  0.89930  0.27750  1.0000 -0.5410642435
O   O47       1.0  0.34490  0.39930  0.22250  1.0000 -0.5410642435
O   O48       1.0  0.34490  0.60070  0.77750  1.0000 -0.5410642435
O   O49       1.0  0.61940  0.17370  0.43190  1.0000 -0.6506333908
O   O50       1.0  0.61940  0.82630  0.56810  1.0000 -0.6506333908
O   O51       1.0  0.38060  0.32630  0.93190  1.0000 -0.6506333908
O   O52       1.0  0.38060  0.67370  0.06810  1.0000 -0.6506333908
O   O53       1.0  0.91960  0.92730  0.63620  1.0000 -0.6432395686
O   O54       1.0  0.91960  0.07270  0.36380  1.0000 -0.6432395686
O   O55       1.0  0.08040  0.57270  0.13620  1.0000 -0.6432395686
O   O56       1.0  0.08040  0.42730  0.86380  1.0000 -0.6432395686
