# DDEC6 charges by PACMAN v1.1 (https://github.com/mtap-research/PACMAN-charge/)
data_2012[Co][ins]3[FSR]1
_chemical_formula_sum              "Co4 H32 C40 N4 O20"
_cell_length_a       6.7002
_cell_length_b       7.6817
_cell_length_c       27.1331
_cell_angle_alpha    90
_cell_angle_beta     90
_cell_angle_gamma    90

_symmetry_space_group_name_H-M    "P 1"
_symmetry_Int_Tables_number       1

loop_
  _symmetry_equiv_pos_as_xyz
  'x, y, z'

loop_
  _atom_site_type_symbol
  _atom_site_label
  _atom_site_symmetry_multiplicity
  _atom_site_fract_x
  _atom_site_fract_y
  _atom_site_fract_z
  _atom_site_occupancy
  _atom_site_charge
Co  Co1       1.0  0.00413  0.24966  0.28258  1.0000 0.9825089955
Co  Co2       1.0  0.99587  0.24966  0.71742  1.0000 0.9825089955
Co  Co3       1.0  0.49587  0.75034  0.78258  1.0000 0.9825089955
Co  Co4       1.0  0.50413  0.75034  0.21742  1.0000 0.9825089955
H   H1        1.0  0.38370  0.31050  0.38740  1.0000 0.1424570316
H   H2        1.0  0.61630  0.31050  0.61260  1.0000 0.1424570316
H   H3        1.0  0.11630  0.68950  0.88740  1.0000 0.1424570316
H   H4        1.0  0.88370  0.68950  0.11260  1.0000 0.1424570316
H   H5        1.0  0.01040  0.09040  0.15130  1.0000 0.0926246466
H   H6        1.0  0.98960  0.09040  0.84870  1.0000 0.0926246466
H   H7        1.0  0.48960  0.90960  0.65130  1.0000 0.0926246466
H   H8        1.0  0.51040  0.90960  0.34870  1.0000 0.0926246466
H   H9        1.0  0.85210  0.11660  0.46240  1.0000 0.1299067446
H   H10       1.0  0.14790  0.11660  0.53760  1.0000 0.1299067446
H   H11       1.0  0.64790  0.88340  0.96240  1.0000 0.1299067446
H   H12       1.0  0.35210  0.88340  0.03760  1.0000 0.1299067446
H   H13       1.0  0.71560  0.25570  0.14540  1.0000 0.1424570316
H   H14       1.0  0.28440  0.25570  0.85460  1.0000 0.1424570316
H   H15       1.0  0.78440  0.74430  0.64540  1.0000 0.1424570316
H   H16       1.0  0.21560  0.74430  0.35460  1.0000 0.1424570316
H   H17       1.0  0.90710  0.37010  0.13950  1.0000 0.1299067446
H   H18       1.0  0.09290  0.37010  0.86050  1.0000 0.1299067446
H   H19       1.0  0.59290  0.62990  0.63950  1.0000 0.1299067446
H   H20       1.0  0.40710  0.62990  0.36050  1.0000 0.1299067446
H   H21       1.0  0.58700  0.32170  0.31870  1.0000 0.1299067446
H   H22       1.0  0.41300  0.32170  0.68130  1.0000 0.1299067446
H   H23       1.0  0.91300  0.67830  0.81870  1.0000 0.1299067446
H   H24       1.0  0.08700  0.67830  0.18130  1.0000 0.1299067446
H   H25       1.0  0.03180  0.11670  0.38930  1.0000 0.1140449801
H   H26       1.0  0.96820  0.11670  0.61070  1.0000 0.1140449801
H   H27       1.0  0.46820  0.88330  0.88930  1.0000 0.1140449801
H   H28       1.0  0.53180  0.88330  0.11070  1.0000 0.1140449801
H   H29       1.0  0.33100  0.21620  0.47220  1.0000 0.1299067446
H   H30       1.0  0.66900  0.21620  0.52780  1.0000 0.1299067446
H   H31       1.0  0.16900  0.78380  0.97220  1.0000 0.1299067446
H   H32       1.0  0.83100  0.78380  0.02780  1.0000 0.1299067446
C   C1        1.0  0.51600  0.27470  0.38940  1.0000 -0.1833855575
C   C2        1.0  0.48400  0.27470  0.61060  1.0000 -0.1833855575
C   C3        1.0  0.98400  0.72530  0.88940  1.0000 -0.1833855575
C   C4        1.0  0.01600  0.72530  0.11060  1.0000 -0.1833855575
C   C5        1.0  0.95780  0.15030  0.18050  1.0000 0.0638737836
C   C6        1.0  0.04220  0.15030  0.81950  1.0000 0.0638737836
C   C7        1.0  0.54220  0.84970  0.68050  1.0000 0.0638737836
C   C8        1.0  0.45780  0.84970  0.31950  1.0000 0.0638737836
C   C9        1.0  0.75320  0.42510  0.20280  1.0000 0.6641715253
C   C10       1.0  0.24680  0.42510  0.79720  1.0000 0.6641715253
C   C11       1.0  0.74680  0.57490  0.70280  1.0000 0.6641715253
C   C12       1.0  0.25320  0.57490  0.29720  1.0000 0.6641715253
C   C13       1.0  0.59390  0.21460  0.43300  1.0000 0.1506200665
C   C14       1.0  0.40610  0.21460  0.56700  1.0000 0.1506200665
C   C15       1.0  0.90610  0.78540  0.93300  1.0000 0.1506200665
C   C16       1.0  0.09390  0.78540  0.06700  1.0000 0.1506200665
C   C17       1.0  0.79410  0.15720  0.43340  1.0000 -0.2105156864
C   C18       1.0  0.20590  0.15720  0.56660  1.0000 -0.2105156864
C   C19       1.0  0.70590  0.84280  0.93340  1.0000 -0.2105156864
C   C20       1.0  0.29410  0.84280  0.06660  1.0000 -0.2105156864
C   C21       1.0  0.82970  0.30240  0.16290  1.0000 -0.3727380699
C   C22       1.0  0.17030  0.30240  0.83710  1.0000 -0.3727380699
C   C23       1.0  0.67030  0.69760  0.66290  1.0000 -0.3727380699
C   C24       1.0  0.32970  0.69760  0.33710  1.0000 -0.3727380699
C   C25       1.0  0.64070  0.28070  0.34810  1.0000 0.1238831626
C   C26       1.0  0.35930  0.28070  0.65190  1.0000 0.1238831626
C   C27       1.0  0.85930  0.71930  0.84810  1.0000 0.1238831626
C   C28       1.0  0.14070  0.71930  0.15190  1.0000 0.1238831626
C   C29       1.0  0.83340  0.02040  0.20990  1.0000 0.5715330624
C   C30       1.0  0.16660  0.02040  0.79010  1.0000 0.5715330624
C   C31       1.0  0.66667  0.97960  0.70990  1.0000 0.5715330624
C   C32       1.0  0.33340  0.97960  0.29010  1.0000 0.5715330624
C   C33       1.0  0.90340  0.16270  0.38960  1.0000 0.0926246466
C   C34       1.0  0.09660  0.16270  0.61040  1.0000 0.0926246466
C   C35       1.0  0.59660  0.83730  0.88960  1.0000 0.0926246466
C   C36       1.0  0.40340  0.83730  0.11040  1.0000 0.0926246466
C   C37       1.0  0.46840  0.21550  0.47710  1.0000 -0.1292663356
C   C38       1.0  0.53160  0.21550  0.52290  1.0000 -0.1292663356
C   C39       1.0  0.03160  0.78450  0.97710  1.0000 -0.1292663356
C   C40       1.0  0.96840  0.78450  0.02290  1.0000 -0.1292663356
N   N1        1.0  0.83050  0.23170  0.34810  1.0000 -0.2105156864
N   N2        1.0  0.16950  0.23170  0.65190  1.0000 -0.2105156864
N   N3        1.0  0.66950  0.76830  0.84810  1.0000 -0.2105156864
N   N4        1.0  0.33050  0.76830  0.15190  1.0000 -0.2105156864
O   O1        1.0  0.72230  0.92190  0.18700  1.0000 -0.5432194984
O   O2        1.0  0.27770  0.92190  0.81300  1.0000 -0.5432194984
O   O3        1.0  0.77770  0.07810  0.68700  1.0000 -0.5432194984
O   O4        1.0  0.22230  0.07810  0.31300  1.0000 -0.5432194984
O   O5        1.0  0.12420  0.21840  0.20800  1.0000 -0.4156307196
O   O6        1.0  0.87580  0.21840  0.79200  1.0000 -0.4156307196
O   O7        1.0  0.37580  0.78160  0.70800  1.0000 -0.4156307196
O   O8        1.0  0.62420  0.78160  0.29200  1.0000 -0.4156307196
O   O9        1.0  0.85650  0.02450  0.25640  1.0000 -0.4940583126
O   O10       1.0  0.14350  0.02450  0.74360  1.0000 -0.4940583126
O   O11       1.0  0.64350  0.97550  0.75640  1.0000 -0.4940583126
O   O12       1.0  0.35650  0.97550  0.24360  1.0000 -0.4952139175
O   O13       1.0  0.78970  0.39980  0.24790  1.0000 -0.5432194984
O   O14       1.0  0.21030  0.39980  0.75210  1.0000 -0.5432194984
O   O15       1.0  0.71030  0.60020  0.74790  1.0000 -0.5432194984
O   O16       1.0  0.28970  0.60020  0.25210  1.0000 -0.5432194984
O   O17       1.0  0.65840  0.55110  0.18610  1.0000 -0.557587645
O   O18       1.0  0.34160  0.55110  0.81390  1.0000 -0.557587645
O   O19       1.0  0.84160  0.44890  0.68610  1.0000 -0.557587645
O   O20       1.0  0.15840  0.44890  0.31390  1.0000 -0.557587645
