# DDEC6 charges by PACMAN v1.1 (https://github.com/mtap-research/PACMAN-charge/)
data_2012[Cd][uni]3[FSR]1
_chemical_formula_sum              "Cd6 H126 C162 N30 O30"
_cell_length_a       21.0747
_cell_length_b       21.0747
_cell_length_c       11.2029
_cell_angle_alpha    90
_cell_angle_beta     90
_cell_angle_gamma    120

_symmetry_space_group_name_H-M    "P 1"
_symmetry_Int_Tables_number       1

loop_
  _symmetry_equiv_pos_as_xyz
  'x, y, z'

loop_
  _atom_site_type_symbol
  _atom_site_label
  _atom_site_symmetry_multiplicity
  _atom_site_fract_x
  _atom_site_fract_y
  _atom_site_fract_z
  _atom_site_occupancy
  _atom_site_charge
Cd  Cd1       1.0  0.57100  0.54737  0.06081  1.0000 0.8306469435
Cd  Cd2       1.0  0.02363  0.57100  0.22748  1.0000 0.8306469435
Cd  Cd3       1.0  0.45263  0.02363  0.39414  1.0000 0.8306469435
Cd  Cd4       1.0  0.42900  0.45263  0.56081  1.0000 0.8306469435
Cd  Cd5       1.0  0.97637  0.42900  0.72748  1.0000 0.8306469435
Cd  Cd6       1.0  0.54737  0.97637  0.89414  1.0000 0.8306469435
H   H1        1.0  0.15560  0.24350  0.15900  1.0000 0.1390559427
H   H2        1.0  0.91210  0.15560  0.32567  1.0000 0.1390559427
H   H3        1.0  0.75650  0.91210  0.49233  1.0000 0.1390559427
H   H4        1.0  0.84440  0.75650  0.65900  1.0000 0.1390559427
H   H5        1.0  0.08790  0.84440  0.82567  1.0000 0.1390559427
H   H6        1.0  0.24350  0.08790  0.99233  1.0000 0.1390559427
H   H7        1.0  0.20730  0.27100  0.97190  1.0000 0.1290192803
H   H8        1.0  0.93630  0.20730  0.13857  1.0000 0.1290192803
H   H9        1.0  0.72900  0.93630  0.30523  1.0000 0.1290192803
H   H10       1.0  0.79270  0.72900  0.47190  1.0000 0.1290192803
H   H11       1.0  0.06370  0.79270  0.63857  1.0000 0.1290192803
H   H12       1.0  0.27100  0.06370  0.80523  1.0000 0.1290192803
H   H13       1.0  0.32540  0.36290  0.94710  1.0000 0.1211611254
H   H14       1.0  0.96250  0.32540  0.11377  1.0000 0.1211611254
H   H15       1.0  0.63710  0.96250  0.28043  1.0000 0.1211611254
H   H16       1.0  0.67460  0.63710  0.44710  1.0000 0.1211611254
H   H17       1.0  0.03750  0.67460  0.61377  1.0000 0.1211611254
H   H18       1.0  0.36290  0.03750  0.78043  1.0000 0.1211611254
H   H19       1.0  0.21810  0.20210  0.37860  1.0000 0.1211611254
H   H20       1.0  0.01600  0.21810  0.54527  1.0000 0.1211611254
H   H21       1.0  0.79790  0.01600  0.71193  1.0000 0.1211611254
H   H22       1.0  0.78190  0.79790  0.87860  1.0000 0.1211611254
H   H23       1.0  0.98400  0.78190  0.04527  1.0000 0.1211611254
H   H24       1.0  0.20210  0.98400  0.21193  1.0000 0.1211611254
H   H25       1.0  0.17940  0.17630  0.57320  1.0000 0.150502477
H   H26       1.0  0.00310  0.17940  0.73987  1.0000 0.150502477
H   H27       1.0  0.82370  0.00310  0.90653  1.0000 0.150502477
H   H28       1.0  0.82060  0.82370  0.07320  1.0000 0.150502477
H   H29       1.0  0.99690  0.82060  0.23987  1.0000 0.150502477
H   H30       1.0  0.17630  0.99690  0.40653  1.0000 0.150502477
H   H31       1.0  0.16350  0.35730  0.57880  1.0000 0.1390559427
H   H32       1.0  0.80620  0.16350  0.74547  1.0000 0.1390559427
H   H33       1.0  0.64270  0.80620  0.91213  1.0000 0.1390559427
H   H34       1.0  0.83650  0.64270  0.07880  1.0000 0.1390559427
H   H35       1.0  0.19380  0.83650  0.24547  1.0000 0.1390559427
H   H36       1.0  0.35730  0.19380  0.41213  1.0000 0.1390559427
H   H37       1.0  0.20550  0.38060  0.39430  1.0000 0.1211611254
H   H38       1.0  0.82490  0.20550  0.56097  1.0000 0.1211611254
H   H39       1.0  0.61940  0.82490  0.72763  1.0000 0.1211611254
H   H40       1.0  0.79450  0.61940  0.89430  1.0000 0.1211611254
H   H41       1.0  0.17510  0.79450  0.06097  1.0000 0.1211611254
H   H42       1.0  0.38060  0.17510  0.22763  1.0000 0.1211611254
H   H43       1.0  0.60770  0.50770  0.32950  1.0000 0.1390559427
H   H44       1.0  0.10000  0.60770  0.49617  1.0000 0.1390559427
H   H45       1.0  0.49230  0.10000  0.66283  1.0000 0.1390559427
H   H46       1.0  0.39230  0.49230  0.82950  1.0000 0.1390559427
H   H47       1.0  0.90000  0.39230  0.99617  1.0000 0.1390559427
H   H48       1.0  0.50770  0.90000  0.16283  1.0000 0.1390559427
H   H49       1.0  0.70010  0.47630  0.38550  1.0000 0.1211611254
H   H50       1.0  0.22380  0.70010  0.55217  1.0000 0.1211611254
H   H51       1.0  0.52370  0.22380  0.71883  1.0000 0.1211611254
H   H52       1.0  0.29990  0.52370  0.88550  1.0000 0.1211611254
H   H53       1.0  0.77620  0.29990  0.05217  1.0000 0.1211611254
H   H54       1.0  0.47630  0.77620  0.21883  1.0000 0.1211611254
H   H55       1.0  0.70250  0.49630  0.03820  1.0000 0.1139036978
H   H56       1.0  0.20620  0.70250  0.20487  1.0000 0.1139036978
H   H57       1.0  0.50370  0.20620  0.37153  1.0000 0.1139036978
H   H58       1.0  0.29750  0.50370  0.53820  1.0000 0.1139036978
H   H59       1.0  0.79380  0.29750  0.70487  1.0000 0.1139036978
H   H60       1.0  0.49630  0.79380  0.87153  1.0000 0.1139036978
H   H61       1.0  0.81680  0.48750  0.25010  1.0000 0.1290192803
H   H62       1.0  0.32930  0.81680  0.41677  1.0000 0.1290192803
H   H63       1.0  0.51250  0.32930  0.58343  1.0000 0.1290192803
H   H64       1.0  0.18320  0.51250  0.75010  1.0000 0.1290192803
H   H65       1.0  0.67070  0.18320  0.91677  1.0000 0.1290192803
H   H66       1.0  0.48750  0.67070  0.08343  1.0000 0.1290192803
H   H67       1.0  0.79480  0.46430  0.11680  1.0000 0.1390559427
H   H68       1.0  0.33050  0.79480  0.28347  1.0000 0.1390559427
H   H69       1.0  0.53570  0.33050  0.45013  1.0000 0.1390559427
H   H70       1.0  0.20520  0.53570  0.61680  1.0000 0.1390559427
H   H71       1.0  0.66950  0.20520  0.78347  1.0000 0.1390559427
H   H72       1.0  0.46430  0.66950  0.95013  1.0000 0.1390559427
H   H73       1.0  0.84120  0.39470  0.31010  1.0000 0.1211611254
H   H74       1.0  0.44650  0.84120  0.47677  1.0000 0.1211611254
H   H75       1.0  0.60530  0.44650  0.64343  1.0000 0.1211611254
H   H76       1.0  0.15880  0.60530  0.81010  1.0000 0.1211611254
H   H77       1.0  0.55350  0.15880  0.97677  1.0000 0.1211611254
H   H78       1.0  0.39470  0.55350  0.14343  1.0000 0.1211611254
H   H79       1.0  0.80250  0.27310  0.34960  1.0000 0.1139036978
H   H80       1.0  0.52940  0.80250  0.51627  1.0000 0.1139036978
H   H81       1.0  0.72690  0.52940  0.68293  1.0000 0.1139036978
H   H82       1.0  0.19750  0.72690  0.84960  1.0000 0.1139036978
H   H83       1.0  0.47060  0.19750  0.01627  1.0000 0.1139036978
H   H84       1.0  0.27310  0.47060  0.18293  1.0000 0.1139036978
H   H85       1.0  0.60630  0.21690  0.21080  1.0000 0.1290192803
H   H86       1.0  0.38940  0.60630  0.37747  1.0000 0.1290192803
H   H87       1.0  0.78310  0.38940  0.54413  1.0000 0.1290192803
H   H88       1.0  0.39370  0.78310  0.71080  1.0000 0.1290192803
H   H89       1.0  0.61060  0.39370  0.87747  1.0000 0.1290192803
H   H90       1.0  0.21690  0.61060  0.04413  1.0000 0.1290192803
H   H91       1.0  0.64400  0.33590  0.16960  1.0000 0.1211611254
H   H92       1.0  0.30810  0.64400  0.33627  1.0000 0.1211611254
H   H93       1.0  0.66410  0.30810  0.50293  1.0000 0.1211611254
H   H94       1.0  0.35600  0.66410  0.66960  1.0000 0.1211611254
H   H95       1.0  0.69190  0.35600  0.83627  1.0000 0.1211611254
H   H96       1.0  0.33590  0.69190  0.00293  1.0000 0.1211611254
H   H97       1.0  0.70850  0.14720  0.35620  1.0000 0.1211611254
H   H98       1.0  0.56130  0.70850  0.52287  1.0000 0.1211611254
H   H99       1.0  0.85280  0.56130  0.68953  1.0000 0.1211611254
H   H100      1.0  0.29150  0.85280  0.85620  1.0000 0.1211611254
H   H101      1.0  0.43870  0.29150  0.02287  1.0000 0.1211611254
H   H102      1.0  0.14720  0.43870  0.18953  1.0000 0.1211611254
H   H103      1.0  0.62710  0.12770  0.33540  1.0000 0.1290192803
H   H104      1.0  0.49940  0.62710  0.50207  1.0000 0.1290192803
H   H105      1.0  0.87230  0.49940  0.66873  1.0000 0.1290192803
H   H106      1.0  0.37290  0.87230  0.83540  1.0000 0.1290192803
H   H107      1.0  0.50060  0.37290  0.00207  1.0000 0.1290192803
H   H108      1.0  0.12770  0.50060  0.16873  1.0000 0.1290192803
H   H109      1.0  0.78100  0.14670  0.15180  1.0000 0.1290192803
H   H110      1.0  0.63430  0.78100  0.31847  1.0000 0.1290192803
H   H111      1.0  0.85330  0.63430  0.48513  1.0000 0.1290192803
H   H112      1.0  0.21900  0.85330  0.65180  1.0000 0.1290192803
H   H113      1.0  0.36570  0.21900  0.81847  1.0000 0.1290192803
H   H114      1.0  0.14670  0.36570  0.98513  1.0000 0.1290192803
H   H115      1.0  0.73350  0.07400  0.97240  1.0000 0.1290192803
H   H116      1.0  0.65950  0.73350  0.13907  1.0000 0.1290192803
H   H117      1.0  0.92600  0.65950  0.30573  1.0000 0.1290192803
H   H118      1.0  0.26650  0.92600  0.47240  1.0000 0.1290192803
H   H119      1.0  0.34050  0.26650  0.63907  1.0000 0.1290192803
H   H120      1.0  0.07400  0.34050  0.80573  1.0000 0.1290192803
H   H121      1.0  0.56760  0.06260  0.14630  1.0000 0.1290192803
H   H122      1.0  0.50500  0.56760  0.31297  1.0000 0.1290192803
H   H123      1.0  0.93740  0.50500  0.47963  1.0000 0.1290192803
H   H124      1.0  0.43240  0.93740  0.64630  1.0000 0.1290192803
H   H125      1.0  0.49500  0.43240  0.81297  1.0000 0.1290192803
H   H126      1.0  0.06260  0.49500  0.97963  1.0000 0.1290192803
C   C1        1.0  0.42890  0.44210  0.10500  1.0000 0.5270580763
C   C2        1.0  0.98680  0.42890  0.27167  1.0000 0.5270580763
C   C3        1.0  0.55790  0.98680  0.43833  1.0000 0.5270580763
C   C4        1.0  0.57110  0.55790  0.60500  1.0000 0.5270580763
C   C5        1.0  0.01320  0.57110  0.77167  1.0000 0.5270580763
C   C6        1.0  0.44210  0.01320  0.93833  1.0000 0.5270580763
C   C7        1.0  0.36340  0.40190  0.34710  1.0000 0.5637836967
C   C8        1.0  0.96150  0.36340  0.51377  1.0000 0.5637836967
C   C9        1.0  0.59810  0.96150  0.68043  1.0000 0.5637836967
C   C10       1.0  0.63660  0.59810  0.84710  1.0000 0.5637836967
C   C11       1.0  0.03850  0.63660  0.01377  1.0000 0.5637836967
C   C12       1.0  0.40190  0.03850  0.18043  1.0000 0.5637836967
C   C13       1.0  0.35000  0.38490  0.12110  1.0000 -0.0383938423
C   C14       1.0  0.96510  0.35000  0.28777  1.0000 -0.0383938423
C   C15       1.0  0.61510  0.96510  0.45443  1.0000 -0.0383938423
C   C16       1.0  0.65000  0.61510  0.62110  1.0000 -0.0383938423
C   C17       1.0  0.03490  0.65000  0.78777  1.0000 -0.0383938423
C   C18       1.0  0.38490  0.03490  0.95443  1.0000 -0.0383938423
C   C19       1.0  0.32040  0.36690  0.23660  1.0000 -0.08872487
C   C20       1.0  0.95350  0.32040  0.40327  1.0000 -0.08872487
C   C21       1.0  0.63310  0.95350  0.56993  1.0000 -0.08872487
C   C22       1.0  0.67960  0.63310  0.73660  1.0000 -0.08872487
C   C23       1.0  0.04650  0.67960  0.90327  1.0000 -0.08872487
C   C24       1.0  0.36690  0.04650  0.06993  1.0000 -0.08872487
C   C25       1.0  0.24670  0.31300  0.24760  1.0000 0.0996302435
C   C26       1.0  0.93370  0.24670  0.41427  1.0000 0.0996302435
C   C27       1.0  0.68700  0.93370  0.58093  1.0000 0.0996302435
C   C28       1.0  0.75330  0.68700  0.74760  1.0000 0.0996302435
C   C29       1.0  0.06630  0.75330  0.91427  1.0000 0.0996302435
C   C30       1.0  0.31300  0.06630  0.08093  1.0000 0.0996302435
C   C31       1.0  0.20480  0.27870  0.14980  1.0000 -0.1707104902
C   C32       1.0  0.92610  0.20480  0.31647  1.0000 -0.1707104902
C   C33       1.0  0.72130  0.92610  0.48313  1.0000 -0.1707104902
C   C34       1.0  0.79520  0.72130  0.64980  1.0000 -0.1707104902
C   C35       1.0  0.07390  0.79520  0.81647  1.0000 -0.1707104902
C   C36       1.0  0.27870  0.07390  0.98313  1.0000 -0.1707104902
C   C37       1.0  0.23520  0.29600  0.03810  1.0000 -0.0748439243
C   C38       1.0  0.93920  0.23520  0.20477  1.0000 -0.0748439243
C   C39       1.0  0.70400  0.93920  0.37143  1.0000 -0.0748439243
C   C40       1.0  0.76480  0.70400  0.53810  1.0000 -0.0748439243
C   C41       1.0  0.06080  0.76480  0.70477  1.0000 -0.0748439243
C   C42       1.0  0.29600  0.06080  0.87143  1.0000 -0.07540616
C   C43       1.0  0.30610  0.34970  0.02370  1.0000 -0.1248435413
C   C44       1.0  0.95640  0.30610  0.19037  1.0000 -0.1248435413
C   C45       1.0  0.65030  0.95640  0.35703  1.0000 -0.1248435413
C   C46       1.0  0.69390  0.65030  0.52370  1.0000 -0.1259094363
C   C47       1.0  0.04360  0.69390  0.69037  1.0000 -0.1259094363
C   C48       1.0  0.34970  0.04360  0.85703  1.0000 -0.1248435413
C   C49       1.0  0.20780  0.23410  0.42040  1.0000 0.0339457246
C   C50       1.0  0.97370  0.20780  0.58707  1.0000 0.0339457246
C   C51       1.0  0.76590  0.97370  0.75373  1.0000 0.0339457246
C   C52       1.0  0.79220  0.76590  0.92040  1.0000 0.0405358964
C   C53       1.0  0.02630  0.79220  0.08707  1.0000 0.0339457246
C   C54       1.0  0.23410  0.02630  0.25373  1.0000 0.0339457246
C   C55       1.0  0.18450  0.21870  0.53830  1.0000 -0.2796036885
C   C56       1.0  0.96580  0.18450  0.70497  1.0000 -0.2796036885
C   C57       1.0  0.78130  0.96580  0.87163  1.0000 -0.2796036885
C   C58       1.0  0.81550  0.78130  0.03830  1.0000 -0.2796036885
C   C59       1.0  0.03420  0.81550  0.20497  1.0000 -0.2796036885
C   C60       1.0  0.21870  0.03420  0.37163  1.0000 -0.2796036885
C   C61       1.0  0.16840  0.26480  0.60680  1.0000 0.3798366899
C   C62       1.0  0.90360  0.16840  0.77347  1.0000 0.3798366899
C   C63       1.0  0.73520  0.90360  0.94013  1.0000 0.3798366899
C   C64       1.0  0.83160  0.73520  0.10680  1.0000 0.3798366899
C   C65       1.0  0.09640  0.83160  0.27347  1.0000 0.3798366899
C   C66       1.0  0.26480  0.09640  0.44013  1.0000 0.3798366899
C   C67       1.0  0.17580  0.32530  0.54190  1.0000 -0.289622216
C   C68       1.0  0.85050  0.17580  0.70857  1.0000 -0.289622216
C   C69       1.0  0.67470  0.85050  0.87523  1.0000 -0.289622216
C   C70       1.0  0.82420  0.67470  0.04190  1.0000 -0.289622216
C   C71       1.0  0.14950  0.82420  0.20857  1.0000 -0.289622216
C   C72       1.0  0.32530  0.14950  0.37523  1.0000 -0.289622216
C   C73       1.0  0.19950  0.33830  0.43070  1.0000 -0.0236227197
C   C74       1.0  0.86120  0.19950  0.59737  1.0000 -0.0236227197
C   C75       1.0  0.66170  0.86120  0.76403  1.0000 -0.0236227197
C   C76       1.0  0.80050  0.66170  0.93070  1.0000 -0.0236227197
C   C77       1.0  0.13880  0.80050  0.09737  1.0000 -0.0236227197
C   C78       1.0  0.33830  0.13880  0.26403  1.0000 -0.0236227197
C   C79       1.0  0.63810  0.50120  0.27690  1.0000 -0.0383938423
C   C80       1.0  0.13690  0.63810  0.44357  1.0000 -0.0383938423
C   C81       1.0  0.49880  0.13690  0.61023  1.0000 -0.0383938423
C   C82       1.0  0.36190  0.49880  0.77690  1.0000 -0.0383938423
C   C83       1.0  0.86310  0.36190  0.94357  1.0000 -0.0383938423
C   C84       1.0  0.50120  0.86310  0.11023  1.0000 -0.0383938423
C   C85       1.0  0.68890  0.48380  0.30840  1.0000 -0.101400377
C   C86       1.0  0.20510  0.68890  0.47507  1.0000 -0.101400377
C   C87       1.0  0.51620  0.20510  0.64173  1.0000 -0.101400377
C   C88       1.0  0.31110  0.51620  0.80840  1.0000 -0.101400377
C   C89       1.0  0.79490  0.31110  0.97507  1.0000 -0.101400377
C   C90       1.0  0.48380  0.79490  0.14173  1.0000 -0.101400377
C   C91       1.0  0.68950  0.49480  0.11790  1.0000 0.0996302435
C   C92       1.0  0.19470  0.68950  0.28457  1.0000 0.0996302435
C   C93       1.0  0.50520  0.19470  0.45123  1.0000 0.0996302435
C   C94       1.0  0.31050  0.50520  0.61790  1.0000 0.0996302435
C   C95       1.0  0.80530  0.31050  0.78457  1.0000 0.0996302435
C   C96       1.0  0.49480  0.80530  0.95123  1.0000 0.0996302435
C   C97       1.0  0.77620  0.45670  0.19790  1.0000 -0.1775894796
C   C98       1.0  0.31950  0.77620  0.36457  1.0000 -0.1775894796
C   C99       1.0  0.54330  0.31950  0.53123  1.0000 -0.1775894796
C   C100      1.0  0.22380  0.54330  0.69790  1.0000 -0.1775894796
C   C101      1.0  0.68050  0.22380  0.86457  1.0000 -0.1775894796
C   C102      1.0  0.45670  0.68050  0.03123  1.0000 -0.1775894796
C   C103      1.0  0.74760  0.37890  0.23090  1.0000 0.0878789812
C   C104      1.0  0.36870  0.74760  0.39757  1.0000 0.0878789812
C   C105      1.0  0.62110  0.36870  0.56423  1.0000 0.0878789812
C   C106      1.0  0.25240  0.62110  0.73090  1.0000 0.0878789812
C   C107      1.0  0.63130  0.25240  0.89757  1.0000 0.0878789812
C   C108      1.0  0.37890  0.63130  0.06423  1.0000 0.0878789812
C   C109      1.0  0.79420  0.35880  0.28830  1.0000 -0.1594010296
C   C110      1.0  0.43540  0.79420  0.45497  1.0000 -0.1594010296
C   C111      1.0  0.64120  0.43540  0.62163  1.0000 -0.1594010296
C   C112      1.0  0.20580  0.64120  0.78830  1.0000 -0.1594010296
C   C113      1.0  0.56460  0.20580  0.95497  1.0000 -0.1594010296
C   C114      1.0  0.35880  0.56460  0.12163  1.0000 -0.1594010296
C   C115      1.0  0.77070  0.28560  0.31280  1.0000 -0.1594010296
C   C116      1.0  0.48510  0.77070  0.47947  1.0000 -0.1594010296
C   C117      1.0  0.71440  0.48510  0.64613  1.0000 -0.1594010296
C   C118      1.0  0.22930  0.71440  0.81280  1.0000 -0.1594010296
C   C119      1.0  0.51490  0.22930  0.97947  1.0000 -0.1594010296
C   C120      1.0  0.28560  0.51490  0.14613  1.0000 -0.1594010296
C   C121      1.0  0.70070  0.23120  0.28310  1.0000 0.0878789812
C   C122      1.0  0.46950  0.70070  0.44977  1.0000 0.0878789812
C   C123      1.0  0.76880  0.46950  0.61643  1.0000 0.0878789812
C   C124      1.0  0.29930  0.76880  0.78310  1.0000 0.0878789812
C   C125      1.0  0.53050  0.29930  0.94977  1.0000 0.0878789812
C   C126      1.0  0.23120  0.53050  0.11643  1.0000 0.0878789812
C   C127      1.0  0.65400  0.25260  0.22960  1.0000 -0.1594010296
C   C128      1.0  0.40140  0.65400  0.39627  1.0000 -0.1594010296
C   C129      1.0  0.74740  0.40140  0.56293  1.0000 -0.1594010296
C   C130      1.0  0.34600  0.74740  0.72960  1.0000 -0.1594010296
C   C131      1.0  0.59860  0.34600  0.89627  1.0000 -0.1594010296
C   C132      1.0  0.25260  0.59860  0.06293  1.0000 -0.1594010296
C   C133      1.0  0.67650  0.32380  0.20470  1.0000 -0.1477514094
C   C134      1.0  0.35270  0.67650  0.37137  1.0000 -0.1477514094
C   C135      1.0  0.67620  0.35270  0.53803  1.0000 -0.1477514094
C   C136      1.0  0.32350  0.67620  0.70470  1.0000 -0.1477514094
C   C137      1.0  0.64730  0.32350  0.87137  1.0000 -0.1477514094
C   C138      1.0  0.32380  0.64730  0.03803  1.0000 -0.1477514094
C   C139      1.0  0.67580  0.15190  0.30070  1.0000 -0.1775894796
C   C140      1.0  0.52390  0.67580  0.46737  1.0000 -0.1775894796
C   C141      1.0  0.84810  0.52390  0.63403  1.0000 -0.1775894796
C   C142      1.0  0.32420  0.84810  0.80070  1.0000 -0.1775894796
C   C143      1.0  0.47610  0.32420  0.96737  1.0000 -0.1775894796
C   C144      1.0  0.15190  0.47610  0.13403  1.0000 -0.1775894796
C   C145      1.0  0.73210  0.12080  0.12860  1.0000 -0.101400377
C   C146      1.0  0.61130  0.73210  0.29527  1.0000 -0.101400377
C   C147      1.0  0.87920  0.61130  0.46193  1.0000 -0.101400377
C   C148      1.0  0.26790  0.87920  0.62860  1.0000 -0.101400377
C   C149      1.0  0.38870  0.26790  0.79527  1.0000 -0.101400377
C   C150      1.0  0.12080  0.38870  0.96193  1.0000 -0.101400377
C   C151      1.0  0.70570  0.08110  0.02960  1.0000 -0.0383938423
C   C152      1.0  0.62460  0.70570  0.19627  1.0000 -0.0383938423
C   C153      1.0  0.91890  0.62460  0.36293  1.0000 -0.0383938423
C   C154      1.0  0.29430  0.91890  0.52960  1.0000 -0.0383938423
C   C155      1.0  0.37540  0.29430  0.69627  1.0000 -0.0383938423
C   C156      1.0  0.08110  0.37540  0.86293  1.0000 -0.0383938423
C   C157      1.0  0.61480  0.07460  0.12430  1.0000 0.0996302435
C   C158      1.0  0.54020  0.61480  0.29097  1.0000 0.0996302435
C   C159      1.0  0.92540  0.54020  0.45763  1.0000 0.0996302435
C   C160      1.0  0.38520  0.92540  0.62430  1.0000 0.0996302435
C   C161      1.0  0.45980  0.38520  0.79097  1.0000 0.0996302435
C   C162      1.0  0.07460  0.45980  0.95763  1.0000 0.0996302435
N   N1        1.0  0.63800  0.50800  0.15400  1.0000 -0.289622216
N   N2        1.0  0.13000  0.63800  0.32067  1.0000 -0.289622216
N   N3        1.0  0.49200  0.13000  0.48733  1.0000 -0.289622216
N   N4        1.0  0.36200  0.49200  0.65400  1.0000 -0.289622216
N   N5        1.0  0.87000  0.36200  0.82067  1.0000 -0.289622216
N   N6        1.0  0.50800  0.87000  0.98733  1.0000 -0.289622216
N   N7        1.0  0.72090  0.47930  0.20580  1.0000 0.0405358964
N   N8        1.0  0.24160  0.72090  0.37247  1.0000 0.0405358964
N   N9        1.0  0.52070  0.24160  0.53913  1.0000 0.0405358964
N   N10       1.0  0.27910  0.52070  0.70580  1.0000 0.0405358964
N   N11       1.0  0.75840  0.27910  0.87247  1.0000 0.0405358964
N   N12       1.0  0.47930  0.75840  0.03913  1.0000 0.0405358964
N   N13       1.0  0.67430  0.11610  0.18890  1.0000 0.0405358964
N   N14       1.0  0.55820  0.67430  0.35557  1.0000 0.0405358964
N   N15       1.0  0.88390  0.55820  0.52223  1.0000 0.0405358964
N   N16       1.0  0.32570  0.88390  0.68890  1.0000 0.0405358964
N   N17       1.0  0.44180  0.32570  0.85557  1.0000 0.0405358964
N   N18       1.0  0.11610  0.44180  0.02223  1.0000 0.0405358964
N   N19       1.0  0.63120  0.05240  0.02490  1.0000 -0.307823885
N   N20       1.0  0.57880  0.63120  0.19157  1.0000 -0.307823885
N   N21       1.0  0.94760  0.57880  0.35823  1.0000 -0.307823885
N   N22       1.0  0.36880  0.94760  0.52490  1.0000 -0.307823885
N   N23       1.0  0.42120  0.36880  0.69157  1.0000 -0.307823885
N   N24       1.0  0.05240  0.42120  0.85823  1.0000 -0.307823885
N   N25       1.0  0.21570  0.29380  0.36630  1.0000 0.0076391975
N   N26       1.0  0.92190  0.21570  0.53297  1.0000 0.0076391975
N   N27       1.0  0.70620  0.92190  0.69963  1.0000 0.0076391975
N   N28       1.0  0.78430  0.70620  0.86630  1.0000 0.0076391975
N   N29       1.0  0.07810  0.78430  0.03297  1.0000 0.0076391975
N   N30       1.0  0.29380  0.07810  0.19963  1.0000 0.0076391975
O   O1        1.0  0.45080  0.47380  0.00570  1.0000 -0.5395262525
O   O2        1.0  0.97700  0.45080  0.17237  1.0000 -0.5395262525
O   O3        1.0  0.52620  0.97700  0.33903  1.0000 -0.5395262525
O   O4        1.0  0.54920  0.52620  0.50570  1.0000 -0.5395262525
O   O5        1.0  0.02300  0.54920  0.67237  1.0000 -0.5395262525
O   O6        1.0  0.47380  0.02300  0.83903  1.0000 -0.5395262525
O   O7        1.0  0.47220  0.45530  0.18960  1.0000 -0.5059510306
O   O8        1.0  0.01690  0.47220  0.35627  1.0000 -0.5059510306
O   O9        1.0  0.54470  0.01690  0.52293  1.0000 -0.5059510306
O   O10       1.0  0.52780  0.54470  0.68960  1.0000 -0.5059510306
O   O11       1.0  0.98310  0.52780  0.85627  1.0000 -0.5059510306
O   O12       1.0  0.45530  0.98310  0.02293  1.0000 -0.5059510306
O   O13       1.0  0.37410  0.46390  0.37540  1.0000 -0.5544840579
O   O14       1.0  0.91020  0.37410  0.54207  1.0000 -0.5544840579
O   O15       1.0  0.53610  0.91020  0.70873  1.0000 -0.5544840579
O   O16       1.0  0.62590  0.53610  0.87540  1.0000 -0.5544840579
O   O17       1.0  0.08980  0.62590  0.04207  1.0000 -0.5544840579
O   O18       1.0  0.46390  0.08980  0.20873  1.0000 -0.5544840579
O   O19       1.0  0.38330  0.36560  0.40950  1.0000 -0.5306309944
O   O20       1.0  0.01770  0.38330  0.57617  1.0000 -0.5306309944
O   O21       1.0  0.63440  0.01770  0.74283  1.0000 -0.5306309944
O   O22       1.0  0.61670  0.63440  0.90950  1.0000 -0.5306309944
O   O23       1.0  0.98230  0.61670  0.07617  1.0000 -0.5306309944
O   O24       1.0  0.36560  0.98230  0.24283  1.0000 -0.5306309944
O   O25       1.0  0.14930  0.25050  0.71440  1.0000 -0.5059510306
O   O26       1.0  0.89880  0.14930  0.88107  1.0000 -0.5059510306
O   O27       1.0  0.74950  0.89880  0.04773  1.0000 -0.5059510306
O   O28       1.0  0.85070  0.74950  0.21440  1.0000 -0.5059510306
O   O29       1.0  0.10120  0.85070  0.38107  1.0000 -0.5059510306
O   O30       1.0  0.25050  0.10120  0.54773  1.0000 -0.5059510306
