# DDEC6 charges by PACMAN v1.1 (https://github.com/mtap-research/PACMAN-charge/)
data_2012[Co][rtl]3[FSR]2
_chemical_formula_sum              "Co4 H32 C48 N8 O16"
_cell_length_a       9.81
_cell_length_b       12.753
_cell_length_c       10.917
_cell_angle_alpha    90
_cell_angle_beta     100.63
_cell_angle_gamma    90

_symmetry_space_group_name_H-M    "P 1"
_symmetry_Int_Tables_number       1

loop_
  _symmetry_equiv_pos_as_xyz
  'x, y, z'

loop_
  _atom_site_type_symbol
  _atom_site_label
  _atom_site_symmetry_multiplicity
  _atom_site_fract_x
  _atom_site_fract_y
  _atom_site_fract_z
  _atom_site_occupancy
  _atom_site_charge
Co  Co1       1.0  0.62336  0.21666  0.75123  1.0000 0.9317201171
Co  Co2       1.0  0.37664  0.71666  0.24877  1.0000 0.9317201171
Co  Co3       1.0  0.12734  0.21816  0.74959  1.0000 0.9172830376
Co  Co4       1.0  0.87266  0.71816  0.25041  1.0000 0.9172830376
H   H1        1.0  0.86740  0.47620  0.23860  1.0000 0.1035105917
H   H2        1.0  0.13260  0.97620  0.76140  1.0000 0.1035105917
H   H3        1.0  0.85320  0.66320  0.51780  1.0000 0.1072129747
H   H4        1.0  0.14680  0.16320  0.48220  1.0000 0.1072129747
H   H5        1.0  0.55260  0.53350  0.36600  1.0000 0.1072129747
H   H6        1.0  0.44740  0.03350  0.63400  1.0000 0.1072129747
H   H7        1.0  0.60310  0.98990  0.01600  1.0000 0.1321874602
H   H8        1.0  0.39690  0.48990  0.98400  1.0000 0.1321874602
H   H9        1.0  0.19790  0.04080  0.00000  1.0000 0.1228466574
H   H10       1.0  0.80210  0.54080  0.00000  1.0000 0.1228466574
H   H11       1.0  0.19210  0.89600  0.12490  1.0000 0.1035105917
H   H12       1.0  0.80790  0.39600  0.87510  1.0000 0.1035105917
H   H13       1.0  0.11010  0.46270  0.73630  1.0000 0.1035105917
H   H14       1.0  0.88990  0.96270  0.26370  1.0000 0.1035105917
H   H15       1.0  0.10670  0.41420  0.15240  1.0000 0.1398808726
H   H16       1.0  0.89330  0.91420  0.84760  1.0000 0.1398808726
H   H17       1.0  0.86900  0.33120  0.36310  1.0000 0.1398808726
H   H18       1.0  0.13100  0.83120  0.63690  1.0000 0.1398808726
H   H19       1.0  0.11980  0.27430  0.02180  1.0000 0.1072129747
H   H20       1.0  0.88020  0.77430  0.97820  1.0000 0.1072129747
H   H21       1.0  0.84340  0.52210  0.64820  1.0000 0.1321874602
H   H22       1.0  0.15660  0.02210  0.35180  1.0000 0.1321874602
H   H23       1.0  0.14530  0.44920  0.48820  1.0000 0.1228466574
H   H24       1.0  0.85470  0.94920  0.51180  1.0000 0.1228466574
H   H25       1.0  0.16330  0.59030  0.35900  1.0000 0.1035105917
H   H26       1.0  0.83670  0.09030  0.64100  1.0000 0.1035105917
H   H27       1.0  0.10120  0.60650  0.86210  1.0000 0.1398808726
H   H28       1.0  0.89880  0.10650  0.13790  1.0000 0.1398808726
H   H29       1.0  0.59120  0.84930  0.14350  1.0000 0.1072129747
H   H30       1.0  0.40880  0.34930  0.85650  1.0000 0.1072129747
H   H31       1.0  0.54740  0.38700  0.48870  1.0000 0.1321874602
H   H32       1.0  0.45260  0.88700  0.51130  1.0000 0.1321874602
C   C1        1.0  0.86400  0.48520  0.32250  1.0000 0.0699095446
C   C2        1.0  0.13600  0.98520  0.67750  1.0000 0.0699095446
C   C3        1.0  0.85420  0.59560  0.48590  1.0000 0.1035105917
C   C4        1.0  0.14580  0.09560  0.51410  1.0000 0.1035105917
C   C5        1.0  0.47010  0.51580  0.39140  1.0000 0.0897506941
C   C6        1.0  0.52990  0.01580  0.60860  1.0000 0.0897506941
C   C7        1.0  0.84640  0.31780  0.60210  1.0000 0.5824909303
C   C8        1.0  0.15360  0.81780  0.39790  1.0000 0.5824909303
C   C9        1.0  0.34130  0.31710  0.59560  1.0000 0.5824909303
C   C10       1.0  0.65870  0.81710  0.40440  1.0000 0.5824909303
C   C11       1.0  0.40090  0.03000  0.99120  1.0000 0.0260173361
C   C12       1.0  0.59910  0.53000  0.00880  1.0000 0.0260173361
C   C13       1.0  0.34520  0.40350  0.50740  1.0000 -0.0093861418
C   C14       1.0  0.65480  0.90350  0.49260  1.0000 -0.0093861418
C   C15       1.0  0.85220  0.40980  0.52110  1.0000 0.0041732033
C   C16       1.0  0.14780  0.90980  0.47890  1.0000 0.0041732033
C   C17       1.0  0.51860  0.97170  0.03710  1.0000 -0.1516349968
C   C18       1.0  0.48140  0.47170  0.96290  1.0000 -0.1516349968
C   C19       1.0  0.27810  0.00200  0.02670  1.0000 -0.1788780447
C   C20       1.0  0.72190  0.50200  0.97330  1.0000 -0.1788780447
C   C21       1.0  0.27600  0.91490  0.10290  1.0000 0.0897506941
C   C22       1.0  0.72400  0.41490  0.89710  1.0000 0.0897506941
C   C23       1.0  0.11000  0.45220  0.82060  1.0000 0.0778408702
C   C24       1.0  0.89000  0.95220  0.17940  1.0000 0.0778408702
C   C25       1.0  0.10850  0.42540  0.06850  1.0000 -0.1788780447
C   C26       1.0  0.89150  0.92540  0.93150  1.0000 -0.1788780447
C   C27       1.0  0.86280  0.39780  0.39630  1.0000 -0.1788780447
C   C28       1.0  0.13720  0.89780  0.60370  1.0000 -0.1788780447
C   C29       1.0  0.11510  0.34170  0.98870  1.0000 0.0778408702
C   C30       1.0  0.88490  0.84170  0.01130  1.0000 0.0778408702
C   C31       1.0  0.84900  0.51060  0.56520  1.0000 -0.1788780447
C   C32       1.0  0.15100  0.01060  0.43480  1.0000 -0.1788780447
C   C33       1.0  0.22980  0.46470  0.46530  1.0000 -0.1645223257
C   C34       1.0  0.77020  0.96470  0.53470  1.0000 -0.1645223257
C   C35       1.0  0.24170  0.55010  0.38780  1.0000 0.0897506941
C   C36       1.0  0.75830  0.05010  0.61220  1.0000 0.0897506941
C   C37       1.0  0.10470  0.53960  0.89630  1.0000 -0.1788780447
C   C38       1.0  0.89530  0.03960  0.10370  1.0000 -0.1788780447
C   C39       1.0  0.10460  0.52690  0.02010  1.0000 0.0384465251
C   C40       1.0  0.89540  0.02690  0.97990  1.0000 0.0384465251
C   C41       1.0  0.51080  0.88710  0.11340  1.0000 0.0699095446
C   C42       1.0  0.48920  0.38710  0.88660  1.0000 0.0699095446
C   C43       1.0  0.46860  0.42830  0.46630  1.0000 -0.1516349968
C   C44       1.0  0.53140  0.92830  0.53370  1.0000 -0.1516349968
C   C45       1.0  0.09190  0.62320  0.10540  1.0000 0.5545523557
C   C46       1.0  0.90810  0.12320  0.89460  1.0000 0.5545523557
C   C47       1.0  0.40860  0.12160  0.89960  1.0000 0.564790586
C   C48       1.0  0.59140  0.62160  0.10040  1.0000 0.5653182659
N   N1        1.0  0.86050  0.58320  0.36740  1.0000 -0.2329161633
N   N2        1.0  0.13950  0.08320  0.63260  1.0000 -0.2329161633
N   N3        1.0  0.35880  0.57590  0.35400  1.0000 -0.2329161633
N   N4        1.0  0.64120  0.07590  0.64600  1.0000 -0.2329161633
N   N5        1.0  0.38880  0.85630  0.14670  1.0000 -0.2471969109
N   N6        1.0  0.61120  0.35630  0.85330  1.0000 -0.2471969109
N   N7        1.0  0.11510  0.35260  0.86440  1.0000 -0.268284535
N   N8        1.0  0.88490  0.85260  0.13560  1.0000 -0.268284535
O   O1        1.0  0.73350  0.30740  0.64290  1.0000 -0.55970647
O   O2        1.0  0.26650  0.80740  0.35710  1.0000 -0.55970647
O   O3        1.0  0.98170  0.62490  0.14430  1.0000 -0.5499826279
O   O4        1.0  0.01830  0.12490  0.85570  1.0000 -0.5499826279
O   O5        1.0  0.18800  0.68360  0.12250  1.0000 -0.5087755528
O   O6        1.0  0.81200  0.18360  0.87750  1.0000 -0.5087755528
O   O7        1.0  0.23140  0.31150  0.64360  1.0000 -0.5871484485
O   O8        1.0  0.76860  0.81150  0.35640  1.0000 -0.5871484485
O   O9        1.0  0.52120  0.13080  0.86610  1.0000 -0.5326403585
O   O10       1.0  0.47880  0.63080  0.13390  1.0000 -0.5326403585
O   O11       1.0  0.95020  0.25420  0.62310  1.0000 -0.5805153456
O   O12       1.0  0.04980  0.75420  0.37690  1.0000 -0.5805153456
O   O13       1.0  0.44540  0.25130  0.62200  1.0000 -0.5871484485
O   O14       1.0  0.55460  0.75130  0.37800  1.0000 -0.5871484485
O   O15       1.0  0.30570  0.17330  0.87410  1.0000 -0.5164852348
O   O16       1.0  0.69430  0.67330  0.12590  1.0000 -0.5164852348
