# DDEC6 charges by PACMAN v1.1 (https://github.com/mtap-research/PACMAN-charge/)
data_2012[Zn][raa]3[FSR]1
_chemical_formula_sum              "Zn8 H64 C56 N48"
_cell_length_a       10.5783
_cell_length_b       12.3288
_cell_length_c       19.6306
_cell_angle_alpha    90
_cell_angle_beta     118.816
_cell_angle_gamma    90

_symmetry_space_group_name_H-M    "P 1"
_symmetry_Int_Tables_number       1

loop_
  _symmetry_equiv_pos_as_xyz
  'x, y, z'

loop_
  _atom_site_type_symbol
  _atom_site_label
  _atom_site_symmetry_multiplicity
  _atom_site_fract_x
  _atom_site_fract_y
  _atom_site_fract_z
  _atom_site_occupancy
  _atom_site_charge
Zn  Zn1       1.0  0.87626  0.74044  0.59325  1.0000 0.6712142003
Zn  Zn2       1.0  0.12374  0.24044  0.90675  1.0000 0.6712142003
Zn  Zn3       1.0  0.12374  0.25956  0.40675  1.0000 0.6712142003
Zn  Zn4       1.0  0.87626  0.75956  0.09325  1.0000 0.6712142003
Zn  Zn5       1.0  0.24010  0.75600  0.94562  1.0000 0.6712142003
Zn  Zn6       1.0  0.75990  0.25600  0.55438  1.0000 0.6712142003
Zn  Zn7       1.0  0.75990  0.24400  0.05438  1.0000 0.6712142003
Zn  Zn8       1.0  0.24010  0.74400  0.44562  1.0000 0.6712142003
H   H1        1.0  0.15380  0.86130  0.71020  1.0000 0.1603871777
H   H2        1.0  0.84620  0.36130  0.78980  1.0000 0.1603871777
H   H3        1.0  0.84620  0.13870  0.28980  1.0000 0.1603871777
H   H4        1.0  0.15380  0.63870  0.21020  1.0000 0.1603871777
H   H5        1.0  0.28430  0.80630  0.78480  1.0000 0.1603871777
H   H6        1.0  0.71570  0.30630  0.71520  1.0000 0.1603871777
H   H7        1.0  0.71570  0.19370  0.21520  1.0000 0.1603871777
H   H8        1.0  0.28430  0.69370  0.28480  1.0000 0.1603871777
H   H9        1.0  0.19560  0.90390  0.79550  1.0000 0.1669753555
H   H10       1.0  0.80440  0.40390  0.70450  1.0000 0.1669753555
H   H11       1.0  0.80440  0.09610  0.20450  1.0000 0.1669753555
H   H12       1.0  0.19560  0.59610  0.29550  1.0000 0.1669753555
H   H13       1.0  0.84340  0.57420  0.83990  1.0000 0.1603871777
H   H14       1.0  0.15660  0.07420  0.66010  1.0000 0.1603871777
H   H15       1.0  0.15660  0.42580  0.16010  1.0000 0.1603871777
H   H16       1.0  0.84340  0.92580  0.33990  1.0000 0.1603871777
H   H17       1.0  0.99880  0.51870  0.87570  1.0000 0.15177082
H   H18       1.0  0.00120  0.01870  0.62430  1.0000 0.15177082
H   H19       1.0  0.00120  0.48130  0.12430  1.0000 0.15177082
H   H20       1.0  0.99880  0.98130  0.37570  1.0000 0.15177082
H   H21       1.0  0.19720  0.80730  0.15320  1.0000 0.15177082
H   H22       1.0  0.80280  0.30730  0.34680  1.0000 0.15177082
H   H23       1.0  0.80280  0.19270  0.84680  1.0000 0.15177082
H   H24       1.0  0.19720  0.69270  0.65320  1.0000 0.15177082
H   H25       1.0  0.25600  0.84820  0.09630  1.0000 0.1603871777
H   H26       1.0  0.74400  0.34820  0.40370  1.0000 0.1603871777
H   H27       1.0  0.74400  0.15180  0.90370  1.0000 0.1603871777
H   H28       1.0  0.25600  0.65180  0.59630  1.0000 0.1603871777
H   H29       1.0  0.31450  0.73710  0.14330  1.0000 0.1669753555
H   H30       1.0  0.68550  0.23710  0.35670  1.0000 0.1669753555
H   H31       1.0  0.68550  0.26290  0.85670  1.0000 0.1669753555
H   H32       1.0  0.31450  0.76290  0.64330  1.0000 0.1669753555
H   H33       1.0  0.65450  0.01660  0.64410  1.0000 0.1669753555
H   H34       1.0  0.34550  0.51660  0.85590  1.0000 0.1669753555
H   H35       1.0  0.34550  0.98340  0.35590  1.0000 0.1669753555
H   H36       1.0  0.65450  0.48340  0.14410  1.0000 0.1669753555
H   H37       1.0  0.75680  0.91890  0.69410  1.0000 0.1603871777
H   H38       1.0  0.24320  0.41890  0.80590  1.0000 0.1603871777
H   H39       1.0  0.24320  0.08110  0.30590  1.0000 0.1603871777
H   H40       1.0  0.75680  0.58110  0.19410  1.0000 0.1603871777
H   H41       1.0  0.79170  0.98410  0.63470  1.0000 0.1438715828
H   H42       1.0  0.20830  0.48410  0.86530  1.0000 0.1438715828
H   H43       1.0  0.20830  0.01590  0.36530  1.0000 0.1438715828
H   H44       1.0  0.79170  0.51590  0.13470  1.0000 0.1438715828
H   H45       1.0  0.46700  0.62870  0.41880  1.0000 0.15177082
H   H46       1.0  0.53300  0.12870  0.08120  1.0000 0.15177082
H   H47       1.0  0.53300  0.37130  0.58120  1.0000 0.15177082
H   H48       1.0  0.46700  0.87130  0.91880  1.0000 0.15177082
H   H49       1.0  0.59300  0.68950  0.41100  1.0000 0.1603871777
H   H50       1.0  0.40700  0.18950  0.08900  1.0000 0.1603871777
H   H51       1.0  0.40700  0.31050  0.58900  1.0000 0.1603871777
H   H52       1.0  0.59300  0.81050  0.91100  1.0000 0.1603871777
H   H53       1.0  0.02920  0.38980  0.64030  1.0000 0.1603871777
H   H54       1.0  0.97080  0.88980  0.85970  1.0000 0.1603871777
H   H55       1.0  0.97080  0.61020  0.35970  1.0000 0.1603871777
H   H56       1.0  0.02920  0.11020  0.14030  1.0000 0.1603871777
H   H57       1.0  0.07930  0.49860  0.61580  1.0000 0.1669753555
H   H58       1.0  0.92070  0.99860  0.88420  1.0000 0.1669753555
H   H59       1.0  0.92070  0.50140  0.38420  1.0000 0.1669753555
H   H60       1.0  0.07930  0.00140  0.11580  1.0000 0.1669753555
H   H61       1.0  0.03560  0.50160  0.68330  1.0000 0.1603871777
H   H62       1.0  0.96440  0.00160  0.81670  1.0000 0.1603871777
H   H63       1.0  0.96440  0.49840  0.31670  1.0000 0.1603871777
H   H64       1.0  0.03560  0.99840  0.18330  1.0000 0.1603871777
C   C1        1.0  0.18882  0.83970  0.76442  1.0000 -0.5366726198
C   C2        1.0  0.81118  0.33970  0.73558  1.0000 -0.5366726198
C   C3        1.0  0.81118  0.16030  0.23558  1.0000 -0.5366726198
C   C4        1.0  0.18882  0.66030  0.26442  1.0000 -0.5366726198
C   C5        1.0  0.08641  0.76010  0.76861  1.0000 0.3915043098
C   C6        1.0  0.91359  0.26010  0.73139  1.0000 0.3915043098
C   C7        1.0  0.91359  0.23990  0.23139  1.0000 0.3915043098
C   C8        1.0  0.08641  0.73990  0.26861  1.0000 0.3915043098
C   C9        1.0  0.98174  0.65500  0.81194  1.0000 0.3546367062
C   C10       1.0  0.01826  0.15500  0.68806  1.0000 0.3546367062
C   C11       1.0  0.01826  0.34500  0.18806  1.0000 0.3546367062
C   C12       1.0  0.98174  0.84500  0.31194  1.0000 0.3546367062
C   C13       1.0  0.94838  0.58920  0.86618  1.0000 -0.3720006051
C   C14       1.0  0.05162  0.08920  0.63382  1.0000 -0.3720006051
C   C15       1.0  0.05162  0.41080  0.13382  1.0000 -0.3720006051
C   C16       1.0  0.94838  0.91080  0.36618  1.0000 -0.3720006051
C   C17       1.0  0.99040  0.64190  0.94320  1.0000 0.36232236
C   C18       1.0  0.00960  0.14190  0.55680  1.0000 0.36232236
C   C19       1.0  0.00960  0.35810  0.05680  1.0000 0.36232236
C   C20       1.0  0.99040  0.85810  0.44320  1.0000 0.36232236
C   C21       1.0  0.11222  0.72390  0.05112  1.0000 0.4080259474
C   C22       1.0  0.88778  0.22390  0.44888  1.0000 0.4080259474
C   C23       1.0  0.88778  0.27610  0.94888  1.0000 0.4080259474
C   C24       1.0  0.11222  0.77610  0.55112  1.0000 0.4080259474
C   C25       1.0  0.23008  0.78430  0.11658  1.0000 -0.5366726198
C   C26       1.0  0.76992  0.28430  0.38342  1.0000 -0.5366726198
C   C27       1.0  0.76992  0.21570  0.88342  1.0000 -0.5366726198
C   C28       1.0  0.23008  0.71570  0.61658  1.0000 -0.5366726198
C   C29       1.0  0.71440  0.95620  0.64380  1.0000 -0.5188704806
C   C30       1.0  0.28560  0.45620  0.85620  1.0000 -0.5188704806
C   C31       1.0  0.28560  0.04380  0.35620  1.0000 -0.5188704806
C   C32       1.0  0.71440  0.54380  0.14380  1.0000 -0.5188704806
C   C33       1.0  0.62424  0.87900  0.58114  1.0000 0.4080259474
C   C34       1.0  0.37576  0.37900  0.91886  1.0000 0.4080259474
C   C35       1.0  0.37576  0.12100  0.41886  1.0000 0.4080259474
C   C36       1.0  0.62424  0.62100  0.08114  1.0000 0.4080259474
C   C37       1.0  0.56086  0.75039  0.49836  1.0000 0.3684677703
C   C38       1.0  0.43914  0.25039  0.00164  1.0000 0.3684677703
C   C39       1.0  0.43914  0.24961  0.50164  1.0000 0.3684677703
C   C40       1.0  0.56086  0.74961  0.99836  1.0000 0.3684677703
C   C41       1.0  0.56500  0.65990  0.44870  1.0000 -0.3904451358
C   C42       1.0  0.43500  0.15990  0.05130  1.0000 -0.3904451358
C   C43       1.0  0.43500  0.34010  0.55130  1.0000 -0.3904451358
C   C44       1.0  0.56500  0.84010  0.94870  1.0000 -0.3904451358
C   C45       1.0  0.66817  0.57160  0.49477  1.0000 0.36232236
C   C46       1.0  0.33183  0.07160  0.00523  1.0000 0.36232236
C   C47       1.0  0.33183  0.42840  0.50523  1.0000 0.36232236
C   C48       1.0  0.66817  0.92840  0.99477  1.0000 0.36232236
C   C49       1.0  0.86156  0.49120  0.57456  1.0000 0.4080259474
C   C50       1.0  0.13844  0.99120  0.92544  1.0000 0.4080259474
C   C51       1.0  0.13844  0.50880  0.42544  1.0000 0.4080259474
C   C52       1.0  0.86156  0.00880  0.07456  1.0000 0.4080259474
C   C53       1.0  0.01457  0.46830  0.63357  1.0000 -0.5366726198
C   C54       1.0  0.98543  0.96830  0.86643  1.0000 -0.5366726198
C   C55       1.0  0.98543  0.53170  0.36643  1.0000 -0.5366726198
C   C56       1.0  0.01457  0.03170  0.13357  1.0000 -0.5366726198
N   N1        1.0  0.67839  0.80168  0.55279  1.0000 -0.433365308
N   N2        1.0  0.32161  0.30168  0.94721  1.0000 -0.433365308
N   N3        1.0  0.32161  0.19832  0.44721  1.0000 -0.433365308
N   N4        1.0  0.67839  0.69832  0.05279  1.0000 -0.433365308
N   N5        1.0  0.48235  0.87721  0.54675  1.0000 -0.2910533138
N   N6        1.0  0.51765  0.37721  0.95325  1.0000 -0.2910533138
N   N7        1.0  0.51765  0.12279  0.45325  1.0000 -0.2910533138
N   N8        1.0  0.48235  0.62279  0.04675  1.0000 -0.2910533138
N   N9        1.0  0.44122  0.79294  0.49312  1.0000 -0.2797661104
N   N10       1.0  0.55878  0.29294  0.00688  1.0000 -0.2797661104
N   N11       1.0  0.55878  0.20706  0.50688  1.0000 -0.2797661104
N   N12       1.0  0.44122  0.70706  0.99312  1.0000 -0.2797661104
N   N13       1.0  0.80862  0.59116  0.54892  1.0000 -0.4444104659
N   N14       1.0  0.19138  0.09116  0.95108  1.0000 -0.4494589197
N   N15       1.0  0.19138  0.40884  0.45108  1.0000 -0.4444104659
N   N16       1.0  0.80862  0.90884  0.04892  1.0000 -0.4494589197
N   N17       1.0  0.63494  0.46811  0.48664  1.0000 -0.2910533138
N   N18       1.0  0.36506  0.96811  0.01336  1.0000 -0.2910533138
N   N19       1.0  0.36506  0.53189  0.51336  1.0000 -0.2910533138
N   N20       1.0  0.63494  0.03189  0.98664  1.0000 -0.2910533138
N   N21       1.0  0.76165  0.41604  0.53925  1.0000 -0.2797661104
N   N22       1.0  0.23835  0.91604  0.96075  1.0000 -0.2797661104
N   N23       1.0  0.23835  0.58396  0.46075  1.0000 -0.2797661104
N   N24       1.0  0.76165  0.08396  0.03925  1.0000 -0.2797661104
N   N25       1.0  0.98784  0.69429  0.04684  1.0000 -0.2910533138
N   N26       1.0  0.01216  0.19429  0.45316  1.0000 -0.2910533138
N   N27       1.0  0.01216  0.30571  0.95316  1.0000 -0.2910533138
N   N28       1.0  0.98784  0.80571  0.54684  1.0000 -0.2910533138
N   N29       1.0  0.90809  0.64041  0.97639  1.0000 -0.2910533138
N   N30       1.0  0.09191  0.14041  0.52361  1.0000 -0.2910533138
N   N31       1.0  0.09191  0.35959  0.02361  1.0000 -0.2965888547
N   N32       1.0  0.90809  0.85959  0.47639  1.0000 -0.2910533138
N   N33       1.0  0.11879  0.69199  0.98749  1.0000 -0.433365308
N   N34       1.0  0.88121  0.19199  0.51251  1.0000 -0.433365308
N   N35       1.0  0.88121  0.30801  0.01251  1.0000 -0.433365308
N   N36       1.0  0.11879  0.80801  0.48749  1.0000 -0.433365308
N   N37       1.0  0.10079  0.71884  0.83529  1.0000 -0.4494589197
N   N38       1.0  0.89921  0.21884  0.66471  1.0000 -0.4494589197
N   N39       1.0  0.89921  0.28116  0.16471  1.0000 -0.4494589197
N   N40       1.0  0.10079  0.78116  0.33529  1.0000 -0.4494589197
N   N41       1.0  0.89958  0.65435  0.73608  1.0000 -0.2965888547
N   N42       1.0  0.10042  0.15435  0.76392  1.0000 -0.2965888547
N   N43       1.0  0.10042  0.34565  0.26392  1.0000 -0.2965888547
N   N44       1.0  0.89958  0.84565  0.23608  1.0000 -0.2965888547
N   N45       1.0  0.96847  0.72329  0.70797  1.0000 -0.2797661104
N   N46       1.0  0.03153  0.22329  0.79203  1.0000 -0.2797661104
N   N47       1.0  0.03153  0.27671  0.29203  1.0000 -0.2797661104
N   N48       1.0  0.96847  0.77671  0.20797  1.0000 -0.2797661104
