# DDEC6 charges by PACMAN v1.1 (https://github.com/mtap-research/PACMAN-charge/)
data_2012[Fe][pts]3[FSR]1
_chemical_formula_sum              "Fe2 H48 C54 S4 N12 O8"
_cell_length_a       12.3259
_cell_length_b       12.3259
_cell_length_c       24.0229
_cell_angle_alpha    90
_cell_angle_beta     90
_cell_angle_gamma    137.251

_symmetry_space_group_name_H-M    "P 1"
_symmetry_Int_Tables_number       1

loop_
  _symmetry_equiv_pos_as_xyz
  'x, y, z'

loop_
  _atom_site_type_symbol
  _atom_site_label
  _atom_site_symmetry_multiplicity
  _atom_site_fract_x
  _atom_site_fract_y
  _atom_site_fract_z
  _atom_site_occupancy
  _atom_site_charge
Fe  Fe1       1.0  0.00000  0.50000  0.50000  1.0000 0.6598836003
Fe  Fe2       1.0  0.50000  0.00000  0.00000  1.0000 0.6598836003
H   H1        1.0  0.75470  0.15650  0.44880  1.0000 0.1001874682
H   H2        1.0  0.24530  0.84350  0.44880  1.0000 0.1001874682
H   H3        1.0  0.84350  0.24530  0.05120  1.0000 0.1001874682
H   H4        1.0  0.15650  0.75470  0.05120  1.0000 0.1001874682
H   H5        1.0  0.24530  0.84350  0.55120  1.0000 0.1001874682
H   H6        1.0  0.75470  0.15650  0.55120  1.0000 0.1001874682
H   H7        1.0  0.15650  0.75470  0.94880  1.0000 0.1001874682
H   H8        1.0  0.84350  0.24530  0.94880  1.0000 0.1001874682
H   H9        1.0  0.73010  0.99970  0.38660  1.0000 0.1490030853
H   H10       1.0  0.26990  0.00030  0.38660  1.0000 0.1490030853
H   H11       1.0  0.00030  0.26990  0.11340  1.0000 0.1490030853
H   H12       1.0  0.99970  0.73010  0.11340  1.0000 0.1490030853
H   H13       1.0  0.26990  0.00030  0.61340  1.0000 0.1490030853
H   H14       1.0  0.73010  0.99970  0.61340  1.0000 0.1490030853
H   H15       1.0  0.99970  0.73010  0.88660  1.0000 0.1490030853
H   H16       1.0  0.00030  0.26990  0.88660  1.0000 0.1490030853
H   H17       1.0  0.18070  0.38830  0.33800  1.0000 0.1336728377
H   H18       1.0  0.81930  0.61170  0.33800  1.0000 0.1336728377
H   H19       1.0  0.61170  0.81930  0.16200  1.0000 0.1336728377
H   H20       1.0  0.38830  0.18070  0.16200  1.0000 0.1336728377
H   H21       1.0  0.81930  0.61170  0.66200  1.0000 0.1336728377
H   H22       1.0  0.18070  0.38830  0.66200  1.0000 0.1336728377
H   H23       1.0  0.38830  0.18070  0.83800  1.0000 0.1336728377
H   H24       1.0  0.61170  0.81930  0.83800  1.0000 0.1336728377
H   H25       1.0  0.18880  0.53120  0.40200  1.0000 0.1098515881
H   H26       1.0  0.81120  0.46880  0.40200  1.0000 0.1098515881
H   H27       1.0  0.46880  0.81120  0.09800  1.0000 0.1098515881
H   H28       1.0  0.53120  0.18880  0.09800  1.0000 0.1098515881
H   H29       1.0  0.81120  0.46880  0.59800  1.0000 0.1098515881
H   H30       1.0  0.18880  0.53120  0.59800  1.0000 0.1098515881
H   H31       1.0  0.53120  0.18880  0.90200  1.0000 0.1098515881
H   H32       1.0  0.46880  0.81120  0.90200  1.0000 0.1098515881
H   H33       1.0  0.15050  0.17850  0.30930  1.0000 0.1001874682
H   H34       1.0  0.84950  0.82150  0.30930  1.0000 0.1001874682
H   H35       1.0  0.82150  0.84950  0.19070  1.0000 0.1001874682
H   H36       1.0  0.17850  0.15050  0.19070  1.0000 0.1001874682
H   H37       1.0  0.84950  0.82150  0.69070  1.0000 0.1001874682
H   H38       1.0  0.15050  0.17850  0.69070  1.0000 0.1001874682
H   H39       1.0  0.17850  0.15050  0.80930  1.0000 0.1001874682
H   H40       1.0  0.82150  0.84950  0.80930  1.0000 0.1001874682
H   H41       1.0  0.10110  0.22610  0.26290  1.0000 0.1001874682
H   H42       1.0  0.89890  0.77390  0.26290  1.0000 0.1001874682
H   H43       1.0  0.77390  0.89890  0.23710  1.0000 0.1001874682
H   H44       1.0  0.22610  0.10110  0.23710  1.0000 0.1001874682
H   H45       1.0  0.89890  0.77390  0.73710  1.0000 0.1001874682
H   H46       1.0  0.10110  0.22610  0.73710  1.0000 0.1001874682
H   H47       1.0  0.22610  0.10110  0.76290  1.0000 0.1001874682
H   H48       1.0  0.77390  0.89890  0.76290  1.0000 0.1001874682
C   C1        1.0  0.84208  0.20352  0.42660  1.0000 0.0903317394
C   C2        1.0  0.15792  0.79648  0.42660  1.0000 0.0903317394
C   C3        1.0  0.79648  0.15792  0.07340  1.0000 0.0903317394
C   C4        1.0  0.20352  0.84208  0.07340  1.0000 0.0903317394
C   C5        1.0  0.15792  0.79648  0.57340  1.0000 0.0903317394
C   C6        1.0  0.84208  0.20352  0.57340  1.0000 0.0903317394
C   C7        1.0  0.20352  0.84208  0.92660  1.0000 0.0903317394
C   C8        1.0  0.79648  0.15792  0.92660  1.0000 0.0903317394
C   C9        1.0  0.82552  0.10828  0.38916  1.0000 -0.2517670816
C   C10       1.0  0.17448  0.89172  0.38916  1.0000 -0.2517670816
C   C11       1.0  0.89172  0.17448  0.11084  1.0000 -0.2517670816
C   C12       1.0  0.10828  0.82552  0.11084  1.0000 -0.2517670816
C   C13       1.0  0.17448  0.89172  0.61084  1.0000 -0.2517670816
C   C14       1.0  0.82552  0.10828  0.61084  1.0000 -0.2517670816
C   C15       1.0  0.10828  0.82552  0.88916  1.0000 -0.2517670816
C   C16       1.0  0.89172  0.17448  0.88916  1.0000 -0.2517670816
C   C17       1.0  0.95362  0.17678  0.35515  1.0000 0.2838487891
C   C18       1.0  0.04638  0.82322  0.35515  1.0000 0.2838487891
C   C19       1.0  0.82322  0.04638  0.14485  1.0000 0.2838487891
C   C20       1.0  0.17678  0.95362  0.14485  1.0000 0.2838487891
C   C21       1.0  0.04638  0.82322  0.64485  1.0000 0.2838487891
C   C22       1.0  0.95362  0.17678  0.64485  1.0000 0.2838487891
C   C23       1.0  0.17678  0.95362  0.85515  1.0000 0.2838487891
C   C24       1.0  0.82322  0.04638  0.85515  1.0000 0.2838487891
C   C25       1.0  0.09219  0.33801  0.36025  1.0000 -0.2731671887
C   C26       1.0  0.90781  0.66199  0.36025  1.0000 -0.2731671887
C   C27       1.0  0.66199  0.90781  0.13975  1.0000 -0.2731671887
C   C28       1.0  0.33801  0.09219  0.13975  1.0000 -0.2731671887
C   C29       1.0  0.90781  0.66199  0.63975  1.0000 -0.2731671887
C   C30       1.0  0.09219  0.33801  0.63975  1.0000 -0.2731671887
C   C31       1.0  0.33801  0.09219  0.86025  1.0000 -0.2731671887
C   C32       1.0  0.66199  0.90781  0.86025  1.0000 -0.2731671887
C   C33       1.0  0.09559  0.42201  0.39914  1.0000 0.1001874682
C   C34       1.0  0.90441  0.57799  0.39914  1.0000 0.1001874682
C   C35       1.0  0.57799  0.90441  0.10086  1.0000 0.1001874682
C   C36       1.0  0.42201  0.09559  0.10086  1.0000 0.1001874682
C   C37       1.0  0.90441  0.57799  0.60086  1.0000 0.1001874682
C   C38       1.0  0.09559  0.42201  0.60086  1.0000 0.1001874682
C   C39       1.0  0.42201  0.09559  0.89914  1.0000 0.1001874682
C   C40       1.0  0.57799  0.90441  0.89914  1.0000 0.1001874682
C   C41       1.0  0.06320  0.13920  0.28605  1.0000 -0.0894045489
C   C42       1.0  0.93680  0.86080  0.28605  1.0000 -0.0894045489
C   C43       1.0  0.86080  0.93680  0.21395  1.0000 -0.0894045489
C   C44       1.0  0.13920  0.06320  0.21395  1.0000 -0.0894045489
C   C45       1.0  0.93680  0.86080  0.71395  1.0000 -0.0894045489
C   C46       1.0  0.06320  0.13920  0.71395  1.0000 -0.0894045489
C   C47       1.0  0.13920  0.06320  0.78605  1.0000 -0.0894045489
C   C48       1.0  0.86080  0.93680  0.78605  1.0000 -0.0894045489
C   C49       1.0  0.00000  0.00000  0.25000  1.0000 0.0645460454
C   C50       1.0  0.00000  0.00000  0.75000  1.0000 0.0645460454
C   C51       1.0  0.62207  0.28053  0.50000  1.0000 0.2457166133
C   C52       1.0  0.37793  0.71947  0.50000  1.0000 0.2457166133
C   C53       1.0  0.71947  0.37793  0.00000  1.0000 0.2457166133
C   C54       1.0  0.28053  0.62207  0.00000  1.0000 0.2457166133
S   S1        1.0  0.44157  0.19847  0.50000  1.0000 -0.3863194617
S   S2        1.0  0.55843  0.80153  0.50000  1.0000 -0.3814753028
S   S3        1.0  0.80153  0.55843  0.00000  1.0000 -0.3863194617
S   S4        1.0  0.19847  0.44157  0.00000  1.0000 -0.3814753028
N   N1        1.0  0.97482  0.35854  0.43323  1.0000 -0.2286316244
N   N2        1.0  0.02518  0.64146  0.43323  1.0000 -0.2286316244
N   N3        1.0  0.64146  0.02518  0.06677  1.0000 -0.2286316244
N   N4        1.0  0.35854  0.97482  0.06677  1.0000 -0.2286316244
N   N5        1.0  0.02518  0.64146  0.56677  1.0000 -0.2286316244
N   N6        1.0  0.97482  0.35854  0.56677  1.0000 -0.2286316244
N   N7        1.0  0.35854  0.97482  0.93323  1.0000 -0.2286316244
N   N8        1.0  0.64146  0.02518  0.93323  1.0000 -0.2286316244
N   N9        1.0  0.74926  0.33934  0.50000  1.0000 -0.4806276741
N   N10       1.0  0.25074  0.66066  0.50000  1.0000 -0.4806276741
N   N11       1.0  0.66066  0.25074  0.00000  1.0000 -0.4806276741
N   N12       1.0  0.33934  0.74926  0.00000  1.0000 -0.4806276741
O   O1        1.0  0.93109  0.07671  0.31961  1.0000 -0.1961906584
O   O2        1.0  0.06891  0.92329  0.31961  1.0000 -0.1961906584
O   O3        1.0  0.92329  0.06891  0.18039  1.0000 -0.1961906584
O   O4        1.0  0.07671  0.93109  0.18039  1.0000 -0.1961906584
O   O5        1.0  0.06891  0.92329  0.68039  1.0000 -0.1961906584
O   O6        1.0  0.93109  0.07671  0.68039  1.0000 -0.1961906584
O   O7        1.0  0.07671  0.93109  0.81961  1.0000 -0.1961906584
O   O8        1.0  0.92329  0.06891  0.81961  1.0000 -0.1961906584
