# DDEC6 charges by PACMAN v1.1 (https://github.com/mtap-research/PACMAN-charge/)
data_2012[Zn][sod]3[FSR]11
_chemical_formula_sum              "Zn6 H48 C36 N48 O6"
_cell_length_a       15.0693
_cell_length_b       15.0693
_cell_length_c       15.0693
_cell_angle_alpha    112.027
_cell_angle_beta     112.027
_cell_angle_gamma    112.027

_symmetry_space_group_name_H-M    "P 1"
_symmetry_Int_Tables_number       1

loop_
  _symmetry_equiv_pos_as_xyz
  'x, y, z'

loop_
  _atom_site_type_symbol
  _atom_site_label
  _atom_site_symmetry_multiplicity
  _atom_site_fract_x
  _atom_site_fract_y
  _atom_site_fract_z
  _atom_site_occupancy
  _atom_site_charge
Zn  Zn1       1.0  0.03013  0.22132  0.74462  1.0000 0.6590728546
Zn  Zn2       1.0  0.22132  0.74462  0.03013  1.0000 0.6590728546
Zn  Zn3       1.0  0.74462  0.03013  0.22132  1.0000 0.6590728546
Zn  Zn4       1.0  0.96987  0.77868  0.25538  1.0000 0.6590728546
Zn  Zn5       1.0  0.77868  0.25538  0.96987  1.0000 0.6590728546
Zn  Zn6       1.0  0.25538  0.96987  0.77868  1.0000 0.6590728546
H   H1        1.0  0.73440  0.00910  0.48730  1.0000 0.1506762191
H   H2        1.0  0.00910  0.48730  0.73440  1.0000 0.1506762191
H   H3        1.0  0.48730  0.73440  0.00910  1.0000 0.1506762191
H   H4        1.0  0.26560  0.99090  0.51270  1.0000 0.1506762191
H   H5        1.0  0.99090  0.51270  0.26560  1.0000 0.1506762191
H   H6        1.0  0.51270  0.26560  0.99090  1.0000 0.1506762191
H   H7        1.0  0.69962  0.94242  0.35782  1.0000 0.1414744429
H   H8        1.0  0.94242  0.35782  0.69962  1.0000 0.1414744429
H   H9        1.0  0.35782  0.69962  0.94242  1.0000 0.1414744429
H   H10       1.0  0.30038  0.05758  0.64218  1.0000 0.1414744429
H   H11       1.0  0.05758  0.64218  0.30038  1.0000 0.1414744429
H   H12       1.0  0.64218  0.30038  0.05758  1.0000 0.1414744429
H   H13       1.0  0.84270  0.90320  0.42430  1.0000 0.097043374
H   H14       1.0  0.90320  0.42430  0.84270  1.0000 0.097043374
H   H15       1.0  0.42430  0.84270  0.90320  1.0000 0.097043374
H   H16       1.0  0.15730  0.09680  0.57570  1.0000 0.097043374
H   H17       1.0  0.09680  0.57570  0.15730  1.0000 0.097043374
H   H18       1.0  0.57570  0.15730  0.09680  1.0000 0.097043374
H   H19       1.0  0.73690  0.83930  0.42960  1.0000 0.097043374
H   H20       1.0  0.83930  0.42960  0.73690  1.0000 0.097043374
H   H21       1.0  0.42960  0.73690  0.83930  1.0000 0.097043374
H   H22       1.0  0.26310  0.16070  0.57040  1.0000 0.097043374
H   H23       1.0  0.16070  0.57040  0.26310  1.0000 0.097043374
H   H24       1.0  0.57040  0.26310  0.16070  1.0000 0.097043374
H   H25       1.0  0.84520  0.83800  0.58720  1.0000 0.097043374
H   H26       1.0  0.83800  0.58720  0.84520  1.0000 0.097043374
H   H27       1.0  0.58720  0.84520  0.83800  1.0000 0.097043374
H   H28       1.0  0.15480  0.16200  0.41280  1.0000 0.097043374
H   H29       1.0  0.16200  0.41280  0.15480  1.0000 0.097043374
H   H30       1.0  0.41280  0.15480  0.16200  1.0000 0.097043374
H   H31       1.0  0.94380  0.87850  0.56690  1.0000 0.0936999951
H   H32       1.0  0.87850  0.56690  0.94380  1.0000 0.0936999951
H   H33       1.0  0.56690  0.94380  0.87850  1.0000 0.0936999951
H   H34       1.0  0.05620  0.12150  0.43310  1.0000 0.0936999951
H   H35       1.0  0.12150  0.43310  0.05620  1.0000 0.0936999951
H   H36       1.0  0.43310  0.05620  0.12150  1.0000 0.0936999951
H   H37       1.0  0.02860  0.93000  0.76210  1.0000 0.1414744429
H   H38       1.0  0.93000  0.76210  0.02860  1.0000 0.1414744429
H   H39       1.0  0.76210  0.02860  0.93000  1.0000 0.1414744429
H   H40       1.0  0.97140  0.07000  0.23790  1.0000 0.1414744429
H   H41       1.0  0.07000  0.23790  0.97140  1.0000 0.1414744429
H   H42       1.0  0.23790  0.97140  0.07000  1.0000 0.1414744429
H   H43       1.0  0.98520  0.00990  0.78890  1.0000 0.1506762191
H   H44       1.0  0.00990  0.78890  0.98520  1.0000 0.1506762191
H   H45       1.0  0.78890  0.98520  0.00990  1.0000 0.1506762191
H   H46       1.0  0.01480  0.99010  0.21110  1.0000 0.1506762191
H   H47       1.0  0.99010  0.21110  0.01480  1.0000 0.1506762191
H   H48       1.0  0.21110  0.01480  0.99010  1.0000 0.1506762191
C   C1        1.0  0.86360  0.10460  0.47740  1.0000 0.3276015058
C   C2        1.0  0.10460  0.47740  0.86360  1.0000 0.3276015058
C   C3        1.0  0.47740  0.86360  0.10460  1.0000 0.3276015058
C   C4        1.0  0.13640  0.89540  0.52260  1.0000 0.3276015058
C   C5        1.0  0.89540  0.52260  0.13640  1.0000 0.3276015058
C   C6        1.0  0.52260  0.13640  0.89540  1.0000 0.3276015058
C   C7        1.0  0.76470  0.99020  0.44200  1.0000 -0.3059480504
C   C8        1.0  0.99020  0.44200  0.76470  1.0000 -0.3059480504
C   C9        1.0  0.44200  0.76470  0.99020  1.0000 -0.3059480504
C   C10       1.0  0.23530  0.00980  0.55800  1.0000 -0.3059480504
C   C11       1.0  0.00980  0.55800  0.23530  1.0000 -0.3059480504
C   C12       1.0  0.55800  0.23530  0.00980  1.0000 -0.3059480504
C   C13       1.0  0.80530  0.91650  0.46310  1.0000 0.0047034549
C   C14       1.0  0.91650  0.46310  0.80530  1.0000 0.0047034549
C   C15       1.0  0.46310  0.80530  0.91650  1.0000 0.0047034549
C   C16       1.0  0.19470  0.08350  0.53690  1.0000 0.0047034549
C   C17       1.0  0.08350  0.53690  0.19470  1.0000 0.0047034549
C   C18       1.0  0.53690  0.19470  0.08350  1.0000 0.0047034549
C   C19       1.0  0.91620  0.90690  0.61170  1.0000 -0.001363069
C   C20       1.0  0.90690  0.61170  0.91620  1.0000 -0.001363069
C   C21       1.0  0.61170  0.91620  0.90690  1.0000 -0.001363069
C   C22       1.0  0.08380  0.09310  0.38830  1.0000 -0.001363069
C   C23       1.0  0.09310  0.38830  0.08380  1.0000 -0.001363069
C   C24       1.0  0.38830  0.08380  0.09310  1.0000 -0.001363069
C   C25       1.0  0.01290  0.98050  0.74470  1.0000 -0.3154926613
C   C26       1.0  0.98050  0.74470  0.01290  1.0000 -0.3154926613
C   C27       1.0  0.74470  0.01290  0.98050  1.0000 -0.3154926613
C   C28       1.0  0.98710  0.01950  0.25530  1.0000 -0.3154926613
C   C29       1.0  0.01950  0.25530  0.98710  1.0000 -0.3154926613
C   C30       1.0  0.25530  0.98710  0.01950  1.0000 -0.3154926613
C   C31       1.0  0.12600  0.08400  0.78460  1.0000 0.3113340671
C   C32       1.0  0.08400  0.78460  0.12600  1.0000 0.3113340671
C   C33       1.0  0.78460  0.12600  0.08400  1.0000 0.3113340671
C   C34       1.0  0.87400  0.91600  0.21540  1.0000 0.3113340671
C   C35       1.0  0.91600  0.21540  0.87400  1.0000 0.3113340671
C   C36       1.0  0.21540  0.87400  0.91600  1.0000 0.3113340671
N   N1        1.0  0.96640  0.19310  0.58760  1.0000 -0.2824861125
N   N2        1.0  0.19310  0.58760  0.96640  1.0000 -0.2824861125
N   N3        1.0  0.58760  0.96640  0.19310  1.0000 -0.2824861125
N   N4        1.0  0.03360  0.80690  0.41240  1.0000 -0.2824861125
N   N5        1.0  0.80690  0.41240  0.03360  1.0000 -0.2824861125
N   N6        1.0  0.41240  0.03360  0.80690  1.0000 -0.2824861125
N   N7        1.0  0.02940  0.27880  0.57930  1.0000 -0.0797729321
N   N8        1.0  0.27880  0.57930  0.02940  1.0000 -0.0797729321
N   N9        1.0  0.57930  0.02940  0.27880  1.0000 -0.0797729321
N   N10       1.0  0.97060  0.72120  0.42070  1.0000 -0.0797729321
N   N11       1.0  0.72120  0.42070  0.97060  1.0000 -0.0797729321
N   N12       1.0  0.42070  0.97060  0.72120  1.0000 -0.0797729321
N   N13       1.0  0.96850  0.24360  0.47080  1.0000 -0.0797729321
N   N14       1.0  0.24360  0.47080  0.96850  1.0000 -0.0797729321
N   N15       1.0  0.47080  0.96850  0.24360  1.0000 -0.0797729321
N   N16       1.0  0.03150  0.75640  0.52920  1.0000 -0.0797729321
N   N17       1.0  0.75640  0.52920  0.03150  1.0000 -0.0797729321
N   N18       1.0  0.52920  0.03150  0.75640  1.0000 -0.0797729321
N   N19       1.0  0.86230  0.13308  0.40372  1.0000 -0.2881538287
N   N20       1.0  0.13308  0.40372  0.86230  1.0000 -0.2881538287
N   N21       1.0  0.40372  0.86230  0.13308  1.0000 -0.2881538287
N   N22       1.0  0.13770  0.86692  0.59628  1.0000 -0.2881538287
N   N23       1.0  0.86692  0.59628  0.13770  1.0000 -0.2881538287
N   N24       1.0  0.59628  0.13770  0.86692  1.0000 -0.2881538287
N   N25       1.0  0.14120  0.18060  0.79430  1.0000 -0.2748476978
N   N26       1.0  0.18060  0.79430  0.14120  1.0000 -0.2748476978
N   N27       1.0  0.79430  0.14120  0.18060  1.0000 -0.2748476978
N   N28       1.0  0.85880  0.81940  0.20570  1.0000 -0.2748476978
N   N29       1.0  0.81940  0.20570  0.85880  1.0000 -0.2748476978
N   N30       1.0  0.20570  0.85880  0.81940  1.0000 -0.2748476978
N   N31       1.0  0.25390  0.25110  0.82830  1.0000 -0.0628490351
N   N32       1.0  0.25110  0.82830  0.25390  1.0000 -0.0628490351
N   N33       1.0  0.82830  0.25390  0.25110  1.0000 -0.0628490351
N   N34       1.0  0.74610  0.74890  0.17170  1.0000 -0.0628490351
N   N35       1.0  0.74890  0.17170  0.74610  1.0000 -0.0628490351
N   N36       1.0  0.17170  0.74610  0.74890  1.0000 -0.0628490351
N   N37       1.0  0.30300  0.19820  0.83870  1.0000 -0.0628490351
N   N38       1.0  0.19820  0.83870  0.30300  1.0000 -0.0628490351
N   N39       1.0  0.83870  0.30300  0.19820  1.0000 -0.0628490351
N   N40       1.0  0.69700  0.80180  0.16130  1.0000 -0.0628490351
N   N41       1.0  0.80180  0.16130  0.69700  1.0000 -0.0628490351
N   N42       1.0  0.16130  0.69700  0.80180  1.0000 -0.0628490351
N   N43       1.0  0.22425  0.09285  0.81310  1.0000 -0.2824861125
N   N44       1.0  0.09285  0.81310  0.22425  1.0000 -0.2824861125
N   N45       1.0  0.81310  0.22425  0.09285  1.0000 -0.2824861125
N   N46       1.0  0.77575  0.90715  0.18690  1.0000 -0.2824861125
N   N47       1.0  0.90715  0.18690  0.77575  1.0000 -0.2824861125
N   N48       1.0  0.18690  0.77575  0.90715  1.0000 -0.2824861125
O   O1        1.0  0.88811  0.97957  0.58782  1.0000 -0.2361278669
O   O2        1.0  0.97957  0.58782  0.88811  1.0000 -0.2361278669
O   O3        1.0  0.58782  0.88811  0.97957  1.0000 -0.2361278669
O   O4        1.0  0.11189  0.02043  0.41218  1.0000 -0.2361278669
O   O5        1.0  0.02043  0.41218  0.11189  1.0000 -0.2361278669
O   O6        1.0  0.41218  0.11189  0.02043  1.0000 -0.2342918083
