# DDEC6 charges by PACMAN v1.1 (https://github.com/mtap-research/PACMAN-charge/)
data_2012[Zn][acs]3[FSR]2
_chemical_formula_sum              "Zn2 H6 C6 O12"
_cell_length_a       7.2829
_cell_length_b       7.2829
_cell_length_c       8.1691
_cell_angle_alpha    90
_cell_angle_beta     90
_cell_angle_gamma    120

_symmetry_space_group_name_H-M    "P 1"
_symmetry_Int_Tables_number       1

loop_
  _symmetry_equiv_pos_as_xyz
  'x, y, z'

loop_
  _atom_site_type_symbol
  _atom_site_label
  _atom_site_symmetry_multiplicity
  _atom_site_fract_x
  _atom_site_fract_y
  _atom_site_fract_z
  _atom_site_occupancy
  _atom_site_charge
Zn  Zn1       1.0  0.33333  0.66667  0.25000  1.0000 0.9465555193
Zn  Zn2       1.0  0.66667  0.33333  0.75000  1.0000 0.9465555193
H   H1        1.0  0.00000  0.43463  0.50000  1.0000 0.1124610546
H   H2        1.0  0.56537  0.00000  0.00000  1.0000 0.1124610546
H   H3        1.0  0.56537  0.56537  0.50000  1.0000 0.1124610546
H   H4        1.0  0.00000  0.56537  0.00000  1.0000 0.1124610546
H   H5        1.0  0.43463  0.00000  0.50000  1.0000 0.1124610546
H   H6        1.0  0.43463  0.43463  0.00000  1.0000 0.1124610546
C   C1        1.0  0.00000  0.56283  0.50000  1.0000 0.4957536402
C   C2        1.0  0.43717  0.00000  0.00000  1.0000 0.4948540571
C   C3        1.0  0.43717  0.43717  0.50000  1.0000 0.4957536402
C   C4        1.0  0.00000  0.43717  0.00000  1.0000 0.4948540571
C   C5        1.0  0.56283  0.00000  0.50000  1.0000 0.4948540571
C   C6        1.0  0.56283  0.56283  0.00000  1.0000 0.4957536402
O   O1        1.0  0.11037  0.69487  0.39430  1.0000 -0.4616417048
O   O2        1.0  0.41550  0.11037  0.89430  1.0000 -0.4616417048
O   O3        1.0  0.30513  0.41550  0.39430  1.0000 -0.4616417048
O   O4        1.0  0.88963  0.30513  0.89430  1.0000 -0.4616417048
O   O5        1.0  0.58450  0.88963  0.39430  1.0000 -0.4616417048
O   O6        1.0  0.69487  0.58450  0.89430  1.0000 -0.4616417048
O   O7        1.0  0.41550  0.30513  0.60570  1.0000 -0.4616417048
O   O8        1.0  0.88963  0.58450  0.60570  1.0000 -0.4616417048
O   O9        1.0  0.69487  0.11037  0.60570  1.0000 -0.4616417048
O   O10       1.0  0.30513  0.88963  0.10570  1.0000 -0.4616417048
O   O11       1.0  0.58450  0.69487  0.10570  1.0000 -0.4616417048
O   O12       1.0  0.11037  0.41550  0.10570  1.0000 -0.4616417048
