# DDEC6 charges by PACMAN v1.1 (https://github.com/mtap-research/PACMAN-charge/)
data_2012[MoNi][mmo]3[FSR]1
_chemical_formula_sum              "Ni3 Mo3 H60 C72 N12 O12"
_cell_length_a       13.5673
_cell_length_b       13.5673
_cell_length_c       13.5673
_cell_angle_alpha    101.987
_cell_angle_beta     101.987
_cell_angle_gamma    101.987

_symmetry_space_group_name_H-M    "P 1"
_symmetry_Int_Tables_number       1

loop_
  _symmetry_equiv_pos_as_xyz
  'x, y, z'

loop_
  _atom_site_type_symbol
  _atom_site_label
  _atom_site_symmetry_multiplicity
  _atom_site_fract_x
  _atom_site_fract_y
  _atom_site_fract_z
  _atom_site_occupancy
  _atom_site_charge
Ni  Ni1       1.0  0.50000  0.87930  0.12070  1.0000 0.7514450711
Ni  Ni2       1.0  0.87930  0.12070  0.50000  1.0000 0.7514450711
Ni  Ni3       1.0  0.12070  0.50000  0.87930  1.0000 0.7514450711
Mo  Mo1       1.0  0.20833  0.79167  0.00000  1.0000 1.9399586083
Mo  Mo2       1.0  0.79167  0.00000  0.20833  1.0000 1.9399586083
Mo  Mo3       1.0  0.00000  0.20833  0.79167  1.0000 1.9399586083
H   H1        1.0  0.64690  0.82980  0.98010  1.0000 0.107943812
H   H2        1.0  0.82980  0.98010  0.64690  1.0000 0.107943812
H   H3        1.0  0.98010  0.64690  0.82980  1.0000 0.107943812
H   H4        1.0  0.17020  0.35310  0.01990  1.0000 0.107943812
H   H5        1.0  0.01990  0.17020  0.35310  1.0000 0.107943812
H   H6        1.0  0.35310  0.01990  0.17020  1.0000 0.107943812
H   H7        1.0  0.65800  0.81800  0.81130  1.0000 0.1335237524
H   H8        1.0  0.81800  0.81130  0.65800  1.0000 0.1335237524
H   H9        1.0  0.81130  0.65800  0.81800  1.0000 0.1335237524
H   H10       1.0  0.18200  0.34200  0.18870  1.0000 0.1335237524
H   H11       1.0  0.18870  0.18200  0.34200  1.0000 0.1335237524
H   H12       1.0  0.34200  0.18870  0.18200  1.0000 0.1335237524
H   H13       1.0  0.38070  0.89150  0.74810  1.0000 0.1335237524
H   H14       1.0  0.89150  0.74810  0.38070  1.0000 0.1335237524
H   H15       1.0  0.74810  0.38070  0.89150  1.0000 0.1335237524
H   H16       1.0  0.10850  0.61930  0.25190  1.0000 0.1335237524
H   H17       1.0  0.25190  0.10850  0.61930  1.0000 0.1335237524
H   H18       1.0  0.61930  0.25190  0.10850  1.0000 0.1335237524
H   H19       1.0  0.37770  0.89980  0.91860  1.0000 0.107943812
H   H20       1.0  0.89980  0.91860  0.37770  1.0000 0.107943812
H   H21       1.0  0.91860  0.37770  0.89980  1.0000 0.107943812
H   H22       1.0  0.10020  0.62230  0.08140  1.0000 0.107943812
H   H23       1.0  0.08140  0.10020  0.62230  1.0000 0.107943812
H   H24       1.0  0.62230  0.08140  0.10020  1.0000 0.107943812
H   H25       1.0  0.59280  0.84170  0.63740  1.0000 0.1182730421
H   H26       1.0  0.84170  0.63740  0.59280  1.0000 0.1182730421
H   H27       1.0  0.63740  0.59280  0.84170  1.0000 0.1182730421
H   H28       1.0  0.15830  0.40720  0.36260  1.0000 0.1182730421
H   H29       1.0  0.36260  0.15830  0.40720  1.0000 0.1182730421
H   H30       1.0  0.40720  0.36260  0.15830  1.0000 0.1182730421
H   H31       1.0  0.39050  0.86290  0.58960  1.0000 0.1182730421
H   H32       1.0  0.86290  0.58960  0.39050  1.0000 0.1182730421
H   H33       1.0  0.58960  0.39050  0.86290  1.0000 0.1182730421
H   H34       1.0  0.13710  0.60950  0.41040  1.0000 0.1182730421
H   H35       1.0  0.41040  0.13710  0.60950  1.0000 0.1182730421
H   H36       1.0  0.60950  0.41040  0.13710  1.0000 0.1182730421
H   H37       1.0  0.31560  0.86350  0.41070  1.0000 0.1335237524
H   H38       1.0  0.86350  0.41070  0.31560  1.0000 0.1351363919
H   H39       1.0  0.41070  0.31560  0.86350  1.0000 0.1351363919
H   H40       1.0  0.13650  0.68440  0.58930  1.0000 0.1335237524
H   H41       1.0  0.58930  0.13650  0.68440  1.0000 0.1351363919
H   H42       1.0  0.68440  0.58930  0.13650  1.0000 0.1335237524
H   H43       1.0  0.33420  0.87750  0.24850  1.0000 0.107943812
H   H44       1.0  0.87750  0.24850  0.33420  1.0000 0.107943812
H   H45       1.0  0.24850  0.33420  0.87750  1.0000 0.107943812
H   H46       1.0  0.12250  0.66580  0.75150  1.0000 0.107943812
H   H47       1.0  0.75150  0.12250  0.66580  1.0000 0.107943812
H   H48       1.0  0.66580  0.75150  0.12250  1.0000 0.107943812
H   H49       1.0  0.63210  0.88090  0.32850  1.0000 0.107943812
H   H50       1.0  0.88090  0.32850  0.63210  1.0000 0.107943812
H   H51       1.0  0.32850  0.63210  0.88090  1.0000 0.107943812
H   H52       1.0  0.11910  0.36790  0.67150  1.0000 0.107943812
H   H53       1.0  0.67150  0.11910  0.36790  1.0000 0.107943812
H   H54       1.0  0.36790  0.67150  0.11910  1.0000 0.107943812
H   H55       1.0  0.62070  0.86280  0.49210  1.0000 0.1182730421
H   H56       1.0  0.86280  0.49210  0.62070  1.0000 0.1182730421
H   H57       1.0  0.49210  0.62070  0.86280  1.0000 0.1182730421
H   H58       1.0  0.13720  0.37930  0.50790  1.0000 0.1182730421
H   H59       1.0  0.50790  0.13720  0.37930  1.0000 0.1182730421
H   H60       1.0  0.37930  0.50790  0.13720  1.0000 0.1182730421
C   C1        1.0  0.59211  0.84261  0.93220  1.0000 0.0794399907
C   C2        1.0  0.84261  0.93220  0.59211  1.0000 0.0794399907
C   C3        1.0  0.93220  0.59211  0.84261  1.0000 0.0794399907
C   C4        1.0  0.15739  0.40789  0.06780  1.0000 0.0794399907
C   C5        1.0  0.06780  0.15739  0.40789  1.0000 0.0794399907
C   C6        1.0  0.40789  0.06780  0.15739  1.0000 0.0794399907
C   C7        1.0  0.59912  0.83497  0.83125  1.0000 -0.207066596
C   C8        1.0  0.83497  0.83125  0.59912  1.0000 -0.207066596
C   C9        1.0  0.83125  0.59912  0.83497  1.0000 -0.207066596
C   C10       1.0  0.16503  0.40088  0.16875  1.0000 -0.207066596
C   C11       1.0  0.16875  0.16503  0.40088  1.0000 -0.207066596
C   C12       1.0  0.40088  0.16875  0.16503  1.0000 -0.207066596
C   C13       1.0  0.51969  0.85221  0.75820  1.0000 0.1630991659
C   C14       1.0  0.85221  0.75820  0.51969  1.0000 0.1630991659
C   C15       1.0  0.75820  0.51969  0.85221  1.0000 0.1630991659
C   C16       1.0  0.14779  0.48031  0.24180  1.0000 0.1630991659
C   C17       1.0  0.24180  0.14779  0.48031  1.0000 0.1630991659
C   C18       1.0  0.48031  0.24180  0.14779  1.0000 0.1630991659
C   C19       1.0  0.43630  0.87799  0.79409  1.0000 -0.2022425869
C   C20       1.0  0.87799  0.79409  0.43630  1.0000 -0.2022425869
C   C21       1.0  0.79409  0.43630  0.87799  1.0000 -0.2022425869
C   C22       1.0  0.12201  0.56370  0.20591  1.0000 -0.2022425869
C   C23       1.0  0.20591  0.12201  0.56370  1.0000 -0.2022425869
C   C24       1.0  0.56370  0.20591  0.12201  1.0000 -0.2022425869
C   C25       1.0  0.43558  0.88354  0.89639  1.0000 0.091675392
C   C26       1.0  0.88354  0.89639  0.43558  1.0000 0.091675392
C   C27       1.0  0.89639  0.43558  0.88354  1.0000 0.091675392
C   C28       1.0  0.11646  0.56442  0.10361  1.0000 0.091675392
C   C29       1.0  0.10361  0.11646  0.56442  1.0000 0.091675392
C   C30       1.0  0.56442  0.10361  0.11646  1.0000 0.091675392
C   C31       1.0  0.52927  0.85007  0.65236  1.0000 -0.1505991991
C   C32       1.0  0.85007  0.65236  0.52927  1.0000 -0.1505991991
C   C33       1.0  0.65236  0.52927  0.85007  1.0000 -0.1505991991
C   C34       1.0  0.14993  0.47073  0.34764  1.0000 -0.1505991991
C   C35       1.0  0.34764  0.14993  0.47073  1.0000 -0.1505991991
C   C36       1.0  0.47073  0.34764  0.14993  1.0000 -0.1505991991
C   C37       1.0  0.45559  0.85907  0.57580  1.0000 -0.1505991991
C   C38       1.0  0.85907  0.57580  0.45559  1.0000 -0.1505991991
C   C39       1.0  0.57580  0.45559  0.85907  1.0000 -0.1505991991
C   C40       1.0  0.14093  0.54441  0.42420  1.0000 -0.1505991991
C   C41       1.0  0.42420  0.14093  0.54441  1.0000 -0.1505991991
C   C42       1.0  0.54441  0.42420  0.14093  1.0000 -0.1505991991
C   C43       1.0  0.46704  0.86350  0.47163  1.0000 0.1630991659
C   C44       1.0  0.86350  0.47163  0.46704  1.0000 0.1630991659
C   C45       1.0  0.47163  0.46704  0.86350  1.0000 0.1630991659
C   C46       1.0  0.13650  0.53296  0.52837  1.0000 0.1630991659
C   C47       1.0  0.52837  0.13650  0.53296  1.0000 0.1630991659
C   C48       1.0  0.53296  0.52837  0.13650  1.0000 0.1630991659
C   C49       1.0  0.38148  0.86698  0.39576  1.0000 -0.207066596
C   C50       1.0  0.86698  0.39576  0.38148  1.0000 -0.207066596
C   C51       1.0  0.39576  0.38148  0.86698  1.0000 -0.207066596
C   C52       1.0  0.13302  0.61852  0.60424  1.0000 -0.207066596
C   C53       1.0  0.60424  0.13302  0.61852  1.0000 -0.207066596
C   C54       1.0  0.61852  0.60424  0.13302  1.0000 -0.207066596
C   C55       1.0  0.39334  0.87550  0.29918  1.0000 0.0794399907
C   C56       1.0  0.87550  0.29918  0.39334  1.0000 0.0794399907
C   C57       1.0  0.29918  0.39334  0.87550  1.0000 0.0794399907
C   C58       1.0  0.12450  0.60666  0.70082  1.0000 0.0794399907
C   C59       1.0  0.70082  0.12450  0.60666  1.0000 0.0794399907
C   C60       1.0  0.60666  0.70082  0.12450  1.0000 0.0794399907
C   C61       1.0  0.56716  0.87696  0.34563  1.0000 0.091675392
C   C62       1.0  0.87696  0.34563  0.56716  1.0000 0.091675392
C   C63       1.0  0.34563  0.56716  0.87696  1.0000 0.091675392
C   C64       1.0  0.12304  0.43284  0.65437  1.0000 0.091675392
C   C65       1.0  0.65437  0.12304  0.43284  1.0000 0.091675392
C   C66       1.0  0.43284  0.65437  0.12304  1.0000 0.091675392
C   C67       1.0  0.56110  0.86708  0.44374  1.0000 -0.1939248282
C   C68       1.0  0.86708  0.44374  0.56110  1.0000 -0.1939248282
C   C69       1.0  0.44374  0.56110  0.86708  1.0000 -0.1939248282
C   C70       1.0  0.13292  0.43890  0.55626  1.0000 -0.1939248282
C   C71       1.0  0.55626  0.13292  0.43890  1.0000 -0.1939248282
C   C72       1.0  0.43890  0.55626  0.13292  1.0000 -0.1939248282
N   N1        1.0  0.48419  0.88113  0.27302  1.0000 -0.2162544691
N   N2        1.0  0.88113  0.27302  0.48419  1.0000 -0.2162544691
N   N3        1.0  0.27302  0.48419  0.88113  1.0000 -0.2162544691
N   N4        1.0  0.11887  0.51581  0.72698  1.0000 -0.2162544691
N   N5        1.0  0.72698  0.11887  0.51581  1.0000 -0.2162544691
N   N6        1.0  0.51581  0.72698  0.11887  1.0000 -0.2162544691
N   N7        1.0  0.51191  0.86724  0.96641  1.0000 -0.207066596
N   N8        1.0  0.86724  0.96641  0.51191  1.0000 -0.207066596
N   N9        1.0  0.96641  0.51191  0.86724  1.0000 -0.207066596
N   N10       1.0  0.13276  0.48809  0.03359  1.0000 -0.207066596
N   N11       1.0  0.03359  0.13276  0.48809  1.0000 -0.207066596
N   N12       1.0  0.48809  0.03359  0.13276  1.0000 -0.207066596
O   O1        1.0  0.18519  0.86333  0.90828  1.0000 -0.8004742601
O   O2        1.0  0.86333  0.90828  0.18519  1.0000 -0.8004742601
O   O3        1.0  0.90828  0.18519  0.86333  1.0000 -0.8004742601
O   O4        1.0  0.13667  0.81481  0.09172  1.0000 -0.8004742601
O   O5        1.0  0.09172  0.13667  0.81481  1.0000 -0.8004742601
O   O6        1.0  0.81481  0.09172  0.13667  1.0000 -0.8004742601
O   O7        1.0  0.34235  0.82800  0.06593  1.0000 -0.8668085574
O   O8        1.0  0.82800  0.06593  0.34235  1.0000 -0.8668085574
O   O9        1.0  0.06593  0.34235  0.82800  1.0000 -0.8668085574
O   O10       1.0  0.17200  0.65765  0.93407  1.0000 -0.8668085574
O   O11       1.0  0.93407  0.17200  0.65765  1.0000 -0.8668085574
O   O12       1.0  0.65765  0.93407  0.17200  1.0000 -0.8668085574
