# DDEC6 charges by PACMAN v1.1 (https://github.com/mtap-research/PACMAN-charge/)
data_2012[Co][lon]3[FSR]1
_chemical_formula_sum              "Co4 H36 C48 N4 O26"
_cell_length_a       10.152
_cell_length_b       17.953
_cell_length_c       18.062
_cell_angle_alpha    90
_cell_angle_beta     94.62
_cell_angle_gamma    90

_symmetry_space_group_name_H-M    "P 1"
_symmetry_Int_Tables_number       1

loop_
  _symmetry_equiv_pos_as_xyz
  'x, y, z'

loop_
  _atom_site_type_symbol
  _atom_site_label
  _atom_site_symmetry_multiplicity
  _atom_site_fract_x
  _atom_site_fract_y
  _atom_site_fract_z
  _atom_site_occupancy
  _atom_site_charge
Co  Co1       1.0  0.50930  0.69537  0.62858  1.0000 0.974161414
Co  Co2       1.0  0.49070  0.19537  0.37142  1.0000 0.974161414
Co  Co3       1.0  0.27432  0.75069  0.48809  1.0000 1.0715735233
Co  Co4       1.0  0.72568  0.25069  0.51191  1.0000 1.0715735233
H   H1        1.0  0.62050  0.05280  0.77510  1.0000 0.277029959
H   H2        1.0  0.37950  0.55280  0.22490  1.0000 0.277029959
H   H3        1.0  0.86460  0.10990  0.10100  1.0000 0.2719268626
H   H4        1.0  0.13540  0.60990  0.89900  1.0000 0.2719268626
H   H5        1.0  0.02290  0.12140  0.80280  1.0000 0.1280255278
H   H6        1.0  0.97710  0.62140  0.19720  1.0000 0.1280255278
H   H7        1.0  0.11410  0.14290  0.92280  1.0000 0.1280255278
H   H8        1.0  0.88590  0.64290  0.07720  1.0000 0.1280255278
H   H9        1.0  0.76630  0.09260  0.00210  1.0000 0.1130583598
H   H10       1.0  0.23370  0.59260  0.99790  1.0000 0.1130583598
H   H11       1.0  0.67510  0.07120  0.88210  1.0000 0.1130583598
H   H12       1.0  0.32490  0.57120  0.11790  1.0000 0.1130583598
H   H13       1.0  0.58950  0.91850  0.69740  1.0000 0.1411202467
H   H14       1.0  0.41050  0.41850  0.30260  1.0000 0.1411202467
H   H15       1.0  0.45840  0.96550  0.48730  1.0000 0.1280255278
H   H16       1.0  0.54160  0.46550  0.51270  1.0000 0.1280255278
H   H17       1.0  0.62650  0.12760  0.62230  1.0000 0.104862181
H   H18       1.0  0.37350  0.62760  0.37770  1.0000 0.104862181
H   H19       1.0  0.16540  0.16010  0.18330  1.0000 0.1411202467
H   H20       1.0  0.83460  0.66010  0.81670  1.0000 0.1411202467
H   H21       1.0  0.03500  0.20460  0.38190  1.0000 0.1280255278
H   H22       1.0  0.96500  0.70460  0.61810  1.0000 0.1280255278
H   H23       1.0  0.77440  0.16360  0.20630  1.0000 0.1411202467
H   H24       1.0  0.22560  0.66360  0.79370  1.0000 0.1280255278
H   H25       1.0  0.15320  0.86890  0.48600  1.0000 0.3463037885
H   H26       1.0  0.84680  0.36890  0.51400  1.0000 0.3463037885
H   H27       1.0  0.10390  0.83060  0.42560  1.0000 0.3091648943
H   H28       1.0  0.89610  0.33060  0.57440  1.0000 0.3091648943
H   H29       1.0  0.07010  0.66370  0.45760  1.0000 0.4133517868
H   H30       1.0  0.92990  0.16370  0.54240  1.0000 0.4133517868
H   H31       1.0  0.16210  0.64730  0.40250  1.0000 0.3786775148
H   H32       1.0  0.83790  0.14730  0.59750  1.0000 0.3786775148
H   H33       1.0  0.34620  0.73330  0.35290  1.0000 0.3875165558
H   H34       1.0  0.65380  0.23330  0.64710  1.0000 0.3875165558
H   H35       1.0  0.28200  0.80540  0.35390  1.0000 0.3875165558
H   H36       1.0  0.71800  0.30540  0.64610  1.0000 0.3875165558
C   C1        1.0  0.83999  0.09417  0.83054  1.0000 -0.0381300044
C   C2        1.0  0.16001  0.59417  0.16946  1.0000 -0.0381300044
C   C3        1.0  0.97149  0.11565  0.84275  1.0000 -0.0939426594
C   C4        1.0  0.02851  0.61565  0.15725  1.0000 -0.0939426594
C   C5        1.0  0.02611  0.12850  0.91467  1.0000 -0.1002153517
C   C6        1.0  0.97389  0.62850  0.08533  1.0000 -0.1002153517
C   C7        1.0  0.94923  0.11986  0.97439  1.0000 -0.0381300044
C   C8        1.0  0.05077  0.61986  0.02561  1.0000 -0.0381300044
C   C9        1.0  0.81773  0.09838  0.96218  1.0000 -0.1379531745
C   C10       1.0  0.18227  0.59838  0.03782  1.0000 -0.1379531745
C   C11       1.0  0.76311  0.08553  0.89026  1.0000 -0.1379531745
C   C12       1.0  0.23689  0.58553  0.10974  1.0000 -0.1344498866
C   C13       1.0  0.78660  0.08465  0.75237  1.0000 0.4584218166
C   C14       1.0  0.21340  0.58465  0.24763  1.0000 0.4584218166
C   C15       1.0  0.00899  0.14279  0.04803  1.0000 0.4584218166
C   C16       1.0  0.99101  0.64279  0.95197  1.0000 0.4584218166
C   C17       1.0  0.61600  0.02569  0.66965  1.0000 0.2047984279
C   C18       1.0  0.38400  0.52569  0.33035  1.0000 0.2047984279
C   C19       1.0  0.57570  0.95293  0.65909  1.0000 -0.1957709813
C   C20       1.0  0.42430  0.45293  0.34091  1.0000 -0.1957709813
C   C21       1.0  0.51250  0.93065  0.58912  1.0000 -0.0121598733
C   C22       1.0  0.48750  0.43065  0.41088  1.0000 -0.0121598733
C   C23       1.0  0.49910  0.98040  0.53288  1.0000 -0.105967971
C   C24       1.0  0.50090  0.48040  0.46712  1.0000 -0.105967971
C   C25       1.0  0.54570  0.05503  0.54157  1.0000 -0.0121598733
C   C26       1.0  0.45430  0.55503  0.45843  1.0000 -0.0121598733
C   C27       1.0  0.60120  0.07840  0.61359  1.0000 -0.2189727151
C   C28       1.0  0.39880  0.57840  0.38641  1.0000 -0.2189727151
C   C29       1.0  0.46490  0.85160  0.58063  1.0000 0.6023508585
C   C30       1.0  0.53510  0.35160  0.41937  1.0000 0.6023508585
C   C31       1.0  0.53110  0.10798  0.48021  1.0000 0.5707028783
C   C32       1.0  0.46890  0.60798  0.51979  1.0000 0.5707028783
C   C33       1.0  0.96780  0.16142  0.18176  1.0000 0.2139457441
C   C34       1.0  0.03220  0.66142  0.81824  1.0000 0.2139457441
C   C35       1.0  0.09470  0.16782  0.21215  1.0000 -0.1694196859
C   C36       1.0  0.90530  0.66782  0.78785  1.0000 -0.1694196859
C   C37       1.0  0.11680  0.18617  0.28708  1.0000 0.0149957514
C   C38       1.0  0.88320  0.68617  0.71292  1.0000 0.0149957514
C   C39       1.0  0.01680  0.19448  0.33164  1.0000 -0.1180915409
C   C40       1.0  0.98320  0.69448  0.66836  1.0000 -0.1180915409
C   C41       1.0  0.88430  0.18773  0.30116  1.0000 -0.0024816272
C   C42       1.0  0.11570  0.68773  0.69884  1.0000 -0.0024816272
C   C43       1.0  0.86070  0.16994  0.22678  1.0000 -0.1957709813
C   C44       1.0  0.13930  0.66994  0.77322  1.0000 -0.1957709813
C   C45       1.0  0.25940  0.19060  0.32087  1.0000 0.540791837
C   C46       1.0  0.74060  0.69060  0.67913  1.0000 0.540791837
C   C47       1.0  0.77200  0.19870  0.34966  1.0000 0.5930167413
C   C48       1.0  0.22800  0.69870  0.65034  1.0000 0.5930167413
N   N1        1.0  0.67910  0.04410  0.74120  1.0000 -0.3406118625
N   N2        1.0  0.32090  0.54410  0.25880  1.0000 -0.3406118625
N   N3        1.0  0.93120  0.14310  0.10630  1.0000 -0.360749858
N   N4        1.0  0.06880  0.64310  0.89370  1.0000 -0.360749858
O   O1        1.0  0.85190  0.11010  0.70230  1.0000 -0.5196055645
O   O2        1.0  0.14810  0.61010  0.29770  1.0000 -0.5196055645
O   O3        1.0  0.12290  0.17040  0.05900  1.0000 -0.4812561148
O   O4        1.0  0.87710  0.67040  0.94100  1.0000 -0.4812561148
O   O5        1.0  0.50130  0.80780  0.63110  1.0000 -0.5196055645
O   O6        1.0  0.49870  0.30780  0.36890  1.0000 -0.5196055645
O   O7        1.0  0.40040  0.83580  0.52140  1.0000 -0.5938779736
O   O8        1.0  0.59960  0.33580  0.47860  1.0000 -0.5938779736
O   O9        1.0  0.48450  0.08610  0.41800  1.0000 -0.4951686584
O   O10       1.0  0.51550  0.58610  0.58200  1.0000 -0.4951686584
O   O11       1.0  0.56380  0.17580  0.49040  1.0000 -0.6238731169
O   O12       1.0  0.43620  0.67580  0.50960  1.0000 -0.6238731169
O   O13       1.0  0.35300  0.17960  0.28030  1.0000 -0.5275768661
O   O14       1.0  0.64700  0.67960  0.71970  1.0000 -0.5275768661
O   O15       1.0  0.27760  0.20470  0.38850  1.0000 -0.5391022884
O   O16       1.0  0.72240  0.70470  0.61150  1.0000 -0.5391022884
O   O17       1.0  0.79940  0.22610  0.41170  1.0000 -0.5787380659
O   O18       1.0  0.20060  0.72610  0.58830  1.0000 -0.5787380659
O   O19       1.0  0.65910  0.17870  0.32300  1.0000 -0.54507223
O   O20       1.0  0.34090  0.67870  0.67700  1.0000 -0.54507223
O   O21       1.0  0.11720  0.82780  0.47262  1.0000 -0.6238731169
O   O22       1.0  0.88280  0.32780  0.52738  1.0000 -0.6238731169
O   O23       1.0  0.14830  0.66652  0.44419  1.0000 -0.7142895781
O   O24       1.0  0.85170  0.16652  0.55581  1.0000 -0.7153727734
O   O25       1.0  0.31800  0.76916  0.37804  1.0000 -0.6957676136
O   O26       1.0  0.68200  0.26916  0.62196  1.0000 -0.6947377645
