# DDEC6 charges by PACMAN v1.1 (https://github.com/mtap-research/PACMAN-charge/)
data_2012[Cd][hex]3[FSR]1
_chemical_formula_sum              "Cd6 H84 C100 N18 O12 F2"
_cell_length_a       12.6902
_cell_length_b       12.6902
_cell_length_c       23.179
_cell_angle_alpha    78.0864
_cell_angle_beta     101.914
_cell_angle_gamma    120.434

_symmetry_space_group_name_H-M    "P 1"
_symmetry_Int_Tables_number       1

loop_
  _symmetry_equiv_pos_as_xyz
  'x, y, z'

loop_
  _atom_site_type_symbol
  _atom_site_label
  _atom_site_symmetry_multiplicity
  _atom_site_fract_x
  _atom_site_fract_y
  _atom_site_fract_z
  _atom_site_occupancy
  _atom_site_charge
Cd  Cd1       1.0  0.09919  0.09919  0.75000  1.0000 0.8261867455
Cd  Cd2       1.0  0.90081  0.90081  0.25000  1.0000 0.8261867455
Cd  Cd3       1.0  0.73472  0.92977  0.72940  1.0000 0.824374347
Cd  Cd4       1.0  0.92978  0.73473  0.77060  1.0000 0.824374347
Cd  Cd5       1.0  0.26527  0.07022  0.27060  1.0000 0.824374347
Cd  Cd6       1.0  0.07023  0.26527  0.22940  1.0000 0.824374347
H   H1        1.0  0.09250  0.41710  0.79220  1.0000 0.1294656785
H   H2        1.0  0.41710  0.09250  0.70780  1.0000 0.1294656785
H   H3        1.0  0.90750  0.58290  0.20780  1.0000 0.1294656785
H   H4        1.0  0.58290  0.90750  0.29220  1.0000 0.1294656785
H   H5        1.0  0.74830  0.29070  0.71070  1.0000 0.1294656785
H   H6        1.0  0.29070  0.74830  0.78930  1.0000 0.1294656785
H   H7        1.0  0.25170  0.70930  0.28930  1.0000 0.1294656785
H   H8        1.0  0.70930  0.25170  0.21070  1.0000 0.1294656785
H   H9        1.0  0.08750  0.58850  0.80630  1.0000 0.098295621
H   H10       1.0  0.58850  0.08750  0.69370  1.0000 0.098295621
H   H11       1.0  0.91250  0.41150  0.19370  1.0000 0.098295621
H   H12       1.0  0.41150  0.91250  0.30630  1.0000 0.098295621
H   H13       1.0  0.75550  0.46730  0.72480  1.0000 0.098295621
H   H14       1.0  0.46730  0.75550  0.77520  1.0000 0.098295621
H   H15       1.0  0.24450  0.53270  0.27520  1.0000 0.098295621
H   H16       1.0  0.53270  0.24450  0.22480  1.0000 0.098295621
H   H17       1.0  0.39930  0.57850  0.70470  1.0000 0.1294656785
H   H18       1.0  0.57850  0.39930  0.79530  1.0000 0.1294656785
H   H19       1.0  0.60070  0.42150  0.29530  1.0000 0.1294656785
H   H20       1.0  0.42150  0.60070  0.20470  1.0000 0.1294656785
H   H21       1.0  0.22020  0.39480  0.70680  1.0000 0.098295621
H   H22       1.0  0.39480  0.22020  0.79320  1.0000 0.098295621
H   H23       1.0  0.77980  0.60520  0.29320  1.0000 0.098295621
H   H24       1.0  0.60520  0.77980  0.20680  1.0000 0.098295621
H   H25       1.0  0.04440  0.27060  0.63300  1.0000 0.094305199
H   H26       1.0  0.27060  0.04440  0.86700  1.0000 0.094305199
H   H27       1.0  0.95560  0.72940  0.36700  1.0000 0.094305199
H   H28       1.0  0.72940  0.95560  0.13300  1.0000 0.094305199
H   H29       1.0  0.13260  0.01780  0.63570  1.0000 0.094305199
H   H30       1.0  0.01780  0.13260  0.86430  1.0000 0.094305199
H   H31       1.0  0.86740  0.98220  0.36430  1.0000 0.094305199
H   H32       1.0  0.98220  0.86740  0.13570  1.0000 0.094305199
H   H33       1.0  0.04600  0.31780  0.53280  1.0000 0.1226486605
H   H34       1.0  0.31780  0.04600  0.96720  1.0000 0.1226486605
H   H35       1.0  0.95400  0.68220  0.46720  1.0000 0.1226486605
H   H36       1.0  0.68220  0.95400  0.03280  1.0000 0.1226486605
H   H37       1.0  0.13920  0.05900  0.53580  1.0000 0.1226486605
H   H38       1.0  0.05900  0.13920  0.96420  1.0000 0.1226486605
H   H39       1.0  0.86080  0.94100  0.46420  1.0000 0.1226486605
H   H40       1.0  0.94100  0.86080  0.03580  1.0000 0.1226486605
H   H41       1.0  0.95340  0.26020  0.43610  1.0000 0.1294656785
H   H42       1.0  0.26020  0.95340  0.06390  1.0000 0.1294656785
H   H43       1.0  0.04660  0.73980  0.56390  1.0000 0.1294656785
H   H44       1.0  0.73980  0.04660  0.93610  1.0000 0.1294656785
H   H45       1.0  0.23180  0.18880  0.45170  1.0000 0.1226486605
H   H46       1.0  0.18880  0.23180  0.04830  1.0000 0.1226486605
H   H47       1.0  0.76820  0.81120  0.54830  1.0000 0.1226486605
H   H48       1.0  0.81120  0.76820  0.95170  1.0000 0.1226486605
H   H49       1.0  0.94800  0.28300  0.33540  1.0000 0.098295621
H   H50       1.0  0.28300  0.94800  0.16460  1.0000 0.098295621
H   H51       1.0  0.05200  0.71700  0.66460  1.0000 0.098295621
H   H52       1.0  0.71700  0.05200  0.83540  1.0000 0.098295621
H   H53       1.0  0.22050  0.21750  0.35080  1.0000 0.098295621
H   H54       1.0  0.21750  0.22050  0.14920  1.0000 0.094305199
H   H55       1.0  0.77950  0.78250  0.64920  1.0000 0.094305199
H   H56       1.0  0.78250  0.77950  0.85080  1.0000 0.094305199
H   H57       1.0  0.80690  0.11770  0.60860  1.0000 0.094305199
H   H58       1.0  0.11770  0.80690  0.89140  1.0000 0.094305199
H   H59       1.0  0.19310  0.88230  0.39140  1.0000 0.094305199
H   H60       1.0  0.88230  0.19310  0.10860  1.0000 0.094305199
H   H61       1.0  0.54730  0.77710  0.62340  1.0000 0.098295621
H   H62       1.0  0.77710  0.54730  0.87660  1.0000 0.098295621
H   H63       1.0  0.45270  0.22290  0.37660  1.0000 0.098295621
H   H64       1.0  0.22290  0.45270  0.12340  1.0000 0.098295621
H   H65       1.0  0.76170  0.13510  0.50790  1.0000 0.1294656785
H   H66       1.0  0.13510  0.76170  0.99210  1.0000 0.1294656785
H   H67       1.0  0.23830  0.86490  0.49210  1.0000 0.1294656785
H   H68       1.0  0.86490  0.23830  0.00790  1.0000 0.1294656785
H   H69       1.0  0.49300  0.78760  0.52290  1.0000 0.1294656785
H   H70       1.0  0.78760  0.49300  0.97710  1.0000 0.1294656785
H   H71       1.0  0.50700  0.21240  0.47710  1.0000 0.1294656785
H   H72       1.0  0.21240  0.50700  0.02290  1.0000 0.1294656785
H   H73       1.0  0.50830  0.91170  0.42590  1.0000 0.1294656785
H   H74       1.0  0.91170  0.50830  0.07410  1.0000 0.1294656785
H   H75       1.0  0.49170  0.08830  0.57410  1.0000 0.1294656785
H   H76       1.0  0.08830  0.49170  0.92590  1.0000 0.1294656785
H   H77       1.0  0.60300  0.05300  0.42100  1.0000 0.1294656785
H   H78       1.0  0.05300  0.60300  0.07900  1.0000 0.1294656785
H   H79       1.0  0.39700  0.94700  0.57900  1.0000 0.1294656785
H   H80       1.0  0.94700  0.39700  0.92100  1.0000 0.1294656785
H   H81       1.0  0.64570  0.95770  0.41880  1.0000 0.1294656785
H   H82       1.0  0.95770  0.64570  0.08120  1.0000 0.1294656785
H   H83       1.0  0.35430  0.04230  0.58120  1.0000 0.1294656785
H   H84       1.0  0.04230  0.35430  0.91880  1.0000 0.1294656785
C   C1        1.0  0.91896  0.21884  0.74091  1.0000 0.5368252686
C   C2        1.0  0.21884  0.91896  0.75909  1.0000 0.5368252686
C   C3        1.0  0.08104  0.78116  0.25909  1.0000 0.5368252686
C   C4        1.0  0.78116  0.08104  0.24091  1.0000 0.5368252686
C   C5        1.0  0.92041  0.33399  0.74995  1.0000 0.0107341661
C   C6        1.0  0.33399  0.92041  0.75005  1.0000 0.0107341661
C   C7        1.0  0.07959  0.66601  0.25005  1.0000 0.0107341661
C   C8        1.0  0.66601  0.07959  0.24995  1.0000 0.0107341661
C   C9        1.0  0.62940  0.62940  0.75000  1.0000 0.5453743628
C   C10       1.0  0.37060  0.37060  0.25000  1.0000 0.5453743628
C   C11       1.0  0.02231  0.42489  0.77845  1.0000 -0.1787376909
C   C12       1.0  0.42489  0.02231  0.72155  1.0000 -0.1787376909
C   C13       1.0  0.97769  0.57511  0.22155  1.0000 -0.1787376909
C   C14       1.0  0.57511  0.97769  0.27845  1.0000 -0.1787376909
C   C15       1.0  0.81889  0.35051  0.72991  1.0000 -0.1787376909
C   C16       1.0  0.35051  0.81889  0.77009  1.0000 -0.1787376909
C   C17       1.0  0.18111  0.64949  0.27009  1.0000 -0.1787376909
C   C18       1.0  0.64949  0.18111  0.22991  1.0000 -0.1787376909
C   C19       1.0  0.50990  0.50990  0.75000  1.0000 0.0160517349
C   C20       1.0  0.49010  0.49010  0.25000  1.0000 0.0160517349
C   C21       1.0  0.01873  0.52807  0.78629  1.0000 0.0603460456
C   C22       1.0  0.52807  0.01873  0.71371  1.0000 0.0603460456
C   C23       1.0  0.98127  0.47193  0.21371  1.0000 0.0603460456
C   C24       1.0  0.47193  0.98127  0.28629  1.0000 0.0603460456
C   C25       1.0  0.82404  0.45656  0.73886  1.0000 0.0485140441
C   C26       1.0  0.45656  0.82404  0.76114  1.0000 0.0485140441
C   C27       1.0  0.17596  0.54344  0.26114  1.0000 0.0485140441
C   C28       1.0  0.54344  0.17596  0.23886  1.0000 0.0485140441
C   C29       1.0  0.40047  0.50673  0.72327  1.0000 -0.1787376909
C   C30       1.0  0.50673  0.40047  0.77673  1.0000 -0.1787376909
C   C31       1.0  0.59953  0.49327  0.27673  1.0000 -0.1787376909
C   C32       1.0  0.49327  0.59953  0.22327  1.0000 -0.1787376909
C   C33       1.0  0.29347  0.39573  0.72458  1.0000 0.0603460456
C   C34       1.0  0.39573  0.29347  0.77542  1.0000 0.0603460456
C   C35       1.0  0.70653  0.60427  0.27542  1.0000 0.0603460456
C   C36       1.0  0.60427  0.70653  0.22458  1.0000 0.0603460456
C   C37       1.0  0.06275  0.22665  0.61299  1.0000 0.0447731233
C   C38       1.0  0.22665  0.06275  0.88701  1.0000 0.0447731233
C   C39       1.0  0.93725  0.77335  0.38701  1.0000 0.0485140441
C   C40       1.0  0.77335  0.93725  0.11299  1.0000 0.0447731233
C   C41       1.0  0.11469  0.07891  0.61473  1.0000 0.0603460456
C   C42       1.0  0.07891  0.11469  0.88527  1.0000 0.0603460456
C   C43       1.0  0.88531  0.92109  0.38527  1.0000 0.0603460456
C   C44       1.0  0.92109  0.88531  0.11473  1.0000 0.0603460456
C   C45       1.0  0.06392  0.25608  0.55262  1.0000 -0.2103728895
C   C46       1.0  0.25608  0.06392  0.94738  1.0000 -0.202203013
C   C47       1.0  0.93608  0.74392  0.44738  1.0000 -0.2103728895
C   C48       1.0  0.74392  0.93608  0.05262  1.0000 -0.2103728895
C   C49       1.0  0.11863  0.10297  0.55454  1.0000 -0.202203013
C   C50       1.0  0.10297  0.11863  0.94546  1.0000 -0.202203013
C   C51       1.0  0.88137  0.89703  0.44546  1.0000 -0.202203013
C   C52       1.0  0.89703  0.88137  0.05454  1.0000 -0.202203013
C   C53       1.0  0.09212  0.19308  0.52159  1.0000 0.098295621
C   C54       1.0  0.19308  0.09212  0.97841  1.0000 0.098295621
C   C55       1.0  0.90788  0.80692  0.47841  1.0000 0.098295621
C   C56       1.0  0.80692  0.90788  0.02159  1.0000 0.098295621
C   C57       1.0  0.09182  0.21758  0.45655  1.0000 0.098295621
C   C58       1.0  0.21758  0.09182  0.04345  1.0000 0.098295621
C   C59       1.0  0.90818  0.78242  0.54345  1.0000 0.098295621
C   C60       1.0  0.78242  0.90818  0.95655  1.0000 0.098295621
C   C61       1.0  0.00754  0.24886  0.41980  1.0000 -0.2103728895
C   C62       1.0  0.24886  0.00754  0.08020  1.0000 -0.2103728895
C   C63       1.0  0.99246  0.75114  0.58020  1.0000 -0.2103728895
C   C64       1.0  0.75114  0.99246  0.91980  1.0000 -0.2103728895
C   C65       1.0  0.17231  0.20729  0.42899  1.0000 -0.202203013
C   C66       1.0  0.20729  0.17231  0.07101  1.0000 -0.202203013
C   C67       1.0  0.82769  0.79271  0.57101  1.0000 -0.202203013
C   C68       1.0  0.79271  0.82769  0.92899  1.0000 -0.202203013
C   C69       1.0  0.00544  0.26296  0.35929  1.0000 0.0603460456
C   C70       1.0  0.26296  0.00544  0.14071  1.0000 0.0603460456
C   C71       1.0  0.99456  0.73704  0.64071  1.0000 0.0603460456
C   C72       1.0  0.73704  0.99456  0.85929  1.0000 0.0603460456
C   C73       1.0  0.16465  0.22415  0.36828  1.0000 0.0683349977
C   C74       1.0  0.22415  0.16465  0.13172  1.0000 0.0683349977
C   C75       1.0  0.83535  0.77585  0.63172  1.0000 0.0683349977
C   C76       1.0  0.77585  0.83535  0.86828  1.0000 0.0683349977
C   C77       1.0  0.74430  0.04910  0.59113  1.0000 0.0603460456
C   C78       1.0  0.04910  0.74430  0.90887  1.0000 0.0603460456
C   C79       1.0  0.25570  0.95090  0.40887  1.0000 0.0603460456
C   C80       1.0  0.95090  0.25570  0.09113  1.0000 0.0603460456
C   C81       1.0  0.59203  0.84997  0.59978  1.0000 0.0485140441
C   C82       1.0  0.84997  0.59203  0.90022  1.0000 0.0485140441
C   C83       1.0  0.40797  0.15003  0.40022  1.0000 0.0485140441
C   C84       1.0  0.15003  0.40797  0.09978  1.0000 0.0485140441
C   C85       1.0  0.71670  0.06050  0.53032  1.0000 -0.240052455
C   C86       1.0  0.06050  0.71670  0.96968  1.0000 -0.240052455
C   C87       1.0  0.28330  0.93950  0.46968  1.0000 -0.240052455
C   C88       1.0  0.93950  0.28330  0.03032  1.0000 -0.240052455
C   C89       1.0  0.55893  0.85587  0.53921  1.0000 -0.2292906695
C   C90       1.0  0.85587  0.55893  0.96079  1.0000 -0.2292906695
C   C91       1.0  0.44107  0.14413  0.46079  1.0000 -0.2292906695
C   C92       1.0  0.14413  0.44107  0.03921  1.0000 -0.2292906695
C   C93       1.0  0.62322  0.96278  0.50249  1.0000 0.1891351185
C   C94       1.0  0.96278  0.62322  0.99751  1.0000 0.1891351185
C   C95       1.0  0.37678  0.03722  0.49751  1.0000 0.1891351185
C   C96       1.0  0.03722  0.37678  0.00249  1.0000 0.1891351185
C   C97       1.0  0.59230  0.97210  0.43604  1.0000 -0.4739327439
C   C98       1.0  0.97210  0.59230  0.06396  1.0000 -0.4739327439
C   C99       1.0  0.40770  0.02790  0.56396  1.0000 -0.4739327439
C   C100      1.0  0.02790  0.40770  0.93604  1.0000 -0.4739327439
N   N1        1.0  0.28900  0.28900  0.75000  1.0000 -0.2292906695
N   N2        1.0  0.71100  0.71100  0.25000  1.0000 -0.2292906695
N   N3        1.0  0.92216  0.54510  0.76670  1.0000 -0.2292906695
N   N4        1.0  0.54510  0.92216  0.73330  1.0000 -0.2292906695
N   N5        1.0  0.07784  0.45490  0.23330  1.0000 -0.2292906695
N   N6        1.0  0.45490  0.07784  0.26670  1.0000 -0.2292906695
N   N7        1.0  0.08651  0.13857  0.64486  1.0000 -0.240052455
N   N8        1.0  0.13857  0.08651  0.85514  1.0000 -0.240052455
N   N9        1.0  0.91349  0.86143  0.35514  1.0000 -0.240052455
N   N10       1.0  0.86143  0.91349  0.14486  1.0000 -0.240052455
N   N11       1.0  0.08089  0.24971  0.33284  1.0000 -0.2498949104
N   N12       1.0  0.24971  0.08089  0.16716  1.0000 -0.2498949104
N   N13       1.0  0.91911  0.75029  0.66716  1.0000 -0.2498949104
N   N14       1.0  0.75029  0.91911  0.83284  1.0000 -0.2498949104
N   N15       1.0  0.68600  0.94492  0.62614  1.0000 -0.2635027179
N   N16       1.0  0.94492  0.68600  0.87386  1.0000 -0.2635027179
N   N17       1.0  0.31400  0.05508  0.37386  1.0000 -0.2635027179
N   N18       1.0  0.05508  0.31400  0.12614  1.0000 -0.2635027179
O   O1        1.0  0.01804  0.21692  0.75591  1.0000 -0.5610906143
O   O2        1.0  0.21692  0.01804  0.74409  1.0000 -0.5610906143
O   O3        1.0  0.98196  0.78308  0.24409  1.0000 -0.5610906143
O   O4        1.0  0.78308  0.98196  0.25591  1.0000 -0.5610906143
O   O5        1.0  0.82083  0.13601  0.71931  1.0000 -0.5610906143
O   O6        1.0  0.13601  0.82083  0.78069  1.0000 -0.5610906143
O   O7        1.0  0.17917  0.86399  0.28069  1.0000 -0.5610906143
O   O8        1.0  0.86399  0.17917  0.21931  1.0000 -0.5610906143
O   O9        1.0  0.62310  0.72476  0.72875  1.0000 -0.5610906143
O   O10       1.0  0.72476  0.62310  0.77125  1.0000 -0.5610906143
O   O11       1.0  0.37690  0.27524  0.27125  1.0000 -0.5610906143
O   O12       1.0  0.27524  0.37690  0.22875  1.0000 -0.5610906143
F   F1        1.0  0.91756  0.91756  0.75000  1.0000 -0.5676912376
F   F2        1.0  0.08244  0.08244  0.25000  1.0000 -0.5676912376
