# DDEC6 charges by PACMAN v1.1 (https://github.com/mtap-research/PACMAN-charge/)
data_2012[Co][nan]3[FSR]5
_chemical_formula_sum              "Co12 H52 C44 S4 N20 O40"
_cell_length_a       15.5052
_cell_length_b       15.5052
_cell_length_c       20.629
_cell_angle_alpha    58.9214
_cell_angle_beta     121.079
_cell_angle_gamma    150.034

_symmetry_space_group_name_H-M    "P 1"
_symmetry_Int_Tables_number       1

loop_
  _symmetry_equiv_pos_as_xyz
  'x, y, z'

loop_
  _atom_site_type_symbol
  _atom_site_label
  _atom_site_symmetry_multiplicity
  _atom_site_fract_x
  _atom_site_fract_y
  _atom_site_fract_z
  _atom_site_occupancy
  _atom_site_charge
Co  Co1       1.0  0.85478  0.08394  0.89760  1.0000 0.9588930318
Co  Co2       1.0  0.08394  0.85478  0.60240  1.0000 0.9588930318
Co  Co3       1.0  0.14522  0.91606  0.10240  1.0000 0.9588930318
Co  Co4       1.0  0.91606  0.14522  0.39760  1.0000 0.9588930318
Co  Co5       1.0  0.17797  0.20637  0.99354  1.0000 0.9588930318
Co  Co6       1.0  0.20637  0.17797  0.50646  1.0000 0.9547936032
Co  Co7       1.0  0.82203  0.79363  0.00646  1.0000 0.9547936032
Co  Co8       1.0  0.79363  0.82203  0.49354  1.0000 0.9588930318
Co  Co9       1.0  0.11726  0.38158  0.98683  1.0000 0.9777505109
Co  Co10      1.0  0.38158  0.11726  0.51317  1.0000 0.9777505109
Co  Co11      1.0  0.88274  0.61842  0.01317  1.0000 0.9777505109
Co  Co12      1.0  0.61842  0.88274  0.48683  1.0000 0.9777505109
H   H1        1.0  0.95760  0.08820  0.04760  1.0000 0.3965180228
H   H2        1.0  0.08820  0.95760  0.45240  1.0000 0.3965180228
H   H3        1.0  0.04240  0.91180  0.95240  1.0000 0.3965180228
H   H4        1.0  0.91180  0.04240  0.54760  1.0000 0.3965180228
H   H5        1.0  0.95480  0.02120  0.87860  1.0000 0.3911455357
H   H6        1.0  0.02120  0.95480  0.62140  1.0000 0.3911455357
H   H7        1.0  0.04520  0.97880  0.12140  1.0000 0.3911455357
H   H8        1.0  0.97880  0.04520  0.37860  1.0000 0.3911455357
H   H9        1.0  0.71810  0.96530  0.77670  1.0000 0.3446145365
H   H10       1.0  0.96530  0.71810  0.72330  1.0000 0.3446145365
H   H11       1.0  0.28190  0.03470  0.22330  1.0000 0.3446145365
H   H12       1.0  0.03470  0.28190  0.27670  1.0000 0.3446145365
H   H13       1.0  0.49810  0.90730  0.86580  1.0000 0.3223662981
H   H14       1.0  0.90730  0.49810  0.63420  1.0000 0.3223662981
H   H15       1.0  0.50190  0.09270  0.13420  1.0000 0.3223662981
H   H16       1.0  0.09270  0.50190  0.36580  1.0000 0.3223662981
H   H17       1.0  0.32810  0.74150  0.89500  1.0000 0.3112422349
H   H18       1.0  0.74150  0.32810  0.60500  1.0000 0.3112422349
H   H19       1.0  0.67190  0.25850  0.10500  1.0000 0.3112422349
H   H20       1.0  0.25850  0.67190  0.39500  1.0000 0.3112422349
H   H21       1.0  0.48530  0.45610  0.08520  1.0000 0.3112422349
H   H22       1.0  0.45610  0.48530  0.41480  1.0000 0.3112422349
H   H23       1.0  0.51470  0.54390  0.91480  1.0000 0.3112422349
H   H24       1.0  0.54390  0.51470  0.58520  1.0000 0.3112422349
H   H25       1.0  0.35740  0.39880  0.10020  1.0000 0.3223662981
H   H26       1.0  0.39880  0.35740  0.39980  1.0000 0.3223662981
H   H27       1.0  0.64260  0.60120  0.89980  1.0000 0.3223662981
H   H28       1.0  0.60120  0.64260  0.60020  1.0000 0.3223662981
H   H29       1.0  0.40410  0.82970  0.24930  1.0000 0.1274107629
H   H30       1.0  0.82970  0.40410  0.25070  1.0000 0.1274107629
H   H31       1.0  0.59590  0.17030  0.75070  1.0000 0.1274107629
H   H32       1.0  0.17030  0.59590  0.74930  1.0000 0.1274107629
H   H33       1.0  0.11120  0.52240  0.09940  1.0000 0.1418262431
H   H34       1.0  0.52240  0.11120  0.40060  1.0000 0.1418262431
H   H35       1.0  0.88880  0.47760  0.90060  1.0000 0.1418262431
H   H36       1.0  0.47760  0.88880  0.59940  1.0000 0.1418262431
H   H37       1.0  0.43490  0.57970  0.27890  1.0000 0.1418262431
H   H38       1.0  0.57970  0.43490  0.22110  1.0000 0.1418262431
H   H39       1.0  0.56510  0.42030  0.72110  1.0000 0.1418262431
H   H40       1.0  0.42030  0.56510  0.77890  1.0000 0.1418262431
H   H41       1.0  0.87190  0.27290  0.73500  1.0000 0.1199251423
H   H42       1.0  0.27290  0.87190  0.76500  1.0000 0.1199251423
H   H43       1.0  0.12810  0.72710  0.26500  1.0000 0.1199251423
H   H44       1.0  0.72710  0.12810  0.23500  1.0000 0.1199251423
H   H45       1.0  0.84510  0.20350  0.68260  1.0000 0.1274107629
H   H46       1.0  0.20350  0.84510  0.81740  1.0000 0.1274107629
H   H47       1.0  0.15490  0.79650  0.31740  1.0000 0.1274107629
H   H48       1.0  0.79650  0.15490  0.18260  1.0000 0.1274107629
H   H49       1.0  0.68370  0.11230  0.69440  1.0000 0.1113085458
H   H50       1.0  0.11230  0.68370  0.80560  1.0000 0.1113085458
H   H51       1.0  0.31630  0.88770  0.30560  1.0000 0.1113085458
H   H52       1.0  0.88770  0.31630  0.19440  1.0000 0.1113085458
C   C1        1.0  0.48052  0.75028  0.93970  1.0000 0.5283770273
C   C2        1.0  0.75028  0.48052  0.56030  1.0000 0.5283770273
C   C3        1.0  0.51948  0.24972  0.06030  1.0000 0.5283770273
C   C4        1.0  0.24972  0.51948  0.43970  1.0000 0.5283770273
C   C5        1.0  0.47113  0.58547  0.01710  1.0000 0.5126908729
C   C6        1.0  0.58547  0.47113  0.48290  1.0000 0.5126908729
C   C7        1.0  0.52887  0.41453  0.98290  1.0000 0.5126908729
C   C8        1.0  0.41453  0.52887  0.51710  1.0000 0.5126908729
C   C9        1.0  0.43952  0.71568  0.27560  1.0000 -0.0185683607
C   C10       1.0  0.71568  0.43952  0.22440  1.0000 -0.0185683607
C   C11       1.0  0.56048  0.28432  0.72440  1.0000 -0.0185683607
C   C12       1.0  0.28432  0.56048  0.77560  1.0000 -0.0185683607
C   C13       1.0  0.36864  0.75456  0.23350  1.0000 -0.1274996838
C   C14       1.0  0.75456  0.36864  0.26650  1.0000 -0.1274996838
C   C15       1.0  0.63136  0.24544  0.76650  1.0000 -0.1274996838
C   C16       1.0  0.24544  0.63136  0.73350  1.0000 -0.1274996838
C   C17       1.0  0.24471  0.68069  0.16780  1.0000 -0.0185683607
C   C18       1.0  0.68069  0.24471  0.33220  1.0000 -0.0185683607
C   C19       1.0  0.75529  0.31931  0.83220  1.0000 -0.0185683607
C   C20       1.0  0.31931  0.75529  0.66780  1.0000 -0.0185683607
C   C21       1.0  0.19333  0.57107  0.14340  1.0000 -0.1101178005
C   C22       1.0  0.57107  0.19333  0.35660  1.0000 -0.1101178005
C   C23       1.0  0.80667  0.42893  0.85660  1.0000 -0.1101178005
C   C24       1.0  0.42893  0.80667  0.64340  1.0000 -0.1101178005
C   C25       1.0  0.26540  0.53400  0.18520  1.0000 -0.0998723833
C   C26       1.0  0.53400  0.26540  0.31480  1.0000 -0.0998723833
C   C27       1.0  0.73460  0.46600  0.81480  1.0000 -0.0998723833
C   C28       1.0  0.46600  0.73460  0.68520  1.0000 -0.0998723833
C   C29       1.0  0.38784  0.60576  0.25120  1.0000 -0.1101178005
C   C30       1.0  0.60576  0.38784  0.24880  1.0000 -0.1101178005
C   C31       1.0  0.61216  0.39424  0.74880  1.0000 -0.1101178005
C   C32       1.0  0.39424  0.61216  0.75120  1.0000 -0.1101178005
C   C33       1.0  0.57119  0.79301  0.34700  1.0000 0.5753825614
C   C34       1.0  0.79301  0.57119  0.15300  1.0000 0.5753825614
C   C35       1.0  0.42881  0.20699  0.65300  1.0000 0.5753825614
C   C36       1.0  0.20699  0.42881  0.84700  1.0000 0.5753825614
C   C37       1.0  0.15924  0.71276  0.12420  1.0000 0.5864063213
C   C38       1.0  0.71276  0.15924  0.37580  1.0000 0.5864063213
C   C39       1.0  0.84076  0.28724  0.87580  1.0000 0.5864063213
C   C40       1.0  0.28724  0.84076  0.62420  1.0000 0.5864063213
C   C41       1.0  0.79510  0.17030  0.71850  1.0000 -0.1822064659
C   C42       1.0  0.17030  0.79510  0.78150  1.0000 -0.1822064659
C   C43       1.0  0.20490  0.82970  0.28150  1.0000 -0.1822064659
C   C44       1.0  0.82970  0.20490  0.21850  1.0000 -0.1822064659
S   S1        1.0  0.18040  0.37216  0.16254  1.0000 1.1742503056
S   S2        1.0  0.37216  0.18040  0.33746  1.0000 1.1742503056
S   S3        1.0  0.81960  0.62784  0.83746  1.0000 1.1742503056
S   S4        1.0  0.62784  0.81960  0.66254  1.0000 1.1742503056
N   N1        1.0  0.62645  0.72955  0.99605  1.0000 -0.341055735
N   N2        1.0  0.72955  0.62645  0.50395  1.0000 -0.341055735
N   N3        1.0  0.37355  0.27045  0.00395  1.0000 -0.341055735
N   N4        1.0  0.27045  0.37355  0.49605  1.0000 -0.341055735
N   N5        1.0  0.63255  0.83905  0.94374  1.0000 -0.369665294
N   N6        1.0  0.83905  0.63255  0.55626  1.0000 -0.369665294
N   N7        1.0  0.36745  0.16095  0.05626  1.0000 -0.369665294
N   N8        1.0  0.16095  0.36745  0.44374  1.0000 -0.369665294
N   N9        1.0  0.37365  0.59035  0.98445  1.0000 -0.5628522476
N   N10       1.0  0.59035  0.37365  0.51555  1.0000 -0.5628522476
N   N11       1.0  0.62635  0.40965  0.01555  1.0000 -0.5628522476
N   N12       1.0  0.40965  0.62635  0.48445  1.0000 -0.5628522476
N   N13       1.0  0.42933  0.80667  0.89460  1.0000 -0.631040602
N   N14       1.0  0.80667  0.42933  0.60540  1.0000 -0.631040602
N   N15       1.0  0.57067  0.19333  0.10540  1.0000 -0.631040602
N   N16       1.0  0.19333  0.57067  0.39460  1.0000 -0.631040602
N   N17       1.0  0.40000  0.43300  0.06279  1.0000 -0.6614986351
N   N18       1.0  0.43300  0.40000  0.43721  1.0000 -0.6614986351
N   N19       1.0  0.60000  0.56700  0.93721  1.0000 -0.6614986351
N   N20       1.0  0.56700  0.60000  0.56279  1.0000 -0.6614986351
O   O1        1.0  0.60310  0.72710  0.39222  1.0000 -0.5381890228
O   O2        1.0  0.72710  0.60310  0.10778  1.0000 -0.5381890228
O   O3        1.0  0.39690  0.27290  0.60778  1.0000 -0.5381890228
O   O4        1.0  0.27290  0.39690  0.89222  1.0000 -0.5381890228
O   O5        1.0  0.63908  0.91772  0.35811  1.0000 -0.5801333031
O   O6        1.0  0.91772  0.63908  0.14189  1.0000 -0.5801333031
O   O7        1.0  0.36092  0.08228  0.64189  1.0000 -0.5801333031
O   O8        1.0  0.08228  0.36092  0.85811  1.0000 -0.5801333031
O   O9        1.0  0.23202  0.84138  0.13385  1.0000 -0.5745475581
O   O10       1.0  0.84138  0.23202  0.36615  1.0000 -0.5745475581
O   O11       1.0  0.76798  0.15862  0.86615  1.0000 -0.5745475581
O   O12       1.0  0.15862  0.76798  0.63385  1.0000 -0.5745475581
O   O13       1.0  0.01583  0.60297  0.08055  1.0000 -0.5524452021
O   O14       1.0  0.60297  0.01583  0.41945  1.0000 -0.5524452021
O   O15       1.0  0.98417  0.39703  0.91945  1.0000 -0.5524452021
O   O16       1.0  0.39703  0.98417  0.58055  1.0000 -0.5524452021
O   O17       1.0  0.06504  0.21956  0.21755  1.0000 -0.5801333031
O   O18       1.0  0.21956  0.06504  0.28245  1.0000 -0.5801333031
O   O19       1.0  0.93496  0.78044  0.78245  1.0000 -0.5801333031
O   O20       1.0  0.78044  0.93496  0.71755  1.0000 -0.5801333031
O   O21       1.0  0.08305  0.34935  0.08410  1.0000 -0.631040602
O   O22       1.0  0.34935  0.08305  0.41590  1.0000 -0.631040602
O   O23       1.0  0.91695  0.65065  0.91590  1.0000 -0.631040602
O   O24       1.0  0.65065  0.91695  0.58410  1.0000 -0.631040602
O   O25       1.0  0.32281  0.43259  0.16768  1.0000 -0.5628522476
O   O26       1.0  0.43259  0.32281  0.33232  1.0000 -0.5628522476
O   O27       1.0  0.67719  0.56741  0.83232  1.0000 -0.5628522476
O   O28       1.0  0.56741  0.67719  0.66768  1.0000 -0.5628522476
O   O29       1.0  0.01921  0.17379  0.00339  1.0000 -0.8862324497
O   O30       1.0  0.17379  0.01921  0.49661  1.0000 -0.8862324497
O   O31       1.0  0.98079  0.82621  0.99661  1.0000 -0.8862324497
O   O32       1.0  0.82621  0.98079  0.50339  1.0000 -0.8862324497
O   O33       1.0  0.94186  0.01514  0.92307  1.0000 -0.9046457699
O   O34       1.0  0.01514  0.94186  0.57693  1.0000 -0.9052405646
O   O35       1.0  0.05814  0.98486  0.07693  1.0000 -0.9046457699
O   O36       1.0  0.98486  0.05814  0.42307  1.0000 -0.9046457699
O   O37       1.0  0.77240  0.05600  0.78263  1.0000 -0.396365284
O   O38       1.0  0.05600  0.77240  0.71737  1.0000 -0.396365284
O   O39       1.0  0.22760  0.94400  0.21737  1.0000 -0.396365284
O   O40       1.0  0.94400  0.22760  0.28263  1.0000 -0.396365284
