# DDEC6 charges by PACMAN v1.1 (https://github.com/mtap-research/PACMAN-charge/)
data_2012[Gd][pcu]3[FSR]5
_chemical_formula_sum              "Gd4 H80 C108 N32 O80"
_cell_length_a       19.4868
_cell_length_b       19.4868
_cell_length_c       13.362
_cell_angle_alpha    86.9606
_cell_angle_beta     93.0394
_cell_angle_gamma    78.0989

_symmetry_space_group_name_H-M    "P 1"
_symmetry_Int_Tables_number       1

loop_
  _symmetry_equiv_pos_as_xyz
  'x, y, z'

loop_
  _atom_site_type_symbol
  _atom_site_label
  _atom_site_symmetry_multiplicity
  _atom_site_fract_x
  _atom_site_fract_y
  _atom_site_fract_z
  _atom_site_occupancy
  _atom_site_charge
Gd  Gd1       1.0  0.96326  0.51254  0.35252  1.0000 1.9700644103
Gd  Gd2       1.0  0.51254  0.96326  0.14748  1.0000 1.9700644103
Gd  Gd3       1.0  0.03674  0.48746  0.64748  1.0000 1.9700644103
Gd  Gd4       1.0  0.48746  0.03674  0.85252  1.0000 1.9700644103
H   H1        1.0  0.19700  0.61400  0.56900  1.0000 0.1485516714
H   H2        1.0  0.61400  0.19700  0.93100  1.0000 0.1485516714
H   H3        1.0  0.80300  0.38600  0.43100  1.0000 0.1485516714
H   H4        1.0  0.38600  0.80300  0.06900  1.0000 0.1485516714
H   H5        1.0  0.09860  0.66800  0.29950  1.0000 0.1398243179
H   H6        1.0  0.66800  0.09860  0.20050  1.0000 0.1398243179
H   H7        1.0  0.90140  0.33200  0.70050  1.0000 0.1398243179
H   H8        1.0  0.33200  0.90140  0.79950  1.0000 0.1398243179
H   H9        1.0  0.44420  0.75180  0.28650  1.0000 0.1485516714
H   H10       1.0  0.75180  0.44420  0.21350  1.0000 0.1485516714
H   H11       1.0  0.55580  0.24820  0.71350  1.0000 0.1485516714
H   H12       1.0  0.24820  0.55580  0.78650  1.0000 0.1485516714
H   H13       1.0  0.30880  0.92700  0.34010  1.0000 0.1398243179
H   H14       1.0  0.92700  0.30880  0.15990  1.0000 0.1398243179
H   H15       1.0  0.69120  0.07300  0.65990  1.0000 0.1398243179
H   H16       1.0  0.07300  0.69120  0.84010  1.0000 0.1398243179
H   H17       1.0  0.93220  0.65060  0.67330  1.0000 0.1485516714
H   H18       1.0  0.65060  0.93220  0.82670  1.0000 0.1485516714
H   H19       1.0  0.06780  0.34940  0.32670  1.0000 0.1485516714
H   H20       1.0  0.34940  0.06780  0.17330  1.0000 0.1485516714
H   H21       1.0  0.75940  0.66260  0.49380  1.0000 0.1398243179
H   H22       1.0  0.66260  0.75940  0.00620  1.0000 0.1398243179
H   H23       1.0  0.24060  0.33740  0.50620  1.0000 0.1398243179
H   H24       1.0  0.33740  0.24060  0.99380  1.0000 0.1398243179
H   H25       1.0  0.11680  0.53800  0.25000  1.0000 0.1095574864
H   H26       1.0  0.53800  0.11680  0.25000  1.0000 0.1095574864
H   H27       1.0  0.88320  0.46200  0.75000  1.0000 0.1095574864
H   H28       1.0  0.46200  0.88320  0.75000  1.0000 0.1095574864
H   H29       1.0  0.05870  0.46250  0.05230  1.0000 0.1398243179
H   H30       1.0  0.46250  0.05870  0.44770  1.0000 0.1398243179
H   H31       1.0  0.94130  0.53750  0.94770  1.0000 0.1398243179
H   H32       1.0  0.53750  0.94130  0.55230  1.0000 0.1398243179
H   H33       1.0  0.08600  0.51260  0.97530  1.0000 0.1398243179
H   H34       1.0  0.51260  0.08600  0.52470  1.0000 0.1398243179
H   H35       1.0  0.91400  0.48740  0.02470  1.0000 0.1398243179
H   H36       1.0  0.48740  0.91400  0.47530  1.0000 0.1398243179
H   H37       1.0  0.13530  0.44170  0.01720  1.0000 0.129414393
H   H38       1.0  0.44170  0.13530  0.48280  1.0000 0.129414393
H   H39       1.0  0.86470  0.55830  0.98280  1.0000 0.129414393
H   H40       1.0  0.55830  0.86470  0.51720  1.0000 0.129414393
H   H41       1.0  0.21680  0.53400  0.15200  1.0000 0.129414393
H   H42       1.0  0.53400  0.21680  0.34800  1.0000 0.129414393
H   H43       1.0  0.78320  0.46600  0.84800  1.0000 0.129414393
H   H44       1.0  0.46600  0.78320  0.65200  1.0000 0.129414393
H   H45       1.0  0.20400  0.52720  0.03650  1.0000 0.129414393
H   H46       1.0  0.52720  0.20400  0.46350  1.0000 0.129414393
H   H47       1.0  0.79600  0.47280  0.96350  1.0000 0.129414393
H   H48       1.0  0.47280  0.79600  0.53650  1.0000 0.129414393
H   H49       1.0  0.16790  0.59550  0.08580  1.0000 0.1201835756
H   H50       1.0  0.59550  0.16790  0.41420  1.0000 0.1201835756
H   H51       1.0  0.83210  0.40450  0.91420  1.0000 0.1201835756
H   H52       1.0  0.40450  0.83210  0.58580  1.0000 0.1201835756
H   H53       1.0  0.84360  0.65080  0.24280  1.0000 0.0739745454
H   H54       1.0  0.65080  0.84360  0.25720  1.0000 0.0739745454
H   H55       1.0  0.15640  0.34920  0.75720  1.0000 0.0739745454
H   H56       1.0  0.34920  0.15640  0.74280  1.0000 0.0739745454
H   H57       1.0  0.93980  0.70500  0.03160  1.0000 0.1095574864
H   H58       1.0  0.70500  0.93980  0.46840  1.0000 0.1095574864
H   H59       1.0  0.06020  0.29500  0.96840  1.0000 0.1095574864
H   H60       1.0  0.29500  0.06020  0.53160  1.0000 0.1095574864
H   H61       1.0  0.98070  0.75430  0.08810  1.0000 0.129414393
H   H62       1.0  0.75430  0.98070  0.41190  1.0000 0.129414393
H   H63       1.0  0.01930  0.24570  0.91190  1.0000 0.129414393
H   H64       1.0  0.24570  0.01930  0.58810  1.0000 0.129414393
H   H65       1.0  0.00550  0.67250  0.10460  1.0000 0.1201835756
H   H66       1.0  0.67250  0.00550  0.39540  1.0000 0.1201835756
H   H67       1.0  0.99450  0.32750  0.89540  1.0000 0.1201835756
H   H68       1.0  0.32750  0.99450  0.60460  1.0000 0.1201835756
H   H69       1.0  0.81770  0.75870  0.20570  1.0000 0.1201835756
H   H70       1.0  0.75870  0.81770  0.29430  1.0000 0.1201835756
H   H71       1.0  0.18230  0.24130  0.79430  1.0000 0.1201835756
H   H72       1.0  0.24130  0.18230  0.70570  1.0000 0.1201835756
H   H73       1.0  0.84230  0.78630  0.10420  1.0000 0.1201835756
H   H74       1.0  0.78630  0.84230  0.39580  1.0000 0.1201835756
H   H75       1.0  0.15770  0.21370  0.89580  1.0000 0.1201835756
H   H76       1.0  0.21370  0.15770  0.60420  1.0000 0.1201835756
H   H77       1.0  0.82090  0.71310  0.11230  1.0000 0.1201835756
H   H78       1.0  0.71310  0.82090  0.38770  1.0000 0.1201835756
H   H79       1.0  0.17910  0.28690  0.88770  1.0000 0.1201835756
H   H80       1.0  0.28690  0.17910  0.61230  1.0000 0.1201835756
C   C1        1.0  0.08770  0.58750  0.46000  1.0000 0.6192537782
C   C2        1.0  0.58750  0.08770  0.04000  1.0000 0.6192537782
C   C3        1.0  0.91230  0.41250  0.54000  1.0000 0.6192537782
C   C4        1.0  0.41250  0.91230  0.96000  1.0000 0.6192537782
C   C5        1.0  0.13920  0.63540  0.43810  1.0000 0.0121494049
C   C6        1.0  0.63540  0.13920  0.06190  1.0000 0.0121494049
C   C7        1.0  0.86080  0.36460  0.56190  1.0000 0.0121494049
C   C8        1.0  0.36460  0.86080  0.93810  1.0000 0.0121494049
C   C9        1.0  0.19200  0.63960  0.50740  1.0000 -0.1223261493
C   C10       1.0  0.63960  0.19200  0.99260  1.0000 -0.1223261493
C   C11       1.0  0.80800  0.36040  0.49260  1.0000 -0.1223261493
C   C12       1.0  0.36040  0.80800  0.00740  1.0000 -0.1223261493
C   C13       1.0  0.23770  0.68290  0.48370  1.0000 0.0301340854
C   C14       1.0  0.68290  0.23770  0.01630  1.0000 0.0301340854
C   C15       1.0  0.76230  0.31710  0.51630  1.0000 0.0301340854
C   C16       1.0  0.31710  0.76230  0.98370  1.0000 0.0301340854
C   C17       1.0  0.23430  0.72330  0.39330  1.0000 -0.003540405
C   C18       1.0  0.72330  0.23430  0.10670  1.0000 -0.003540405
C   C19       1.0  0.76570  0.27670  0.60670  1.0000 -0.003540405
C   C20       1.0  0.27670  0.76570  0.89330  1.0000 -0.003540405
C   C21       1.0  0.18140  0.71200  0.32170  1.0000 0.0301340854
C   C22       1.0  0.71200  0.18140  0.17830  1.0000 0.0301340854
C   C23       1.0  0.81860  0.28800  0.67830  1.0000 0.0301340854
C   C24       1.0  0.28800  0.81860  0.82170  1.0000 0.0301340854
C   C25       1.0  0.13450  0.67130  0.34640  1.0000 -0.1373277778
C   C26       1.0  0.67130  0.13450  0.15360  1.0000 -0.1373277778
C   C27       1.0  0.86550  0.32870  0.65360  1.0000 -0.1373277778
C   C28       1.0  0.32870  0.86550  0.84640  1.0000 -0.1373277778
C   C29       1.0  0.28770  0.76570  0.36750  1.0000 -0.0200073358
C   C30       1.0  0.76570  0.28770  0.13250  1.0000 -0.0200073358
C   C31       1.0  0.71230  0.23430  0.63250  1.0000 -0.0200073358
C   C32       1.0  0.23430  0.71230  0.86750  1.0000 -0.0200073358
C   C33       1.0  0.35160  0.73620  0.33320  1.0000 0.0379110447
C   C34       1.0  0.73620  0.35160  0.16680  1.0000 0.0379110447
C   C35       1.0  0.64840  0.26380  0.66680  1.0000 0.0379110447
C   C36       1.0  0.26380  0.64840  0.83320  1.0000 0.0379110447
C   C37       1.0  0.40030  0.77470  0.30490  1.0000 -0.1455269555
C   C38       1.0  0.77470  0.40030  0.19510  1.0000 -0.1455269555
C   C39       1.0  0.59970  0.22530  0.69510  1.0000 -0.1455269555
C   C40       1.0  0.22530  0.59970  0.80490  1.0000 -0.1455269555
C   C41       1.0  0.38370  0.84690  0.30400  1.0000 0.0215673831
C   C42       1.0  0.84690  0.38370  0.19600  1.0000 0.0215673831
C   C43       1.0  0.61630  0.15310  0.69600  1.0000 0.0215673831
C   C44       1.0  0.15310  0.61630  0.80400  1.0000 0.0215673831
C   C45       1.0  0.32110  0.87830  0.33960  1.0000 -0.1373277778
C   C46       1.0  0.87830  0.32110  0.16040  1.0000 -0.1373277778
C   C47       1.0  0.67890  0.12170  0.66040  1.0000 -0.1373277778
C   C48       1.0  0.12170  0.67890  0.83960  1.0000 -0.1373277778
C   C49       1.0  0.27580  0.83700  0.37520  1.0000 0.0215673831
C   C50       1.0  0.83700  0.27580  0.12480  1.0000 0.0215673831
C   C51       1.0  0.72420  0.16300  0.62480  1.0000 0.0215673831
C   C52       1.0  0.16300  0.72420  0.87520  1.0000 0.0215673831
C   C53       1.0  0.43330  0.89010  0.26260  1.0000 0.5418564168
C   C54       1.0  0.89010  0.43330  0.23740  1.0000 0.5418564168
C   C55       1.0  0.56670  0.10990  0.73740  1.0000 0.5418564168
C   C56       1.0  0.10990  0.56670  0.76260  1.0000 0.5418564168
C   C57       1.0  0.89540  0.59960  0.50600  1.0000 0.6078319934
C   C58       1.0  0.59960  0.89540  0.99400  1.0000 0.6078319934
C   C59       1.0  0.10460  0.40040  0.49400  1.0000 0.6078319934
C   C60       1.0  0.40040  0.10460  0.00600  1.0000 0.6078319934
C   C61       1.0  0.85180  0.64460  0.57650  1.0000 0.0121494049
C   C62       1.0  0.64460  0.85180  0.92350  1.0000 0.0121494049
C   C63       1.0  0.14820  0.35540  0.42350  1.0000 0.0121494049
C   C64       1.0  0.35540  0.14820  0.07650  1.0000 0.0121494049
C   C65       1.0  0.88370  0.66450  0.66060  1.0000 -0.1373277778
C   C66       1.0  0.66450  0.88370  0.83940  1.0000 -0.1373277778
C   C67       1.0  0.11630  0.33550  0.33940  1.0000 -0.1373277778
C   C68       1.0  0.33550  0.11630  0.16060  1.0000 -0.1373277778
C   C69       1.0  0.84340  0.70580  0.72760  1.0000 0.0027580465
C   C70       1.0  0.70580  0.84340  0.77240  1.0000 0.0027580465
C   C71       1.0  0.15660  0.29420  0.27240  1.0000 0.0027580465
C   C72       1.0  0.29420  0.15660  0.22760  1.0000 0.0027580465
C   C73       1.0  0.77060  0.72520  0.71300  1.0000 -0.0141872293
C   C74       1.0  0.72520  0.77060  0.78700  1.0000 -0.0141872293
C   C75       1.0  0.22940  0.27480  0.28700  1.0000 -0.0141872293
C   C76       1.0  0.27480  0.22940  0.21300  1.0000 -0.0141872293
C   C77       1.0  0.74180  0.70820  0.62300  1.0000 0.0379110447
C   C78       1.0  0.70820  0.74180  0.87700  1.0000 0.0379110447
C   C79       1.0  0.25820  0.29180  0.37700  1.0000 0.0379110447
C   C80       1.0  0.29180  0.25820  0.12300  1.0000 0.0379110447
C   C81       1.0  0.78060  0.67060  0.55500  1.0000 -0.1321462287
C   C82       1.0  0.67060  0.78060  0.94500  1.0000 -0.1321462287
C   C83       1.0  0.21940  0.32940  0.44500  1.0000 -0.1321462287
C   C84       1.0  0.32940  0.21940  0.05500  1.0000 -0.1321462287
C   C85       1.0  0.09690  0.51350  0.20300  1.0000 0.2926573691
C   C86       1.0  0.51350  0.09690  0.29700  1.0000 0.2926573691
C   C87       1.0  0.90310  0.48650  0.79700  1.0000 0.2926573691
C   C88       1.0  0.48650  0.90310  0.70300  1.0000 0.2926573691
C   C89       1.0  0.09900  0.48100  0.03300  1.0000 -0.309806368
C   C90       1.0  0.48100  0.09900  0.46700  1.0000 -0.309806368
C   C91       1.0  0.90100  0.51900  0.96700  1.0000 -0.309806368
C   C92       1.0  0.51900  0.90100  0.53300  1.0000 -0.309806368
C   C93       1.0  0.18300  0.54540  0.09600  1.0000 -0.3386303994
C   C94       1.0  0.54540  0.18300  0.40400  1.0000 -0.3386303994
C   C95       1.0  0.81700  0.45460  0.90400  1.0000 -0.3386303994
C   C96       1.0  0.45460  0.81700  0.59600  1.0000 -0.3386303994
C   C97       1.0  0.88860  0.65180  0.22380  1.0000 0.2926573691
C   C98       1.0  0.65180  0.88860  0.27620  1.0000 0.2926573691
C   C99       1.0  0.11140  0.34820  0.77620  1.0000 0.2926573691
C   C100      1.0  0.34820  0.11140  0.72380  1.0000 0.2926573691
C   C101      1.0  0.96540  0.71060  0.09300  1.0000 -0.3541416886
C   C102      1.0  0.71060  0.96540  0.40700  1.0000 -0.3541416886
C   C103      1.0  0.03460  0.28940  0.90700  1.0000 -0.3541416886
C   C104      1.0  0.28940  0.03460  0.59300  1.0000 -0.3541416886
C   C105      1.0  0.84290  0.74530  0.14760  1.0000 -0.3636915299
C   C106      1.0  0.74530  0.84290  0.35240  1.0000 -0.3636915299
C   C107      1.0  0.15710  0.25470  0.85240  1.0000 -0.3636915299
C   C108      1.0  0.25470  0.15710  0.64760  1.0000 -0.3636915299
N   N1        1.0  0.29590  0.68370  0.55940  1.0000 0.4790451316
N   N2        1.0  0.68370  0.29590  0.94060  1.0000 0.4790451316
N   N3        1.0  0.70410  0.31630  0.44060  1.0000 0.4790451316
N   N4        1.0  0.31630  0.70410  0.05940  1.0000 0.4790451316
N   N5        1.0  0.17340  0.74720  0.22300  1.0000 0.4985626129
N   N6        1.0  0.74720  0.17340  0.27700  1.0000 0.4985626129
N   N7        1.0  0.82660  0.25280  0.77700  1.0000 0.4985626129
N   N8        1.0  0.25280  0.82660  0.72300  1.0000 0.4985626129
N   N9        1.0  0.37550  0.65710  0.32930  1.0000 0.507431784
N   N10       1.0  0.65710  0.37550  0.17070  1.0000 0.507431784
N   N11       1.0  0.62450  0.34290  0.67070  1.0000 0.507431784
N   N12       1.0  0.34290  0.62450  0.82930  1.0000 0.507431784
N   N13       1.0  0.21180  0.87280  0.41470  1.0000 0.4883906816
N   N14       1.0  0.87280  0.21180  0.08530  1.0000 0.4883906816
N   N15       1.0  0.78820  0.12720  0.58530  1.0000 0.4883906816
N   N16       1.0  0.12720  0.78820  0.91470  1.0000 0.4883906816
N   N17       1.0  0.87840  0.72580  0.81690  1.0000 0.4694853735
N   N18       1.0  0.72580  0.87840  0.68310  1.0000 0.4694853735
N   N19       1.0  0.12160  0.27420  0.18310  1.0000 0.4694853735
N   N20       1.0  0.27420  0.12160  0.31690  1.0000 0.4694853735
N   N21       1.0  0.66280  0.72780  0.60200  1.0000 0.4883906816
N   N22       1.0  0.72780  0.66280  0.89800  1.0000 0.4883906816
N   N23       1.0  0.33720  0.27220  0.39800  1.0000 0.4883906816
N   N24       1.0  0.27220  0.33720  0.10200  1.0000 0.4883906816
N   N25       1.0  0.12400  0.51520  0.11400  1.0000 0.0121494049
N   N26       1.0  0.51520  0.12400  0.38600  1.0000 0.0121494049
N   N27       1.0  0.87600  0.48480  0.88600  1.0000 0.0121494049
N   N28       1.0  0.48480  0.87600  0.61400  1.0000 0.0121494049
N   N29       1.0  0.91780  0.71040  0.17990  1.0000 0.0596508452
N   N30       1.0  0.71040  0.91780  0.32010  1.0000 0.0596508452
N   N31       1.0  0.08220  0.28960  0.82010  1.0000 0.0596508452
N   N32       1.0  0.28960  0.08220  0.67990  1.0000 0.0596508452
O   O1        1.0  0.04510  0.58310  0.38980  1.0000 -0.6386795851
O   O2        1.0  0.58310  0.04510  0.11020  1.0000 -0.6386795851
O   O3        1.0  0.95490  0.41690  0.61020  1.0000 -0.6386795851
O   O4        1.0  0.41690  0.95490  0.88980  1.0000 -0.6386795851
O   O5        1.0  0.09820  0.55600  0.54540  1.0000 -0.6192244726
O   O6        1.0  0.55600  0.09820  0.95460  1.0000 -0.6192244726
O   O7        1.0  0.90180  0.44400  0.45460  1.0000 -0.6192244726
O   O8        1.0  0.44400  0.90180  0.04540  1.0000 -0.6192244726
O   O9        1.0  0.49420  0.86080  0.25080  1.0000 -0.5740103635
O   O10       1.0  0.86080  0.49420  0.24920  1.0000 -0.5740103635
O   O11       1.0  0.50580  0.13920  0.74920  1.0000 -0.5740103635
O   O12       1.0  0.13920  0.50580  0.75080  1.0000 -0.5740103635
O   O13       1.0  0.40710  0.95210  0.23610  1.0000 -0.5854968491
O   O14       1.0  0.95210  0.40710  0.26390  1.0000 -0.5854968491
O   O15       1.0  0.59290  0.04790  0.76390  1.0000 -0.5854968491
O   O16       1.0  0.04790  0.59290  0.73610  1.0000 -0.5854968491
O   O17       1.0  0.31030  0.63430  0.61900  1.0000 -0.2061960163
O   O18       1.0  0.63430  0.31030  0.88100  1.0000 -0.2061960163
O   O19       1.0  0.68970  0.36570  0.38100  1.0000 -0.2005319211
O   O20       1.0  0.36570  0.68970  0.11900  1.0000 -0.2061960163
O   O21       1.0  0.33660  0.71480  0.55220  1.0000 -0.1942747744
O   O22       1.0  0.71480  0.33660  0.94780  1.0000 -0.1942747744
O   O23       1.0  0.66340  0.28520  0.44780  1.0000 -0.1942747744
O   O24       1.0  0.28520  0.66340  0.05220  1.0000 -0.2005319211
O   O25       1.0  0.14050  0.72630  0.15870  1.0000 -0.2813878105
O   O26       1.0  0.72630  0.14050  0.34130  1.0000 -0.2813878105
O   O27       1.0  0.85950  0.27370  0.84130  1.0000 -0.2813878105
O   O28       1.0  0.27370  0.85950  0.65870  1.0000 -0.2813878105
O   O29       1.0  0.20710  0.79110  0.20300  1.0000 -0.2957513543
O   O30       1.0  0.79110  0.20710  0.29700  1.0000 -0.2892600032
O   O31       1.0  0.79290  0.20890  0.79700  1.0000 -0.2892600032
O   O32       1.0  0.20890  0.79290  0.70300  1.0000 -0.2957513543
O   O33       1.0  0.32990  0.62430  0.31800  1.0000 -0.3386303994
O   O34       1.0  0.62430  0.32990  0.18200  1.0000 -0.3386303994
O   O35       1.0  0.67010  0.37570  0.68200  1.0000 -0.3386303994
O   O36       1.0  0.37570  0.67010  0.81800  1.0000 -0.3386303994
O   O37       1.0  0.43910  0.63310  0.33500  1.0000 -0.309806368
O   O38       1.0  0.63310  0.43910  0.16500  1.0000 -0.309806368
O   O39       1.0  0.56090  0.36690  0.66500  1.0000 -0.309806368
O   O40       1.0  0.36690  0.56090  0.83500  1.0000 -0.309806368
O   O41       1.0  0.17140  0.84260  0.45200  1.0000 -0.26106312
O   O42       1.0  0.84260  0.17140  0.04800  1.0000 -0.26106312
O   O43       1.0  0.82860  0.15740  0.54800  1.0000 -0.26106312
O   O44       1.0  0.15740  0.82860  0.95200  1.0000 -0.26106312
O   O45       1.0  0.20470  0.93570  0.42500  1.0000 -0.2813878105
O   O46       1.0  0.93570  0.20470  0.07500  1.0000 -0.2892600032
O   O47       1.0  0.79530  0.06430  0.57500  1.0000 -0.2813878105
O   O48       1.0  0.06430  0.79530  0.92500  1.0000 -0.2813878105
O   O49       1.0  0.87010  0.60090  0.41590  1.0000 -0.6192244726
O   O50       1.0  0.60090  0.87010  0.08410  1.0000 -0.6192244726
O   O51       1.0  0.12990  0.39910  0.58410  1.0000 -0.6192244726
O   O52       1.0  0.39910  0.12990  0.91590  1.0000 -0.6192244726
O   O53       1.0  0.95210  0.56070  0.53880  1.0000 -0.6909015092
O   O54       1.0  0.56070  0.95210  0.96120  1.0000 -0.6909015092
O   O55       1.0  0.04790  0.43930  0.46120  1.0000 -0.6909015092
O   O56       1.0  0.43930  0.04790  0.03880  1.0000 -0.6909015092
O   O57       1.0  0.93700  0.72540  0.81800  1.0000 -0.1730120431
O   O58       1.0  0.72540  0.93700  0.68200  1.0000 -0.1730120431
O   O59       1.0  0.06300  0.27460  0.18200  1.0000 -0.1730120431
O   O60       1.0  0.27460  0.06300  0.31800  1.0000 -0.1730120431
O   O61       1.0  0.85220  0.72820  0.89200  1.0000 -0.26106312
O   O62       1.0  0.72820  0.85220  0.60800  1.0000 -0.26106312
O   O63       1.0  0.14780  0.27180  0.10800  1.0000 -0.26106312
O   O64       1.0  0.27180  0.14780  0.39200  1.0000 -0.26106312
O   O65       1.0  0.62360  0.73840  0.67000  1.0000 -0.3165840122
O   O66       1.0  0.73840  0.62360  0.83000  1.0000 -0.3165840122
O   O67       1.0  0.37640  0.26160  0.33000  1.0000 -0.3165840122
O   O68       1.0  0.26160  0.37640  0.17000  1.0000 -0.3165840122
O   O69       1.0  0.64130  0.73170  0.51700  1.0000 -0.2892600032
O   O70       1.0  0.73170  0.64130  0.98300  1.0000 -0.2813878105
O   O71       1.0  0.35870  0.26830  0.48300  1.0000 -0.2813878105
O   O72       1.0  0.26830  0.35870  0.01700  1.0000 -0.2892600032
O   O73       1.0  0.05220  0.48700  0.23290  1.0000 -0.4796575668
O   O74       1.0  0.48700  0.05220  0.26710  1.0000 -0.4796575668
O   O75       1.0  0.94780  0.51300  0.76710  1.0000 -0.4796575668
O   O76       1.0  0.51300  0.94780  0.73290  1.0000 -0.4796575668
O   O77       1.0  0.94040  0.60620  0.22720  1.0000 -0.4636174949
O   O78       1.0  0.60620  0.94040  0.27280  1.0000 -0.4636174949
O   O79       1.0  0.05960  0.39380  0.77280  1.0000 -0.4636174949
O   O80       1.0  0.39380  0.05960  0.72720  1.0000 -0.4636174949
