# DDEC6 charges by PACMAN v1.1 (https://github.com/mtap-research/PACMAN-charge/)
data_2012[Co][pcu]3[FSR]11
_chemical_formula_sum              "Co8 H80 C88 N8 O32"
_cell_length_a       13.7171
_cell_length_b       13.7171
_cell_length_c       14.813
_cell_angle_alpha    89.7586
_cell_angle_beta     90.2414
_cell_angle_gamma    97.9497

_symmetry_space_group_name_H-M    "P 1"
_symmetry_Int_Tables_number       1

loop_
  _symmetry_equiv_pos_as_xyz
  'x, y, z'

loop_
  _atom_site_type_symbol
  _atom_site_label
  _atom_site_symmetry_multiplicity
  _atom_site_fract_x
  _atom_site_fract_y
  _atom_site_fract_z
  _atom_site_occupancy
  _atom_site_charge
Co  Co1       1.0  0.29391  0.55207  0.96108  1.0000 0.844556928
Co  Co2       1.0  0.55207  0.29391  0.53892  1.0000 0.8452596072
Co  Co3       1.0  0.70609  0.44793  0.03892  1.0000 0.8452596072
Co  Co4       1.0  0.44793  0.70609  0.46108  1.0000 0.844556928
Co  Co5       1.0  0.47584  0.54214  0.09039  1.0000 1.0593603257
Co  Co6       1.0  0.54214  0.47584  0.40961  1.0000 1.0593603257
Co  Co7       1.0  0.52416  0.45786  0.90961  1.0000 1.0593603257
Co  Co8       1.0  0.45786  0.52416  0.59039  1.0000 1.0593603257
H   H1        1.0  0.36350  0.41350  0.01100  1.0000 0.3812562529
H   H2        1.0  0.41350  0.36350  0.48900  1.0000 0.3812562529
H   H3        1.0  0.63650  0.58650  0.98900  1.0000 0.3812562529
H   H4        1.0  0.58650  0.63650  0.51100  1.0000 0.3812562529
H   H5        1.0  0.51200  0.65400  0.22800  1.0000 0.367924333
H   H6        1.0  0.65400  0.51200  0.27200  1.0000 0.367924333
H   H7        1.0  0.48800  0.34600  0.77200  1.0000 0.367924333
H   H8        1.0  0.34600  0.48800  0.72800  1.0000 0.367924333
H   H9        1.0  0.53100  0.70500  0.14700  1.0000 0.3546713967
H   H10       1.0  0.70500  0.53100  0.35300  1.0000 0.3546713967
H   H11       1.0  0.46900  0.29500  0.85300  1.0000 0.3546713967
H   H12       1.0  0.29500  0.46900  0.64700  1.0000 0.3546713967
H   H13       1.0  0.45130  0.92330  0.68890  1.0000 0.100034937
H   H14       1.0  0.92330  0.45130  0.81110  1.0000 0.100034937
H   H15       1.0  0.54870  0.07670  0.31110  1.0000 0.100034937
H   H16       1.0  0.07670  0.54870  0.18890  1.0000 0.100034937
H   H17       1.0  0.45450  0.01250  0.82020  1.0000 0.1173000436
H   H18       1.0  0.01250  0.45450  0.67980  1.0000 0.1173000436
H   H19       1.0  0.54550  0.98750  0.17980  1.0000 0.1173000436
H   H20       1.0  0.98750  0.54550  0.32020  1.0000 0.1173000436
H   H21       1.0  0.45260  0.93240  0.95860  1.0000 0.1111657772
H   H22       1.0  0.93240  0.45260  0.54140  1.0000 0.1111657772
H   H23       1.0  0.54740  0.06760  0.04140  1.0000 0.1111657772
H   H24       1.0  0.06760  0.54740  0.45860  1.0000 0.1111657772
H   H25       1.0  0.08430  0.46270  0.00750  1.0000 0.100034937
H   H26       1.0  0.46270  0.08430  0.49250  1.0000 0.100034937
H   H27       1.0  0.91570  0.53730  0.99250  1.0000 0.100034937
H   H28       1.0  0.53730  0.91570  0.50750  1.0000 0.100034937
H   H29       1.0  0.96030  0.34550  0.96310  1.0000 0.1338984374
H   H30       1.0  0.34550  0.96030  0.53690  1.0000 0.1338984374
H   H31       1.0  0.03970  0.65450  0.03690  1.0000 0.1338984374
H   H32       1.0  0.65450  0.03970  0.46310  1.0000 0.1338984374
H   H33       1.0  0.14350  0.25530  0.78370  1.0000 0.1338984374
H   H34       1.0  0.25530  0.14350  0.71630  1.0000 0.1338984374
H   H35       1.0  0.85650  0.74470  0.21630  1.0000 0.1338984374
H   H36       1.0  0.74470  0.85650  0.28370  1.0000 0.1338984374
H   H37       1.0  0.26760  0.37080  0.83890  1.0000 0.1173000436
H   H38       1.0  0.37080  0.26760  0.66110  1.0000 0.1173000436
H   H39       1.0  0.73240  0.62920  0.16110  1.0000 0.1173000436
H   H40       1.0  0.62920  0.73240  0.33890  1.0000 0.1173000436
H   H41       1.0  0.89850  0.25510  0.80740  1.0000 0.1173000436
H   H42       1.0  0.25510  0.89850  0.69260  1.0000 0.1173000436
H   H43       1.0  0.10150  0.74490  0.19260  1.0000 0.1173000436
H   H44       1.0  0.74490  0.10150  0.30740  1.0000 0.1173000436
H   H45       1.0  0.91580  0.17980  0.88350  1.0000 0.1173000436
H   H46       1.0  0.17980  0.91580  0.61650  1.0000 0.1173000436
H   H47       1.0  0.08420  0.82020  0.11650  1.0000 0.1173000436
H   H48       1.0  0.82020  0.08420  0.38350  1.0000 0.1173000436
H   H49       1.0  0.99230  0.18150  0.70980  1.0000 0.100034937
H   H50       1.0  0.18150  0.99230  0.79020  1.0000 0.100034937
H   H51       1.0  0.00770  0.81850  0.29020  1.0000 0.100034937
H   H52       1.0  0.81850  0.00770  0.20980  1.0000 0.100034937
H   H53       1.0  0.02030  0.11070  0.78620  1.0000 0.0885456227
H   H54       1.0  0.11070  0.02030  0.71380  1.0000 0.0885456227
H   H55       1.0  0.97970  0.88930  0.21380  1.0000 0.0885456227
H   H56       1.0  0.88930  0.97970  0.28620  1.0000 0.0885456227
H   H57       1.0  0.90060  0.02040  0.70460  1.0000 0.1173000436
H   H58       1.0  0.02040  0.90060  0.79540  1.0000 0.1173000436
H   H59       1.0  0.09940  0.97960  0.29540  1.0000 0.1173000436
H   H60       1.0  0.97960  0.09940  0.20460  1.0000 0.1173000436
H   H61       1.0  0.85090  0.04350  0.79550  1.0000 0.1111657772
H   H62       1.0  0.04350  0.85090  0.70450  1.0000 0.1111657772
H   H63       1.0  0.14910  0.95650  0.20450  1.0000 0.1111657772
H   H64       1.0  0.95650  0.14910  0.29550  1.0000 0.1111657772
H   H65       1.0  0.69030  0.08330  0.77730  1.0000 0.1383672628
H   H66       1.0  0.08330  0.69030  0.72270  1.0000 0.1451310817
H   H67       1.0  0.30970  0.91670  0.22270  1.0000 0.1451310817
H   H68       1.0  0.91670  0.30970  0.27730  1.0000 0.1451310817
H   H69       1.0  0.57340  0.15580  0.69700  1.0000 0.100034937
H   H70       1.0  0.15580  0.57340  0.80300  1.0000 0.100034937
H   H71       1.0  0.42660  0.84420  0.30300  1.0000 0.100034937
H   H72       1.0  0.84420  0.42660  0.19700  1.0000 0.100034937
H   H73       1.0  0.75900  0.22860  0.50360  1.0000 0.1111657772
H   H74       1.0  0.22860  0.75900  0.99640  1.0000 0.1111657772
H   H75       1.0  0.24100  0.77140  0.49640  1.0000 0.1111657772
H   H76       1.0  0.77140  0.24100  0.00360  1.0000 0.1111657772
H   H77       1.0  0.88130  0.16190  0.58170  1.0000 0.1383672628
H   H78       1.0  0.16190  0.88130  0.91830  1.0000 0.1383672628
H   H79       1.0  0.11870  0.83810  0.41830  1.0000 0.1383672628
H   H80       1.0  0.83810  0.11870  0.08170  1.0000 0.1383672628
C   C1        1.0  0.44580  0.79400  0.90990  1.0000 -0.0659969483
C   C2        1.0  0.79400  0.44580  0.59010  1.0000 -0.0659969483
C   C3        1.0  0.55420  0.20600  0.09010  1.0000 -0.0659969483
C   C4        1.0  0.20600  0.55420  0.40990  1.0000 -0.0659969483
C   C5        1.0  0.44210  0.73970  0.82960  1.0000 -0.0201818362
C   C6        1.0  0.73970  0.44210  0.67040  1.0000 -0.0201818362
C   C7        1.0  0.55790  0.26030  0.17040  1.0000 -0.0201818362
C   C8        1.0  0.26030  0.55790  0.32960  1.0000 -0.0201818362
C   C9        1.0  0.44450  0.78850  0.74670  1.0000 -0.0574329715
C   C10       1.0  0.78850  0.44450  0.75330  1.0000 -0.0574329715
C   C11       1.0  0.55550  0.21150  0.25330  1.0000 -0.0574329715
C   C12       1.0  0.21150  0.55550  0.24670  1.0000 -0.0574329715
C   C13       1.0  0.44950  0.89090  0.74430  1.0000 -0.1253666204
C   C14       1.0  0.89090  0.44950  0.75570  1.0000 -0.1253666204
C   C15       1.0  0.55050  0.10910  0.25570  1.0000 -0.1249877807
C   C16       1.0  0.10910  0.55050  0.24430  1.0000 -0.1249877807
C   C17       1.0  0.45200  0.94440  0.82250  1.0000 -0.1146713939
C   C18       1.0  0.94440  0.45200  0.67750  1.0000 -0.1146713939
C   C19       1.0  0.54800  0.05560  0.17750  1.0000 -0.1146713939
C   C20       1.0  0.05560  0.54800  0.32250  1.0000 -0.1146713939
C   C21       1.0  0.45050  0.89610  0.90550  1.0000 -0.1046198752
C   C22       1.0  0.89610  0.45050  0.59450  1.0000 -0.1046198752
C   C23       1.0  0.54950  0.10390  0.09450  1.0000 -0.1046198752
C   C24       1.0  0.10390  0.54950  0.40550  1.0000 -0.1046198752
C   C25       1.0  0.45140  0.74740  0.00100  1.0000 0.5723803643
C   C26       1.0  0.74740  0.45140  0.49900  1.0000 0.5723803643
C   C27       1.0  0.54860  0.25260  0.99900  1.0000 0.5723803643
C   C28       1.0  0.25260  0.54860  0.50100  1.0000 0.5723803643
C   C29       1.0  0.43910  0.62810  0.83690  1.0000 0.60483259
C   C30       1.0  0.62810  0.43910  0.66310  1.0000 0.60483259
C   C31       1.0  0.56090  0.37190  0.16310  1.0000 0.60483259
C   C32       1.0  0.37190  0.56090  0.33690  1.0000 0.60483259
C   C33       1.0  0.44670  0.73250  0.66060  1.0000 0.5895204548
C   C34       1.0  0.73250  0.44670  0.83940  1.0000 0.5895204548
C   C35       1.0  0.55330  0.26750  0.33940  1.0000 0.5895204548
C   C36       1.0  0.26750  0.55330  0.16060  1.0000 0.5895204548
C   C37       1.0  0.09660  0.42000  0.96150  1.0000 0.0679452497
C   C38       1.0  0.42000  0.09660  0.53850  1.0000 0.0679452497
C   C39       1.0  0.90340  0.58000  0.03850  1.0000 0.0679452497
C   C40       1.0  0.58000  0.90340  0.46150  1.0000 0.0679452497
C   C41       1.0  0.02130  0.35030  0.93500  1.0000 -0.2117517326
C   C42       1.0  0.35030  0.02130  0.56500  1.0000 -0.2117517326
C   C43       1.0  0.97870  0.64970  0.06500  1.0000 -0.2117517326
C   C44       1.0  0.64970  0.97870  0.43500  1.0000 -0.2117517326
C   C45       1.0  0.03620  0.28760  0.86690  1.0000 0.1721283052
C   C46       1.0  0.28760  0.03620  0.63310  1.0000 0.1721283052
C   C47       1.0  0.96380  0.71240  0.13310  1.0000 0.1721283052
C   C48       1.0  0.71240  0.96380  0.36690  1.0000 0.1721283052
C   C49       1.0  0.13020  0.29680  0.83010  1.0000 -0.2117517326
C   C50       1.0  0.29680  0.13020  0.66990  1.0000 -0.2117517326
C   C51       1.0  0.86980  0.70320  0.16990  1.0000 -0.2117517326
C   C52       1.0  0.70320  0.86980  0.33010  1.0000 -0.2117517326
C   C53       1.0  0.20450  0.36770  0.86230  1.0000 0.100034937
C   C54       1.0  0.36770  0.20450  0.63770  1.0000 0.100034937
C   C55       1.0  0.79550  0.63230  0.13770  1.0000 0.100034937
C   C56       1.0  0.63230  0.79550  0.36230  1.0000 0.100034937
C   C57       1.0  0.94630  0.21630  0.83230  1.0000 -0.2511101337
C   C58       1.0  0.21630  0.94630  0.66770  1.0000 -0.2511101337
C   C59       1.0  0.05370  0.78370  0.16770  1.0000 -0.2511101337
C   C60       1.0  0.78370  0.05370  0.33230  1.0000 -0.2511101337
C   C61       1.0  0.96840  0.14600  0.76390  1.0000 -0.1619992402
C   C62       1.0  0.14600  0.96840  0.73610  1.0000 -0.1619992402
C   C63       1.0  0.03160  0.85400  0.23610  1.0000 -0.1619992402
C   C64       1.0  0.85400  0.03160  0.26390  1.0000 -0.1619992402
C   C65       1.0  0.87930  0.07270  0.74020  1.0000 -0.2417232763
C   C66       1.0  0.07270  0.87930  0.75980  1.0000 -0.2417232763
C   C67       1.0  0.12070  0.92730  0.25980  1.0000 -0.2417232763
C   C68       1.0  0.92730  0.12070  0.24020  1.0000 -0.2417232763
C   C69       1.0  0.79950  0.11630  0.68770  1.0000 0.1593951586
C   C70       1.0  0.11630  0.79950  0.81230  1.0000 0.1593951586
C   C71       1.0  0.20050  0.88370  0.31230  1.0000 0.1593951586
C   C72       1.0  0.88370  0.20050  0.18770  1.0000 0.1593951586
C   C73       1.0  0.70660  0.11360  0.72200  1.0000 -0.2117517326
C   C74       1.0  0.11360  0.70660  0.77800  1.0000 -0.2117517326
C   C75       1.0  0.29340  0.88640  0.27800  1.0000 -0.2117517326
C   C76       1.0  0.88640  0.29340  0.22200  1.0000 -0.2117517326
C   C77       1.0  0.63600  0.15700  0.67270  1.0000 0.100034937
C   C78       1.0  0.15700  0.63600  0.82730  1.0000 0.100034937
C   C79       1.0  0.36400  0.84300  0.32730  1.0000 0.100034937
C   C80       1.0  0.84300  0.36400  0.17270  1.0000 0.100034937
C   C81       1.0  0.74450  0.20010  0.55990  1.0000 0.0811618793
C   C82       1.0  0.20010  0.74450  0.94010  1.0000 0.0811618793
C   C83       1.0  0.25550  0.79990  0.44010  1.0000 0.0811618793
C   C84       1.0  0.79990  0.25550  0.05990  1.0000 0.0811618793
C   C85       1.0  0.81900  0.15920  0.60680  1.0000 -0.2117517326
C   C86       1.0  0.15920  0.81900  0.89320  1.0000 -0.2117517326
C   C87       1.0  0.18100  0.84080  0.39320  1.0000 -0.2117517326
C   C88       1.0  0.84080  0.18100  0.10680  1.0000 -0.2117517326
N   N1        1.0  0.18730  0.43110  0.92560  1.0000 -0.2511101337
N   N2        1.0  0.43110  0.18730  0.57440  1.0000 -0.2511101337
N   N3        1.0  0.81270  0.56890  0.07440  1.0000 -0.2511101337
N   N4        1.0  0.56890  0.81270  0.42560  1.0000 -0.2511101337
N   N5        1.0  0.65490  0.19970  0.59290  1.0000 -0.2511101337
N   N6        1.0  0.19970  0.65490  0.90710  1.0000 -0.2511101337
N   N7        1.0  0.34510  0.80030  0.40710  1.0000 -0.2511101337
N   N8        1.0  0.80030  0.34510  0.09290  1.0000 -0.2511101337
O   O1        1.0  0.39931  0.46175  0.98700  1.0000 -0.8767155405
O   O2        1.0  0.46175  0.39931  0.51300  1.0000 -0.8767155405
O   O3        1.0  0.60069  0.53825  0.01300  1.0000 -0.8767155405
O   O4        1.0  0.53825  0.60069  0.48700  1.0000 -0.8767155405
O   O5        1.0  0.41617  0.65703  0.00950  1.0000 -0.6095550653
O   O6        1.0  0.65703  0.41617  0.49050  1.0000 -0.6095550653
O   O7        1.0  0.58383  0.34297  0.99050  1.0000 -0.6095550653
O   O8        1.0  0.34297  0.58383  0.50950  1.0000 -0.6095550653
O   O9        1.0  0.49120  0.79820  0.06360  1.0000 -0.5332301181
O   O10       1.0  0.79820  0.49120  0.43640  1.0000 -0.5332301181
O   O11       1.0  0.50880  0.20180  0.93640  1.0000 -0.5332301181
O   O12       1.0  0.20180  0.50880  0.56360  1.0000 -0.5332301181
O   O13       1.0  0.35534  0.57548  0.83170  1.0000 -0.5872235444
O   O14       1.0  0.57548  0.35534  0.66830  1.0000 -0.5872235444
O   O15       1.0  0.64466  0.42452  0.16830  1.0000 -0.5872235444
O   O16       1.0  0.42452  0.64466  0.33170  1.0000 -0.5872235444
O   O17       1.0  0.51868  0.59712  0.85120  1.0000 -0.505966067
O   O18       1.0  0.59712  0.51868  0.64880  1.0000 -0.505966067
O   O19       1.0  0.48132  0.40288  0.14880  1.0000 -0.505966067
O   O20       1.0  0.40288  0.48132  0.35120  1.0000 -0.505966067
O   O21       1.0  0.46000  0.64440  0.66950  1.0000 -0.5332301181
O   O22       1.0  0.64440  0.46000  0.83050  1.0000 -0.5332301181
O   O23       1.0  0.54000  0.35560  0.33050  1.0000 -0.5332301181
O   O24       1.0  0.35560  0.54000  0.16950  1.0000 -0.5332301181
O   O25       1.0  0.43818  0.77522  0.58540  1.0000 -0.5872235444
O   O26       1.0  0.77522  0.43818  0.91460  1.0000 -0.5872235444
O   O27       1.0  0.56182  0.22478  0.41460  1.0000 -0.5872235444
O   O28       1.0  0.22478  0.56182  0.08540  1.0000 -0.5872235444
O   O29       1.0  0.54180  0.65420  0.17700  1.0000 -0.6885575649
O   O30       1.0  0.65420  0.54180  0.32300  1.0000 -0.6885575649
O   O31       1.0  0.45820  0.34580  0.82300  1.0000 -0.6885575649
O   O32       1.0  0.34580  0.45820  0.67700  1.0000 -0.6885575649
