# DDEC6 charges by PACMAN v1.1 (https://github.com/mtap-research/PACMAN-charge/)
data_2012[Ni][sqc]3[FSR]1
_chemical_formula_sum              "Ni3 H40 C54 N12 O14"
_cell_length_a       10.047
_cell_length_b       12.658
_cell_length_c       13.494
_cell_angle_alpha    86.56
_cell_angle_beta     108.57
_cell_angle_gamma    107.84

_symmetry_space_group_name_H-M    "P 1"
_symmetry_Int_Tables_number       1

loop_
  _symmetry_equiv_pos_as_xyz
  'x, y, z'

loop_
  _atom_site_type_symbol
  _atom_site_label
  _atom_site_symmetry_multiplicity
  _atom_site_fract_x
  _atom_site_fract_y
  _atom_site_fract_z
  _atom_site_occupancy
  _atom_site_charge
Ni  Ni1       1.0  0.61641  0.92467  0.42128  1.0000 0.7895267855
Ni  Ni2       1.0  0.38359  0.07533  0.57872  1.0000 0.7895267855
Ni  Ni3       1.0  0.00000  0.50000  0.00000  1.0000 0.7951601397
H   H1        1.0  0.91520  0.12390  0.44190  1.0000 0.1240295608
H   H2        1.0  0.08480  0.87610  0.55810  1.0000 0.1240295608
H   H3        1.0  0.51400  0.13700  0.30780  1.0000 0.1302351241
H   H4        1.0  0.48600  0.86300  0.69220  1.0000 0.1302351241
H   H5        1.0  0.67990  0.32460  0.30850  1.0000 0.1302351241
H   H6        1.0  0.32010  0.67540  0.69150  1.0000 0.1302351241
H   H7        1.0  0.05130  0.31450  0.56170  1.0000 0.1302351241
H   H8        1.0  0.94870  0.68550  0.43830  1.0000 0.1302351241
H   H9        1.0  0.94970  0.41220  0.26690  1.0000 0.1380279127
H   H10       1.0  0.05030  0.58780  0.73310  1.0000 0.1380279127
H   H11       1.0  0.33530  0.71770  0.37640  1.0000 0.1126369869
H   H12       1.0  0.66470  0.28230  0.62360  1.0000 0.1126369869
H   H13       1.0  0.70200  0.74040  0.60010  1.0000 0.1302351241
H   H14       1.0  0.29800  0.25960  0.39990  1.0000 0.1302351241
H   H15       1.0  0.52650  0.56280  0.61680  1.0000 0.1302351241
H   H16       1.0  0.47350  0.43720  0.38320  1.0000 0.1302351241
H   H17       1.0  0.27090  0.45900  0.60570  1.0000 0.1302351241
H   H18       1.0  0.72910  0.54100  0.39430  1.0000 0.1302351241
H   H19       1.0  0.17200  0.55300  0.30970  1.0000 0.1302351241
H   H20       1.0  0.82800  0.44700  0.69030  1.0000 0.1302351241
H   H21       1.0  0.29970  0.69400  0.02010  1.0000 0.1126369869
H   H22       1.0  0.70030  0.30600  0.97990  1.0000 0.1126369869
H   H23       1.0  0.90950  0.69820  0.84490  1.0000 0.1302351241
H   H24       1.0  0.09050  0.30180  0.15510  1.0000 0.1302351241
H   H25       1.0  0.07800  0.88320  0.84500  1.0000 0.1380279127
H   H26       1.0  0.92200  0.11680  0.15500  1.0000 0.1380279127
H   H27       1.0  0.44210  0.87520  0.12400  1.0000 0.1470068992
H   H28       1.0  0.55790  0.12480  0.87600  1.0000 0.1470068992
H   H29       1.0  0.34210  0.97830  0.82930  1.0000 0.1380279127
H   H30       1.0  0.65790  0.02170  0.17070  1.0000 0.1380279127
H   H31       1.0  0.07560  0.96900  0.39440  1.0000 0.1240295608
H   H32       1.0  0.92440  0.03100  0.60560  1.0000 0.1240295608
H   H33       1.0  0.75240  0.72670  0.20250  1.0000 0.1302351241
H   H34       1.0  0.24760  0.27330  0.79750  1.0000 0.1302351241
H   H35       1.0  0.17530  0.77270  0.22330  1.0000 0.1126369869
H   H36       1.0  0.82470  0.22730  0.77670  1.0000 0.1126369869
H   H37       1.0  0.77290  0.53500  0.95660  1.0000 0.3476762127
H   H38       1.0  0.22710  0.46500  0.04340  1.0000 0.3476762127
H   H39       1.0  0.72900  0.44410  0.88310  1.0000 0.3476762127
H   H40       1.0  0.27100  0.55590  0.11690  1.0000 0.3476762127
C   C1        1.0  0.83550  0.14980  0.40870  1.0000 0.1027101379
C   C2        1.0  0.16450  0.85020  0.59130  1.0000 0.1027101379
C   C3        1.0  0.61620  0.15780  0.33500  1.0000 -0.019656479
C   C4        1.0  0.38380  0.84220  0.66500  1.0000 -0.019656479
C   C5        1.0  0.70700  0.26210  0.33520  1.0000 -0.1136273343
C   C6        1.0  0.29300  0.73790  0.66480  1.0000 -0.1136273343
C   C7        1.0  0.98200  0.34800  0.40920  1.0000 0.1470068992
C   C8        1.0  0.01800  0.65200  0.59080  1.0000 0.1470068992
C   C9        1.0  0.07600  0.36250  0.51090  1.0000 -0.1492331093
C   C10       1.0  0.92400  0.63750  0.48910  1.0000 -0.1492331093
C   C11       1.0  0.01530  0.42020  0.33460  1.0000 -0.1492331093
C   C12       1.0  0.98470  0.57980  0.66540  1.0000 -0.1492331093
C   C13       1.0  0.40520  0.70160  0.43440  1.0000 0.1126369869
C   C14       1.0  0.59480  0.29840  0.56560  1.0000 0.1126369869
C   C15       1.0  0.60510  0.71340  0.55660  1.0000 -0.019656479
C   C16       1.0  0.39490  0.28660  0.44340  1.0000 -0.019656479
C   C17       1.0  0.50870  0.61490  0.56670  1.0000 -0.1210460041
C   C18       1.0  0.49130  0.38510  0.43330  1.0000 -0.1210460041
C   C19       1.0  0.24300  0.51890  0.46160  1.0000 0.1380279127
C   C20       1.0  0.75700  0.48110  0.53840  1.0000 0.1380279127
C   C21       1.0  0.20730  0.44870  0.53730  1.0000 -0.1698432576
C   C22       1.0  0.79270  0.55130  0.46270  1.0000 -0.1698432576
C   C23       1.0  0.14750  0.50510  0.36050  1.0000 -0.1698432576
C   C24       1.0  0.85250  0.49490  0.63950  1.0000 -0.1698432576
C   C25       1.0  0.22260  0.71770  0.97660  1.0000 0.0888093326
C   C26       1.0  0.77740  0.28230  0.02340  1.0000 0.0888093326
C   C27       1.0  0.01010  0.72050  0.88050  1.0000 -0.0295552045
C   C28       1.0  0.98990  0.27950  0.11950  1.0000 -0.0295552045
C   C29       1.0  0.10250  0.82320  0.88080  1.0000 -0.0949490193
C   C30       1.0  0.89750  0.17680  0.11920  1.0000 -0.0949490193
C   C31       1.0  0.37160  0.91300  0.97180  1.0000 0.1470068992
C   C32       1.0  0.62840  0.08700  0.02820  1.0000 0.1470068992
C   C33       1.0  0.46580  0.92550  0.07450  1.0000 -0.1492331093
C   C34       1.0  0.53420  0.07450  0.92550  1.0000 -0.1492331093
C   C35       1.0  0.40570  0.98730  0.89770  1.0000 -0.1423488308
C   C36       1.0  0.59430  0.01270  0.10230  1.0000 -0.1423488308
C   C37       1.0  0.15080  0.88310  0.31380  1.0000 -0.0295552045
C   C38       1.0  0.84920  0.11690  0.68620  1.0000 -0.0295552045
C   C39       1.0  0.04590  0.91050  0.34590  1.0000 -0.1492331093
C   C40       1.0  0.95410  0.08950  0.65410  1.0000 -0.1423488308
C   C41       1.0  0.89740  0.85080  0.30570  1.0000 -0.019656479
C   C42       1.0  0.10260  0.14920  0.69430  1.0000 -0.019656479
C   C43       1.0  0.85210  0.76440  0.23140  1.0000 -0.1423488308
C   C44       1.0  0.14790  0.23560  0.76860  1.0000 -0.1423488308
C   C45       1.0  0.95500  0.73430  0.20010  1.0000 -0.019656479
C   C46       1.0  0.04500  0.26570  0.79990  1.0000 -0.019656479
C   C47       1.0  0.10550  0.79340  0.24260  1.0000 -0.1492331093
C   C48       1.0  0.89450  0.20660  0.75740  1.0000 -0.1492331093
C   C49       1.0  0.31290  0.94460  0.36380  1.0000 0.5602451813
C   C50       1.0  0.68710  0.05540  0.63620  1.0000 0.5602451813
C   C51       1.0  0.78870  0.87270  0.35030  1.0000 0.5302438986
C   C52       1.0  0.21130  0.12730  0.64970  1.0000 0.5302438986
C   C53       1.0  0.90740  0.63530  0.12610  1.0000 0.5602451813
C   C54       1.0  0.09260  0.36470  0.87390  1.0000 0.5602451813
N   N1        1.0  0.69660  0.08730  0.38070  1.0000 -0.2856870044
N   N2        1.0  0.30340  0.91270  0.61930  1.0000 -0.2856870044
N   N3        1.0  0.84730  0.25650  0.38280  1.0000 -0.0026326695
N   N4        1.0  0.15270  0.74350  0.61720  1.0000 -0.0026326695
N   N5        1.0  0.53990  0.76750  0.47370  1.0000 -0.2486074615
N   N6        1.0  0.46010  0.23250  0.52630  1.0000 -0.2486074615
N   N7        1.0  0.37900  0.60740  0.48750  1.0000 -0.0094304529
N   N8        1.0  0.62100  0.39260  0.51250  1.0000 -0.0094304529
N   N9        1.0  0.08630  0.65360  0.94040  1.0000 -0.272661363
N   N10       1.0  0.91370  0.34640  0.05960  1.0000 -0.272661363
N   N11       1.0  0.23830  0.82250  0.94340  1.0000 0.0090032861
N   N12       1.0  0.76170  0.17750  0.05660  1.0000 0.0090032861
O   O1        1.0  0.40280  0.91060  0.33610  1.0000 -0.5536463011
O   O2        1.0  0.59720  0.08940  0.66390  1.0000 -0.5536463011
O   O3        1.0  0.34790  0.02160  0.42890  1.0000 -0.5402262557
O   O4        1.0  0.65210  0.97840  0.57110  1.0000 -0.5402262557
O   O5        1.0  0.83320  0.91020  0.44350  1.0000 -0.5297304738
O   O6        1.0  0.16680  0.08980  0.55650  1.0000 -0.5297304738
O   O7        1.0  0.65500  0.85290  0.29490  1.0000 -0.5402262557
O   O8        1.0  0.34500  0.14710  0.70510  1.0000 -0.5402262557
O   O9        1.0  0.77170  0.59830  0.07480  1.0000 -0.5651110161
O   O10       1.0  0.22830  0.40170  0.92520  1.0000 -0.563199217
O   O11       1.0  0.00440  0.59600  0.12040  1.0000 -0.563199217
O   O12       1.0  0.99560  0.40400  0.87960  1.0000 -0.563199217
O   O13       1.0  0.79200  0.50550  0.91000  1.0000 -0.6529029954
O   O14       1.0  0.20800  0.49450  0.09000  1.0000 -0.6529029954
