# DDEC6 charges by PACMAN v1.1 (https://github.com/mtap-research/PACMAN-charge/)
data_2012[CrNi][mmo]3[FSR]1
_chemical_formula_sum              "Cr3 Ni3 H60 C72 N12 O12"
_cell_length_a       13.5424
_cell_length_b       13.5424
_cell_length_c       13.5424
_cell_angle_alpha    102.858
_cell_angle_beta     102.858
_cell_angle_gamma    102.858

_symmetry_space_group_name_H-M    "P 1"
_symmetry_Int_Tables_number       1

loop_
  _symmetry_equiv_pos_as_xyz
  'x, y, z'

loop_
  _atom_site_type_symbol
  _atom_site_label
  _atom_site_symmetry_multiplicity
  _atom_site_fract_x
  _atom_site_fract_y
  _atom_site_fract_z
  _atom_site_occupancy
  _atom_site_charge
Cr  Cr1       1.0  0.78970  0.00000  0.21030  1.0000 1.7015138473
Cr  Cr2       1.0  0.00000  0.21030  0.78970  1.0000 1.7015138473
Cr  Cr3       1.0  0.21030  0.78970  0.00000  1.0000 1.7015138473
Ni  Ni1       1.0  0.50000  0.88407  0.11593  1.0000 0.7326730694
Ni  Ni2       1.0  0.88407  0.11593  0.50000  1.0000 0.7326730694
Ni  Ni3       1.0  0.11593  0.50000  0.88407  1.0000 0.7326730694
H   H1        1.0  0.62990  0.88140  0.32450  1.0000 0.1108260396
H   H2        1.0  0.88140  0.32450  0.62990  1.0000 0.1108260396
H   H3        1.0  0.32450  0.62990  0.88140  1.0000 0.1108260396
H   H4        1.0  0.11860  0.37010  0.67550  1.0000 0.1108260396
H   H5        1.0  0.67550  0.11860  0.37010  1.0000 0.1108260396
H   H6        1.0  0.37010  0.67550  0.11860  1.0000 0.1108260396
H   H7        1.0  0.33450  0.88260  0.24190  1.0000 0.1108260396
H   H8        1.0  0.88260  0.24190  0.33450  1.0000 0.1108260396
H   H9        1.0  0.24190  0.33450  0.88260  1.0000 0.1108260396
H   H10       1.0  0.11740  0.66550  0.75810  1.0000 0.1108260396
H   H11       1.0  0.75810  0.11740  0.66550  1.0000 0.1108260396
H   H12       1.0  0.66550  0.75810  0.11740  1.0000 0.1108260396
H   H13       1.0  0.61830  0.85840  0.48450  1.0000 0.1304641198
H   H14       1.0  0.85840  0.48450  0.61830  1.0000 0.1304641198
H   H15       1.0  0.48450  0.61830  0.85840  1.0000 0.1304641198
H   H16       1.0  0.14160  0.38170  0.51550  1.0000 0.1304641198
H   H17       1.0  0.51550  0.14160  0.38170  1.0000 0.1304641198
H   H18       1.0  0.38170  0.51550  0.14160  1.0000 0.1304641198
H   H19       1.0  0.65220  0.85020  0.98140  1.0000 0.1108260396
H   H20       1.0  0.85020  0.98140  0.65220  1.0000 0.1108260396
H   H21       1.0  0.98140  0.65220  0.85020  1.0000 0.1108260396
H   H22       1.0  0.14980  0.34780  0.01860  1.0000 0.1108260396
H   H23       1.0  0.01860  0.14980  0.34780  1.0000 0.1108260396
H   H24       1.0  0.34780  0.01860  0.14980  1.0000 0.1108260396
H   H25       1.0  0.36960  0.88670  0.90710  1.0000 0.118691055
H   H26       1.0  0.88670  0.90710  0.36960  1.0000 0.118691055
H   H27       1.0  0.90710  0.36960  0.88670  1.0000 0.118691055
H   H28       1.0  0.11330  0.63040  0.09290  1.0000 0.118691055
H   H29       1.0  0.09290  0.11330  0.63040  1.0000 0.118691055
H   H30       1.0  0.63040  0.09290  0.11330  1.0000 0.118691055
H   H31       1.0  0.31430  0.86310  0.40100  1.0000 0.1372095923
H   H32       1.0  0.86310  0.40100  0.31430  1.0000 0.1372095923
H   H33       1.0  0.40100  0.31430  0.86310  1.0000 0.1372095923
H   H34       1.0  0.13690  0.68570  0.59900  1.0000 0.1372095923
H   H35       1.0  0.59900  0.13690  0.68570  1.0000 0.1372095923
H   H36       1.0  0.68570  0.59900  0.13690  1.0000 0.1372095923
H   H37       1.0  0.37180  0.87340  0.73580  1.0000 0.1304641198
H   H38       1.0  0.87340  0.73580  0.37180  1.0000 0.1304641198
H   H39       1.0  0.73580  0.37180  0.87340  1.0000 0.1304641198
H   H40       1.0  0.12660  0.62820  0.26420  1.0000 0.1304641198
H   H41       1.0  0.26420  0.12660  0.62820  1.0000 0.1304641198
H   H42       1.0  0.62820  0.26420  0.12660  1.0000 0.1304641198
H   H43       1.0  0.59340  0.84960  0.63520  1.0000 0.118691055
H   H44       1.0  0.84960  0.63520  0.59340  1.0000 0.118691055
H   H45       1.0  0.63520  0.59340  0.84960  1.0000 0.118691055
H   H46       1.0  0.15040  0.40660  0.36480  1.0000 0.118691055
H   H47       1.0  0.36480  0.15040  0.40660  1.0000 0.118691055
H   H48       1.0  0.40660  0.36480  0.15040  1.0000 0.118691055
H   H49       1.0  0.66230  0.83520  0.81200  1.0000 0.1372095923
H   H50       1.0  0.83520  0.81200  0.66230  1.0000 0.1372095923
H   H51       1.0  0.81200  0.66230  0.83520  1.0000 0.1372095923
H   H52       1.0  0.16480  0.33770  0.18800  1.0000 0.1372095923
H   H53       1.0  0.18800  0.16480  0.33770  1.0000 0.1372095923
H   H54       1.0  0.33770  0.18800  0.16480  1.0000 0.1372095923
H   H55       1.0  0.38610  0.85050  0.57730  1.0000 0.118691055
H   H56       1.0  0.85050  0.57730  0.38610  1.0000 0.118691055
H   H57       1.0  0.57730  0.38610  0.85050  1.0000 0.118691055
H   H58       1.0  0.14950  0.61390  0.42270  1.0000 0.118691055
H   H59       1.0  0.42270  0.14950  0.61390  1.0000 0.118691055
H   H60       1.0  0.61390  0.42270  0.14950  1.0000 0.118691055
C   C1        1.0  0.56545  0.87790  0.34076  1.0000 0.08891633
C   C2        1.0  0.87790  0.34076  0.56545  1.0000 0.08891633
C   C3        1.0  0.34076  0.56545  0.87790  1.0000 0.08891633
C   C4        1.0  0.12210  0.43455  0.65924  1.0000 0.08891633
C   C5        1.0  0.65924  0.12210  0.43455  1.0000 0.08891633
C   C6        1.0  0.43455  0.65924  0.12210  1.0000 0.08891633
C   C7        1.0  0.39282  0.87906  0.29236  1.0000 0.0839713519
C   C8        1.0  0.87906  0.29236  0.39282  1.0000 0.0839713519
C   C9        1.0  0.29236  0.39282  0.87906  1.0000 0.0839713519
C   C10       1.0  0.12094  0.60718  0.70764  1.0000 0.0839713519
C   C11       1.0  0.70764  0.12094  0.60718  1.0000 0.0839713519
C   C12       1.0  0.60718  0.70764  0.12094  1.0000 0.0839713519
C   C13       1.0  0.55945  0.86473  0.43691  1.0000 -0.200881714
C   C14       1.0  0.86473  0.43691  0.55945  1.0000 -0.200881714
C   C15       1.0  0.43691  0.55945  0.86473  1.0000 -0.200881714
C   C16       1.0  0.13527  0.44055  0.56309  1.0000 -0.200881714
C   C17       1.0  0.56309  0.13527  0.44055  1.0000 -0.200881714
C   C18       1.0  0.44055  0.56309  0.13527  1.0000 -0.200881714
C   C19       1.0  0.59468  0.85520  0.93102  1.0000 0.08891633
C   C20       1.0  0.85520  0.93102  0.59468  1.0000 0.08891633
C   C21       1.0  0.93102  0.59468  0.85520  1.0000 0.08891633
C   C22       1.0  0.14480  0.40532  0.06898  1.0000 0.08891633
C   C23       1.0  0.06898  0.14480  0.40532  1.0000 0.08891633
C   C24       1.0  0.40532  0.06898  0.14480  1.0000 0.08891633
C   C25       1.0  0.42976  0.87650  0.88744  1.0000 0.08891633
C   C26       1.0  0.87650  0.88744  0.42976  1.0000 0.08891633
C   C27       1.0  0.88744  0.42976  0.87650  1.0000 0.08891633
C   C28       1.0  0.12350  0.57024  0.11256  1.0000 0.08891633
C   C29       1.0  0.11256  0.12350  0.57024  1.0000 0.08891633
C   C30       1.0  0.57024  0.11256  0.12350  1.0000 0.08891633
C   C31       1.0  0.51880  0.85540  0.75350  1.0000 0.1602598335
C   C32       1.0  0.85540  0.75350  0.51880  1.0000 0.1602598335
C   C33       1.0  0.75350  0.51880  0.85540  1.0000 0.1602598335
C   C34       1.0  0.14460  0.48120  0.24650  1.0000 0.1602598335
C   C35       1.0  0.24650  0.14460  0.48120  1.0000 0.1602598335
C   C36       1.0  0.48120  0.24650  0.14460  1.0000 0.1602598335
C   C37       1.0  0.46487  0.86080  0.46372  1.0000 0.1657533055
C   C38       1.0  0.86080  0.46372  0.46487  1.0000 0.1657533055
C   C39       1.0  0.46372  0.46487  0.86080  1.0000 0.1657533055
C   C40       1.0  0.13920  0.53513  0.53628  1.0000 0.1657533055
C   C41       1.0  0.53628  0.13920  0.53513  1.0000 0.1657533055
C   C42       1.0  0.53513  0.53628  0.13920  1.0000 0.1657533055
C   C43       1.0  0.38010  0.86700  0.38740  1.0000 -0.2128120382
C   C44       1.0  0.86700  0.38740  0.38010  1.0000 -0.2128120382
C   C45       1.0  0.38740  0.38010  0.86700  1.0000 -0.2128120382
C   C46       1.0  0.13300  0.61990  0.61260  1.0000 -0.2128120382
C   C47       1.0  0.61260  0.13300  0.61990  1.0000 -0.2128120382
C   C48       1.0  0.61990  0.61260  0.13300  1.0000 -0.2128120382
C   C49       1.0  0.43080  0.86920  0.78480  1.0000 -0.200881714
C   C50       1.0  0.86920  0.78480  0.43080  1.0000 -0.200881714
C   C51       1.0  0.78480  0.43080  0.86920  1.0000 -0.200881714
C   C52       1.0  0.13080  0.56920  0.21520  1.0000 -0.200881714
C   C53       1.0  0.21520  0.13080  0.56920  1.0000 -0.200881714
C   C54       1.0  0.56920  0.21520  0.13080  1.0000 -0.200881714
C   C55       1.0  0.52810  0.85270  0.64730  1.0000 -0.1413721089
C   C56       1.0  0.85270  0.64730  0.52810  1.0000 -0.1413721089
C   C57       1.0  0.64730  0.52810  0.85270  1.0000 -0.1413721089
C   C58       1.0  0.14730  0.47190  0.35270  1.0000 -0.1413721089
C   C59       1.0  0.35270  0.14730  0.47190  1.0000 -0.1413721089
C   C60       1.0  0.47190  0.35270  0.14730  1.0000 -0.1413721089
C   C61       1.0  0.60160  0.84680  0.82960  1.0000 -0.2128120382
C   C62       1.0  0.84680  0.82960  0.60160  1.0000 -0.2128120382
C   C63       1.0  0.82960  0.60160  0.84680  1.0000 -0.2128120382
C   C64       1.0  0.15320  0.39840  0.17040  1.0000 -0.2128120382
C   C65       1.0  0.17040  0.15320  0.39840  1.0000 -0.2128120382
C   C66       1.0  0.39840  0.17040  0.15320  1.0000 -0.2128120382
C   C67       1.0  0.45317  0.85410  0.56723  1.0000 -0.1492730324
C   C68       1.0  0.85410  0.56723  0.45317  1.0000 -0.1492730324
C   C69       1.0  0.56723  0.45317  0.85410  1.0000 -0.1492730324
C   C70       1.0  0.14590  0.54683  0.43277  1.0000 -0.1492730324
C   C71       1.0  0.43277  0.14590  0.54683  1.0000 -0.1492730324
C   C72       1.0  0.54683  0.43277  0.14590  1.0000 -0.1492730324
N   N1        1.0  0.48427  0.88594  0.26852  1.0000 -0.2128120382
N   N2        1.0  0.88594  0.26852  0.48427  1.0000 -0.2128120382
N   N3        1.0  0.26852  0.48427  0.88594  1.0000 -0.2128120382
N   N4        1.0  0.11406  0.51573  0.73148  1.0000 -0.2128120382
N   N5        1.0  0.73148  0.11406  0.51573  1.0000 -0.2128120382
N   N6        1.0  0.51573  0.73148  0.11406  1.0000 -0.2128120382
N   N7        1.0  0.51091  0.86998  0.96098  1.0000 -0.200881714
N   N8        1.0  0.86998  0.96098  0.51091  1.0000 -0.200881714
N   N9        1.0  0.96098  0.51091  0.86998  1.0000 -0.200881714
N   N10       1.0  0.13002  0.48909  0.03902  1.0000 -0.200881714
N   N11       1.0  0.03902  0.13002  0.48909  1.0000 -0.200881714
N   N12       1.0  0.48909  0.03902  0.13002  1.0000 -0.200881714
O   O1        1.0  0.66098  0.94282  0.17230  1.0000 -0.8279103234
O   O2        1.0  0.94282  0.17230  0.66098  1.0000 -0.8279103234
O   O3        1.0  0.17230  0.66098  0.94282  1.0000 -0.8279103234
O   O4        1.0  0.05718  0.33902  0.82770  1.0000 -0.8279103234
O   O5        1.0  0.82770  0.05718  0.33902  1.0000 -0.8279103234
O   O6        1.0  0.33902  0.82770  0.05718  1.0000 -0.8279103234
O   O7        1.0  0.85068  0.91013  0.18188  1.0000 -0.758088926
O   O8        1.0  0.91013  0.18188  0.85068  1.0000 -0.758088926
O   O9        1.0  0.18188  0.85068  0.91013  1.0000 -0.758088926
O   O10       1.0  0.08987  0.14932  0.81812  1.0000 -0.758088926
O   O11       1.0  0.81812  0.08987  0.14932  1.0000 -0.758088926
O   O12       1.0  0.14932  0.81812  0.08987  1.0000 -0.758088926
