# DDEC6 charges by PACMAN v1.1 (https://github.com/mtap-research/PACMAN-charge/)
data_2012[LaCu][stp]3[FSR]1
_chemical_formula_sum              "La2 Cu3 H54 C36 N6 O24"
_cell_length_a       13.6224
_cell_length_b       13.6224
_cell_length_c       7.4935
_cell_angle_alpha    90
_cell_angle_beta     90
_cell_angle_gamma    120

_symmetry_space_group_name_H-M    "P 1"
_symmetry_Int_Tables_number       1

loop_
  _symmetry_equiv_pos_as_xyz
  'x, y, z'

loop_
  _atom_site_type_symbol
  _atom_site_label
  _atom_site_symmetry_multiplicity
  _atom_site_fract_x
  _atom_site_fract_y
  _atom_site_fract_z
  _atom_site_occupancy
  _atom_site_charge
La  La1       1.0  0.66667  0.33333  0.65898  1.0000 1.8632729572
La  La2       1.0  0.33333  0.66667  0.34102  1.0000 1.8632729572
Cu  Cu1       1.0  0.00000  0.50000  0.00000  1.0000 0.7424956284
Cu  Cu2       1.0  0.50000  0.50000  0.00000  1.0000 0.7424956284
Cu  Cu3       1.0  0.50000  0.00000  0.00000  1.0000 0.7424956284
H   H1        1.0  0.03190  0.67690  0.13990  1.0000 0.2512860817
H   H2        1.0  0.32310  0.35500  0.13990  1.0000 0.2512860817
H   H3        1.0  0.64500  0.96810  0.13990  1.0000 0.2512860817
H   H4        1.0  0.96810  0.32310  0.86010  1.0000 0.2512860817
H   H5        1.0  0.67690  0.64500  0.86010  1.0000 0.2512860817
H   H6        1.0  0.35500  0.03190  0.86010  1.0000 0.2512860817
H   H7        1.0  0.85770  0.66060  0.04690  1.0000 0.1142735404
H   H8        1.0  0.33940  0.19710  0.04690  1.0000 0.1142735404
H   H9        1.0  0.80290  0.14230  0.04690  1.0000 0.1142735404
H   H10       1.0  0.14230  0.33940  0.95310  1.0000 0.1142735404
H   H11       1.0  0.66060  0.80290  0.95310  1.0000 0.1142735404
H   H12       1.0  0.19710  0.85770  0.95310  1.0000 0.1142735404
H   H13       1.0  0.81690  0.54810  0.23160  1.0000 0.1142735404
H   H14       1.0  0.45190  0.26880  0.23160  1.0000 0.1142735404
H   H15       1.0  0.73120  0.18310  0.23160  1.0000 0.1142735404
H   H16       1.0  0.18310  0.45190  0.76840  1.0000 0.1142735404
H   H17       1.0  0.54810  0.73120  0.76840  1.0000 0.1142735404
H   H18       1.0  0.26880  0.81690  0.76840  1.0000 0.1142735404
H   H19       1.0  0.93450  0.72190  0.35860  1.0000 0.1267674381
H   H20       1.0  0.27810  0.21260  0.35860  1.0000 0.1267674381
H   H21       1.0  0.78740  0.06550  0.35860  1.0000 0.1267674381
H   H22       1.0  0.06550  0.27810  0.64140  1.0000 0.1267674381
H   H23       1.0  0.72190  0.78740  0.64140  1.0000 0.1267674381
H   H24       1.0  0.21260  0.93450  0.64140  1.0000 0.1267674381
H   H25       1.0  0.00250  0.67050  0.45890  1.0000 0.1583213058
H   H26       1.0  0.32950  0.33200  0.45890  1.0000 0.1583213058
H   H27       1.0  0.66800  0.99750  0.45890  1.0000 0.1583213058
H   H28       1.0  0.99750  0.32950  0.54110  1.0000 0.1583213058
H   H29       1.0  0.67050  0.66800  0.54110  1.0000 0.1583213058
H   H30       1.0  0.33200  0.00250  0.54110  1.0000 0.1583213058
H   H31       1.0  0.87200  0.62460  0.50530  1.0000 0.1431987656
H   H32       1.0  0.37540  0.24740  0.50530  1.0000 0.1431987656
H   H33       1.0  0.75260  0.12800  0.50530  1.0000 0.1431987656
H   H34       1.0  0.12800  0.37540  0.49470  1.0000 0.1431987656
H   H35       1.0  0.62460  0.75260  0.49470  1.0000 0.1431987656
H   H36       1.0  0.24740  0.87200  0.49470  1.0000 0.1431987656
H   H37       1.0  0.01010  0.79800  0.98100  1.0000 0.1267674381
H   H38       1.0  0.20200  0.21210  0.98100  1.0000 0.1267674381
H   H39       1.0  0.78790  0.98990  0.98100  1.0000 0.1267674381
H   H40       1.0  0.98990  0.20200  0.01900  1.0000 0.1267674381
H   H41       1.0  0.79800  0.78790  0.01900  1.0000 0.1267674381
H   H42       1.0  0.21210  0.01010  0.01900  1.0000 0.1267674381
H   H43       1.0  0.89940  0.76120  0.86240  1.0000 0.1267674381
H   H44       1.0  0.23880  0.13820  0.86240  1.0000 0.1267674381
H   H45       1.0  0.86180  0.10060  0.86240  1.0000 0.1267674381
H   H46       1.0  0.10060  0.23880  0.13760  1.0000 0.1267674381
H   H47       1.0  0.76120  0.86180  0.13760  1.0000 0.1267674381
H   H48       1.0  0.13820  0.89940  0.13760  1.0000 0.1267674381
H   H49       1.0  0.99720  0.73890  0.79110  1.0000 0.1583213058
H   H50       1.0  0.26110  0.25830  0.79110  1.0000 0.1583213058
H   H51       1.0  0.74170  0.00280  0.79110  1.0000 0.1583213058
H   H52       1.0  0.00280  0.26110  0.20890  1.0000 0.1583213058
H   H53       1.0  0.73890  0.74170  0.20890  1.0000 0.1583213058
H   H54       1.0  0.25830  0.99720  0.20890  1.0000 0.1583213058
C   C1        1.0  0.82258  0.54659  0.86350  1.0000 0.5594610495
C   C2        1.0  0.45341  0.27599  0.86350  1.0000 0.5594610495
C   C3        1.0  0.72401  0.17742  0.86350  1.0000 0.5594610495
C   C4        1.0  0.17742  0.45341  0.13650  1.0000 0.5594610495
C   C5        1.0  0.54659  0.72401  0.13650  1.0000 0.5594610495
C   C6        1.0  0.27599  0.82258  0.13650  1.0000 0.5594610495
C   C7        1.0  0.91070  0.64980  0.96790  1.0000 0.0022632291
C   C8        1.0  0.35020  0.26090  0.96790  1.0000 0.0022632291
C   C9        1.0  0.73910  0.08930  0.96790  1.0000 0.0022632291
C   C10       1.0  0.08930  0.35020  0.03210  1.0000 0.0022632291
C   C11       1.0  0.64980  0.73910  0.03210  1.0000 0.0022632291
C   C12       1.0  0.26090  0.91070  0.03210  1.0000 0.0022632291
C   C13       1.0  0.89440  0.56480  0.26780  1.0000 0.0068014738
C   C14       1.0  0.43520  0.32960  0.26780  1.0000 0.0068014738
C   C15       1.0  0.67040  0.10560  0.26780  1.0000 0.0068014738
C   C16       1.0  0.10560  0.43520  0.73220  1.0000 0.0068014738
C   C17       1.0  0.56480  0.67040  0.73220  1.0000 0.0068014738
C   C18       1.0  0.32960  0.89440  0.73220  1.0000 0.0068014738
C   C19       1.0  0.87964  0.44980  0.31290  1.0000 0.5971508545
C   C20       1.0  0.55020  0.42984  0.31290  1.0000 0.5971508545
C   C21       1.0  0.57016  0.12036  0.31290  1.0000 0.5971508545
C   C22       1.0  0.12036  0.55020  0.68710  1.0000 0.5971508545
C   C23       1.0  0.44980  0.57016  0.68710  1.0000 0.5971508545
C   C24       1.0  0.42984  0.87964  0.68710  1.0000 0.5971508545
C   C25       1.0  0.92880  0.65300  0.40990  1.0000 -0.4584753739
C   C26       1.0  0.34700  0.27580  0.40990  1.0000 -0.4584753739
C   C27       1.0  0.72420  0.07120  0.40990  1.0000 -0.4584753739
C   C28       1.0  0.07120  0.34700  0.59010  1.0000 -0.4584753739
C   C29       1.0  0.65300  0.72420  0.59010  1.0000 -0.4584753739
C   C30       1.0  0.27580  0.92880  0.59010  1.0000 -0.4584753739
C   C31       1.0  0.95650  0.74120  0.89740  1.0000 -0.3726637441
C   C32       1.0  0.25880  0.21530  0.89740  1.0000 -0.3726637441
C   C33       1.0  0.78470  0.04350  0.89740  1.0000 -0.3726637441
C   C34       1.0  0.04350  0.25880  0.10260  1.0000 -0.3726637441
C   C35       1.0  0.74120  0.78470  0.10260  1.0000 -0.3726637441
C   C36       1.0  0.21530  0.95650  0.10260  1.0000 -0.3726637441
N   N1        1.0  0.96406  0.61369  0.10590  1.0000 -0.3776371408
N   N2        1.0  0.38631  0.35037  0.10590  1.0000 -0.3776371408
N   N3        1.0  0.64963  0.03594  0.10590  1.0000 -0.3776371408
N   N4        1.0  0.03594  0.38631  0.89410  1.0000 -0.3776371408
N   N5        1.0  0.61369  0.64963  0.89410  1.0000 -0.3776371408
N   N6        1.0  0.35037  0.96406  0.89410  1.0000 -0.3776371408
O   O1        1.0  0.75848  0.55783  0.75810  1.0000 -0.5544491487
O   O2        1.0  0.44217  0.20065  0.75810  1.0000 -0.5544491487
O   O3        1.0  0.79935  0.24152  0.75810  1.0000 -0.5544491487
O   O4        1.0  0.24152  0.44217  0.24190  1.0000 -0.5544491487
O   O5        1.0  0.55783  0.79935  0.24190  1.0000 -0.5544491487
O   O6        1.0  0.20065  0.75848  0.24190  1.0000 -0.5544491487
O   O7        1.0  0.82035  0.45368  0.88270  1.0000 -0.6000326502
O   O8        1.0  0.54632  0.36667  0.88270  1.0000 -0.6000326502
O   O9        1.0  0.63333  0.17965  0.88270  1.0000 -0.6000326502
O   O10       1.0  0.17965  0.54632  0.11730  1.0000 -0.6000326502
O   O11       1.0  0.45368  0.63333  0.11730  1.0000 -0.6000326502
O   O12       1.0  0.36667  0.82035  0.11730  1.0000 -0.6000326502
O   O13       1.0  0.92318  0.40795  0.21140  1.0000 -0.5147015529
O   O14       1.0  0.59205  0.51523  0.21140  1.0000 -0.5147015529
O   O15       1.0  0.48477  0.07682  0.21140  1.0000 -0.5147015529
O   O16       1.0  0.07682  0.59205  0.78860  1.0000 -0.5147015529
O   O17       1.0  0.40795  0.48477  0.78860  1.0000 -0.5147015529
O   O18       1.0  0.51523  0.92318  0.78860  1.0000 -0.5147015529
O   O19       1.0  0.82233  0.40055  0.44810  1.0000 -0.6000326502
O   O20       1.0  0.59945  0.42178  0.44810  1.0000 -0.6000326502
O   O21       1.0  0.57822  0.17767  0.44810  1.0000 -0.6000326502
O   O22       1.0  0.17767  0.59945  0.55190  1.0000 -0.6000326502
O   O23       1.0  0.40055  0.57822  0.55190  1.0000 -0.6000326502
O   O24       1.0  0.42178  0.82233  0.55190  1.0000 -0.6000326502
