# DDEC6 charges by PACMAN v1.1 (https://github.com/mtap-research/PACMAN-charge/)
data_2012[Cu][tfw]3[FSR]1
_chemical_formula_sum              "Cu4 H28 C34 N20 O8"
_cell_length_a       13.8735
_cell_length_b       13.8735
_cell_length_c       9.2553
_cell_angle_alpha    78.2425
_cell_angle_beta     101.757
_cell_angle_gamma    140.599

_symmetry_space_group_name_H-M    "P 1"
_symmetry_Int_Tables_number       1

loop_
  _symmetry_equiv_pos_as_xyz
  'x, y, z'

loop_
  _atom_site_type_symbol
  _atom_site_label
  _atom_site_symmetry_multiplicity
  _atom_site_fract_x
  _atom_site_fract_y
  _atom_site_fract_z
  _atom_site_occupancy
  _atom_site_charge
Cu  Cu1       1.0  0.63570  0.02030  0.46140  1.0000 0.6182074248
Cu  Cu2       1.0  0.02030  0.63570  0.03860  1.0000 0.6182074248
Cu  Cu3       1.0  0.36430  0.97970  0.53860  1.0000 0.6182074248
Cu  Cu4       1.0  0.97970  0.36430  0.96140  1.0000 0.6182074248
H   H1        1.0  0.75009  0.93081  0.67666  1.0000 0.1154789253
H   H2        1.0  0.93081  0.75009  0.82334  1.0000 0.1154789253
H   H3        1.0  0.24991  0.06919  0.32334  1.0000 0.1154789253
H   H4        1.0  0.06919  0.24991  0.17666  1.0000 0.1154789253
H   H5        1.0  0.67446  0.72310  0.81816  1.0000 0.1277290954
H   H6        1.0  0.72310  0.67446  0.68184  1.0000 0.1277290954
H   H7        1.0  0.32554  0.27690  0.18184  1.0000 0.1277290954
H   H8        1.0  0.27690  0.32554  0.31816  1.0000 0.1277290954
H   H9        1.0  0.23370  0.46746  0.68208  1.0000 0.1460808216
H   H10       1.0  0.46746  0.23370  0.81792  1.0000 0.1460808216
H   H11       1.0  0.76630  0.53254  0.31792  1.0000 0.1460808216
H   H12       1.0  0.53254  0.76630  0.18208  1.0000 0.1460808216
H   H13       1.0  0.32402  0.68382  0.54495  1.0000 0.1025379876
H   H14       1.0  0.68382  0.32402  0.95505  1.0000 0.1025379876
H   H15       1.0  0.67598  0.31618  0.45505  1.0000 0.1025379876
H   H16       1.0  0.31618  0.67598  0.04495  1.0000 0.1025379876
H   H17       1.0  0.47260  0.46518  0.91094  1.0000 0.1025379876
H   H18       1.0  0.46518  0.47260  0.58906  1.0000 0.1025379876
H   H19       1.0  0.52740  0.53482  0.08906  1.0000 0.1025379876
H   H20       1.0  0.53482  0.52740  0.41094  1.0000 0.1025379876
H   H21       1.0  0.31678  0.39326  0.91535  1.0000 0.1277290954
H   H22       1.0  0.39326  0.31678  0.58465  1.0000 0.1277290954
H   H23       1.0  0.68322  0.60674  0.08465  1.0000 0.1277290954
H   H24       1.0  0.60674  0.68322  0.41535  1.0000 0.1277290954
H   H25       1.0  0.21811  0.26485  0.69099  1.0000 0.1092526818
H   H26       1.0  0.26485  0.21811  0.80901  1.0000 0.1092526818
H   H27       1.0  0.78189  0.73515  0.30901  1.0000 0.1092526818
H   H28       1.0  0.73515  0.78189  0.19099  1.0000 0.1092526818
C   C1        1.0  0.95520  0.25680  0.73040  1.0000 0.5168648957
C   C2        1.0  0.25680  0.95520  0.76960  1.0000 0.5168648957
C   C3        1.0  0.04480  0.74320  0.26960  1.0000 0.5168648957
C   C4        1.0  0.74320  0.04480  0.23040  1.0000 0.5168648957
C   C5        1.0  0.81050  0.20250  0.72500  1.0000 0.1377722173
C   C6        1.0  0.20250  0.81050  0.77500  1.0000 0.1377722173
C   C7        1.0  0.18950  0.79750  0.27500  1.0000 0.1377722173
C   C8        1.0  0.79750  0.18950  0.22500  1.0000 0.1377722173
C   C9        1.0  0.64320  0.83460  0.67810  1.0000 0.0816490649
C   C10       1.0  0.83460  0.64320  0.82190  1.0000 0.0816490649
C   C11       1.0  0.35680  0.16540  0.32190  1.0000 0.0816490649
C   C12       1.0  0.16540  0.35680  0.17810  1.0000 0.0816490649
C   C13       1.0  0.60040  0.71240  0.76280  1.0000 -0.2120157258
C   C14       1.0  0.71240  0.60040  0.73720  1.0000 -0.2120157258
C   C15       1.0  0.39960  0.28760  0.23720  1.0000 -0.2120157258
C   C16       1.0  0.28760  0.39960  0.26280  1.0000 -0.2120157258
C   C17       1.0  0.44530  0.57390  0.76370  1.0000 0.1781258992
C   C18       1.0  0.57390  0.44530  0.73630  1.0000 0.1781258992
C   C19       1.0  0.55470  0.42610  0.23630  1.0000 0.1781258992
C   C20       1.0  0.42610  0.55470  0.26370  1.0000 0.1781258992
C   C21       1.0  0.34110  0.56250  0.68260  1.0000 -0.1829398127
C   C22       1.0  0.56250  0.34110  0.81740  1.0000 -0.1829398127
C   C23       1.0  0.65890  0.43750  0.31740  1.0000 -0.1829398127
C   C24       1.0  0.43750  0.65890  0.18260  1.0000 -0.1829398127
C   C25       1.0  0.39590  0.69170  0.60120  1.0000 0.0932378395
C   C26       1.0  0.69170  0.39590  0.89880  1.0000 0.0932378395
C   C27       1.0  0.60410  0.30830  0.39880  1.0000 0.0932378395
C   C28       1.0  0.30830  0.60410  0.10120  1.0000 0.0932378395
C   C29       1.0  0.39000  0.43600  0.85313  1.0000 -0.2616332398
C   C30       1.0  0.43600  0.39000  0.64687  1.0000 -0.2616332398
C   C31       1.0  0.61000  0.56400  0.14687  1.0000 -0.2616332398
C   C32       1.0  0.56400  0.61000  0.35313  1.0000 -0.2616332398
C   C33       1.0  0.32000  0.32000  0.75000  1.0000 -0.1196962559
C   C34       1.0  0.68000  0.68000  0.25000  1.0000 -0.1196962559
N   N1        1.0  0.79560  0.24640  0.82420  1.0000 -0.2120157258
N   N2        1.0  0.24640  0.79560  0.67580  1.0000 -0.2120157258
N   N3        1.0  0.20440  0.75360  0.17580  1.0000 -0.2120157258
N   N4        1.0  0.75360  0.20440  0.32420  1.0000 -0.2120157258
N   N5        1.0  0.65730  0.18270  0.79360  1.0000 -0.0338186371
N   N6        1.0  0.18270  0.65730  0.70640  1.0000 -0.0338186371
N   N7        1.0  0.34270  0.81730  0.20640  1.0000 -0.0338186371
N   N8        1.0  0.81730  0.34270  0.29360  1.0000 -0.0338186371
N   N9        1.0  0.59210  0.10190  0.67720  1.0000 -0.0959553124
N   N10       1.0  0.10190  0.59210  0.82280  1.0000 -0.0959553124
N   N11       1.0  0.40790  0.89810  0.32280  1.0000 -0.0959553124
N   N12       1.0  0.89810  0.40790  0.17720  1.0000 -0.0959553124
N   N13       1.0  0.68650  0.11350  0.63400  1.0000 -0.1955420227
N   N14       1.0  0.11350  0.68650  0.86600  1.0000 -0.1955420227
N   N15       1.0  0.31350  0.88650  0.36600  1.0000 -0.1955420227
N   N16       1.0  0.88650  0.31350  0.13400  1.0000 -0.1955420227
N   N17       1.0  0.54540  0.82740  0.59800  1.0000 -0.2185325028
N   N18       1.0  0.82740  0.54540  0.90200  1.0000 -0.2185325028
N   N19       1.0  0.45460  0.17260  0.40200  1.0000 -0.2185325028
N   N20       1.0  0.17260  0.45460  0.09800  1.0000 -0.2185325028
O   O1        1.0  0.97780  0.22820  0.63360  1.0000 -0.5087315143
O   O2        1.0  0.22820  0.97780  0.86640  1.0000 -0.5087315143
O   O3        1.0  0.02220  0.77180  0.36640  1.0000 -0.5087315143
O   O4        1.0  0.77180  0.02220  0.13360  1.0000 -0.5087315143
O   O5        1.0  0.04050  0.32950  0.84500  1.0000 -0.4761713148
O   O6        1.0  0.32950  0.04050  0.65500  1.0000 -0.4761713148
O   O7        1.0  0.95950  0.67050  0.15500  1.0000 -0.4761713148
O   O8        1.0  0.67050  0.95950  0.34500  1.0000 -0.4761713148
