# DDEC6 charges by PACMAN v1.1 (https://github.com/mtap-research/PACMAN-charge/)
data_2012[Zn][sod]3[FSR]5
_chemical_formula_sum              "Zn6 H60 C48 N24"
_cell_length_a       14.8295
_cell_length_b       14.8295
_cell_length_c       14.8295
_cell_angle_alpha    109.471
_cell_angle_beta     109.471
_cell_angle_gamma    109.471

_symmetry_space_group_name_H-M    "P 1"
_symmetry_Int_Tables_number       1

loop_
  _symmetry_equiv_pos_as_xyz
  'x, y, z'

loop_
  _atom_site_type_symbol
  _atom_site_label
  _atom_site_symmetry_multiplicity
  _atom_site_fract_x
  _atom_site_fract_y
  _atom_site_fract_z
  _atom_site_occupancy
  _atom_site_charge
Zn  Zn1       1.0  0.25000  0.50000  0.75000  1.0000 0.6567265357
Zn  Zn2       1.0  0.75000  0.50000  0.25000  1.0000 0.6567265357
Zn  Zn3       1.0  0.75000  0.25000  0.50000  1.0000 0.6567265357
Zn  Zn4       1.0  0.25000  0.75000  0.50000  1.0000 0.6567265357
Zn  Zn5       1.0  0.50000  0.75000  0.25000  1.0000 0.6567265357
Zn  Zn6       1.0  0.50000  0.25000  0.75000  1.0000 0.6567265357
H   H1        1.0  0.10180  0.56490  0.84510  1.0000 0.1158800401
H   H2        1.0  0.71980  0.25670  0.15490  1.0000 0.1158800401
H   H3        1.0  0.28020  0.43510  0.53690  1.0000 0.1158800401
H   H4        1.0  0.89820  0.74330  0.46310  1.0000 0.1158800401
H   H5        1.0  0.84510  0.10180  0.56490  1.0000 0.1158800401
H   H6        1.0  0.15490  0.71980  0.25670  1.0000 0.1158800401
H   H7        1.0  0.53690  0.28020  0.43510  1.0000 0.1158800401
H   H8        1.0  0.46310  0.89820  0.74330  1.0000 0.1158800401
H   H9        1.0  0.56490  0.84510  0.10180  1.0000 0.1158800401
H   H10       1.0  0.25670  0.15490  0.71980  1.0000 0.1158800401
H   H11       1.0  0.43510  0.53690  0.28020  1.0000 0.1158800401
H   H12       1.0  0.74330  0.46310  0.89820  1.0000 0.1158800401
H   H13       1.0  0.56490  0.10180  0.84510  1.0000 0.1158800401
H   H14       1.0  0.25670  0.71980  0.15490  1.0000 0.1158800401
H   H15       1.0  0.43510  0.28020  0.53690  1.0000 0.1158800401
H   H16       1.0  0.74330  0.89820  0.46310  1.0000 0.1158800401
H   H17       1.0  0.10180  0.84510  0.56490  1.0000 0.1158800401
H   H18       1.0  0.71980  0.15490  0.25670  1.0000 0.1158800401
H   H19       1.0  0.28020  0.53690  0.43510  1.0000 0.1158800401
H   H20       1.0  0.89820  0.46310  0.74330  1.0000 0.1158800401
H   H21       1.0  0.84510  0.56490  0.10180  1.0000 0.1158800401
H   H22       1.0  0.15490  0.25670  0.71980  1.0000 0.1158800401
H   H23       1.0  0.53690  0.43510  0.28020  1.0000 0.1158800401
H   H24       1.0  0.46310  0.74330  0.89820  1.0000 0.1158800401
H   H25       1.0  0.00000  0.21520  0.54080  1.0000 0.1503486549
H   H26       1.0  0.67440  0.45920  0.45920  1.0000 0.1503486549
H   H27       1.0  0.32560  0.78480  0.78480  1.0000 0.1503486549
H   H28       1.0  0.00000  0.54080  0.21520  1.0000 0.1503486549
H   H29       1.0  0.54080  0.00000  0.21520  1.0000 0.1503486549
H   H30       1.0  0.45920  0.67440  0.45920  1.0000 0.1503486549
H   H31       1.0  0.78480  0.32560  0.78480  1.0000 0.1503486549
H   H32       1.0  0.21520  0.00000  0.54080  1.0000 0.1503486549
H   H33       1.0  0.21520  0.54080  0.00000  1.0000 0.1503486549
H   H34       1.0  0.45920  0.45920  0.67440  1.0000 0.1503486549
H   H35       1.0  0.78480  0.78480  0.32560  1.0000 0.1503486549
H   H36       1.0  0.54080  0.21520  0.00000  1.0000 0.1503486549
H   H37       1.0  0.06600  0.31310  0.52470  1.0000 0.1503486549
H   H38       1.0  0.78840  0.54130  0.47530  1.0000 0.1503486549
H   H39       1.0  0.21160  0.68690  0.75290  1.0000 0.1503486549
H   H40       1.0  0.93400  0.45870  0.24710  1.0000 0.1503486549
H   H41       1.0  0.52470  0.06600  0.31310  1.0000 0.1503486549
H   H42       1.0  0.47530  0.78840  0.54130  1.0000 0.1503486549
H   H43       1.0  0.75290  0.21160  0.68690  1.0000 0.1503486549
H   H44       1.0  0.24710  0.93400  0.45870  1.0000 0.1503486549
H   H45       1.0  0.31310  0.52470  0.06600  1.0000 0.1503486549
H   H46       1.0  0.54130  0.47530  0.78840  1.0000 0.1503486549
H   H47       1.0  0.68690  0.75290  0.21160  1.0000 0.1503486549
H   H48       1.0  0.45870  0.24710  0.93400  1.0000 0.1503486549
H   H49       1.0  0.31310  0.06600  0.52470  1.0000 0.1503486549
H   H50       1.0  0.54130  0.78840  0.47530  1.0000 0.1503486549
H   H51       1.0  0.68690  0.21160  0.75290  1.0000 0.1503486549
H   H52       1.0  0.45870  0.93400  0.24710  1.0000 0.1503486549
H   H53       1.0  0.06600  0.52470  0.31310  1.0000 0.1503486549
H   H54       1.0  0.78840  0.47530  0.54130  1.0000 0.1503486549
H   H55       1.0  0.21160  0.75290  0.68690  1.0000 0.1503486549
H   H56       1.0  0.93400  0.24710  0.45870  1.0000 0.1503486549
H   H57       1.0  0.52470  0.31310  0.06600  1.0000 0.1503486549
H   H58       1.0  0.47530  0.54130  0.78840  1.0000 0.1503486549
H   H59       1.0  0.75290  0.68690  0.21160  1.0000 0.1503486549
H   H60       1.0  0.24710  0.45870  0.93400  1.0000 0.1503486549
C   C1        1.0  0.00000  0.35788  0.62232  1.0000 0.3808268945
C   C2        1.0  0.73556  0.37768  0.37768  1.0000 0.3808268945
C   C3        1.0  0.26444  0.64212  0.64212  1.0000 0.3808268945
C   C4        1.0  0.00000  0.62232  0.35788  1.0000 0.3808268945
C   C5        1.0  0.62232  0.00000  0.35788  1.0000 0.3808268945
C   C6        1.0  0.37768  0.73556  0.37768  1.0000 0.3808268945
C   C7        1.0  0.64212  0.26444  0.64212  1.0000 0.3808268945
C   C8        1.0  0.35788  0.00000  0.62232  1.0000 0.3808268945
C   C9        1.0  0.35788  0.62232  0.00000  1.0000 0.3808268945
C   C10       1.0  0.37768  0.37768  0.73556  1.0000 0.3808268945
C   C11       1.0  0.64212  0.64212  0.26444  1.0000 0.3808268945
C   C12       1.0  0.62232  0.35788  0.00000  1.0000 0.3808268945
C   C13       1.0  0.05615  0.49908  0.77529  1.0000 -0.0688991184
C   C14       1.0  0.72379  0.28086  0.22471  1.0000 -0.0688991184
C   C15       1.0  0.27621  0.50092  0.55707  1.0000 -0.0688991184
C   C16       1.0  0.94385  0.71914  0.44293  1.0000 -0.0688991184
C   C17       1.0  0.77529  0.05615  0.49908  1.0000 -0.0688991184
C   C18       1.0  0.22471  0.72379  0.28086  1.0000 -0.0688991184
C   C19       1.0  0.55707  0.27621  0.50092  1.0000 -0.0688991184
C   C20       1.0  0.44293  0.94385  0.71914  1.0000 -0.0688991184
C   C21       1.0  0.49908  0.77529  0.05615  1.0000 -0.0688991184
C   C22       1.0  0.28086  0.22471  0.72379  1.0000 -0.0688991184
C   C23       1.0  0.50092  0.55707  0.27621  1.0000 -0.0688991184
C   C24       1.0  0.71914  0.44293  0.94385  1.0000 -0.0688991184
C   C25       1.0  0.49908  0.05615  0.77529  1.0000 -0.0688991184
C   C26       1.0  0.28086  0.72379  0.22471  1.0000 -0.0688991184
C   C27       1.0  0.50092  0.27621  0.55707  1.0000 -0.0688991184
C   C28       1.0  0.71914  0.94385  0.44293  1.0000 -0.0688991184
C   C29       1.0  0.05615  0.77529  0.49908  1.0000 -0.0688991184
C   C30       1.0  0.72379  0.22471  0.28086  1.0000 -0.0688991184
C   C31       1.0  0.27621  0.55707  0.50092  1.0000 -0.0688991184
C   C32       1.0  0.94385  0.44293  0.71914  1.0000 -0.0688991184
C   C33       1.0  0.77529  0.49908  0.05615  1.0000 -0.0688991184
C   C34       1.0  0.22471  0.28086  0.72379  1.0000 -0.0688991184
C   C35       1.0  0.55707  0.50092  0.27621  1.0000 -0.0688991184
C   C36       1.0  0.44293  0.71914  0.94385  1.0000 -0.0688991184
C   C37       1.0  0.00000  0.27608  0.52833  1.0000 -0.5274073706
C   C38       1.0  0.74775  0.47168  0.47168  1.0000 -0.5274073706
C   C39       1.0  0.25225  0.72393  0.72392  1.0000 -0.5274073706
C   C40       1.0  0.00000  0.52833  0.27608  1.0000 -0.5274073706
C   C41       1.0  0.52833  0.00000  0.27608  1.0000 -0.5249884461
C   C42       1.0  0.47167  0.74775  0.47168  1.0000 -0.5274073706
C   C43       1.0  0.72393  0.25225  0.72392  1.0000 -0.5274073706
C   C44       1.0  0.27608  0.00000  0.52833  1.0000 -0.5274073706
C   C45       1.0  0.27608  0.52833  0.00000  1.0000 -0.5274073706
C   C46       1.0  0.47167  0.47168  0.74775  1.0000 -0.5274073706
C   C47       1.0  0.72392  0.72393  0.25225  1.0000 -0.5274073706
C   C48       1.0  0.52832  0.27607  0.00000  1.0000 -0.5274073706
N   N1        1.0  0.09262  0.44460  0.71406  1.0000 -0.3634960885
N   N2        1.0  0.73054  0.37856  0.28594  1.0000 -0.3634960885
N   N3        1.0  0.26946  0.55540  0.64802  1.0000 -0.3634960885
N   N4        1.0  0.90738  0.62144  0.35198  1.0000 -0.3634960885
N   N5        1.0  0.71406  0.09262  0.44460  1.0000 -0.3634960885
N   N6        1.0  0.28594  0.73054  0.37856  1.0000 -0.3634960885
N   N7        1.0  0.64802  0.26946  0.55540  1.0000 -0.3634960885
N   N8        1.0  0.35198  0.90738  0.62144  1.0000 -0.3634960885
N   N9        1.0  0.44460  0.71406  0.09262  1.0000 -0.3634960885
N   N10       1.0  0.37856  0.28594  0.73054  1.0000 -0.3634960885
N   N11       1.0  0.55540  0.64802  0.26946  1.0000 -0.3634960885
N   N12       1.0  0.62144  0.35198  0.90738  1.0000 -0.3634960885
N   N13       1.0  0.44460  0.09262  0.71406  1.0000 -0.3634960885
N   N14       1.0  0.37856  0.73054  0.28594  1.0000 -0.3634960885
N   N15       1.0  0.55540  0.26946  0.64802  1.0000 -0.3634960885
N   N16       1.0  0.62144  0.90738  0.35198  1.0000 -0.3634960885
N   N17       1.0  0.09262  0.71406  0.44460  1.0000 -0.3634960885
N   N18       1.0  0.73054  0.28594  0.37856  1.0000 -0.3634960885
N   N19       1.0  0.26946  0.64802  0.55540  1.0000 -0.3634960885
N   N20       1.0  0.90738  0.35198  0.62144  1.0000 -0.3634960885
N   N21       1.0  0.71406  0.44460  0.09262  1.0000 -0.3634960885
N   N22       1.0  0.28594  0.37856  0.73054  1.0000 -0.3634960885
N   N23       1.0  0.64802  0.55540  0.26946  1.0000 -0.3634960885
N   N24       1.0  0.35198  0.62144  0.90738  1.0000 -0.3634960885
