# DDEC6 charges by PACMAN v1.1 (https://github.com/mtap-research/PACMAN-charge/)
data_2012[Co][nbo]3[FSR]1
_chemical_formula_sum              "Co2 H28 C40 N10 O10"
_cell_length_a       10.3547
_cell_length_b       10.5172
_cell_length_c       12.39
_cell_angle_alpha    109.354
_cell_angle_beta     89.451
_cell_angle_gamma    116.151

_symmetry_space_group_name_H-M    "P 1"
_symmetry_Int_Tables_number       1

loop_
  _symmetry_equiv_pos_as_xyz
  'x, y, z'

loop_
  _atom_site_type_symbol
  _atom_site_label
  _atom_site_symmetry_multiplicity
  _atom_site_fract_x
  _atom_site_fract_y
  _atom_site_fract_z
  _atom_site_occupancy
  _atom_site_charge
Co  Co1       1.0  0.00000  0.00000  0.00000  1.0000 0.9022276678
Co  Co2       1.0  0.00000  0.50000  0.00000  1.0000 0.9022276678
H   H1        1.0  0.89330  0.26840  0.06190  1.0000 0.3609352387
H   H2        1.0  0.10670  0.73160  0.93810  1.0000 0.3609352387
H   H3        1.0  0.80680  0.32930  0.11710  1.0000 0.3414970614
H   H4        1.0  0.19320  0.67070  0.88290  1.0000 0.3414970614
H   H5        1.0  0.38670  0.53710  0.77520  1.0000 0.2739243485
H   H6        1.0  0.61330  0.46290  0.22480  1.0000 0.2739243485
H   H7        1.0  0.71730  0.54790  0.01930  1.0000 0.0985041462
H   H8        1.0  0.28270  0.45210  0.98070  1.0000 0.0985041462
H   H9        1.0  0.84150  0.34020  0.75180  1.0000 0.1122021914
H   H10       1.0  0.15850  0.65980  0.24820  1.0000 0.1122021914
H   H11       1.0  0.66580  0.32130  0.62940  1.0000 0.1392909155
H   H12       1.0  0.33420  0.67870  0.37060  1.0000 0.1392909155
H   H13       1.0  0.53840  0.53650  0.90430  1.0000 0.1326589935
H   H14       1.0  0.46160  0.46350  0.09570  1.0000 0.1326589935
H   H15       1.0  0.40110  0.22050  0.33400  1.0000 0.1392909155
H   H16       1.0  0.59890  0.77950  0.66600  1.0000 0.1392909155
H   H17       1.0  0.28480  0.10630  0.14760  1.0000 0.1200390808
H   H18       1.0  0.71520  0.89370  0.85240  1.0000 0.1200390808
H   H19       1.0  0.98920  0.23840  0.23380  1.0000 0.1122021914
H   H20       1.0  0.01080  0.76160  0.76620  1.0000 0.1122021914
H   H21       1.0  0.09560  0.35210  0.42500  1.0000 0.1326589935
H   H22       1.0  0.90440  0.64790  0.57500  1.0000 0.1326589935
H   H23       1.0  0.68910  0.98760  0.32130  1.0000 0.1200390808
H   H24       1.0  0.31090  0.01240  0.67870  1.0000 0.1200390808
H   H25       1.0  0.81370  0.05430  0.49840  1.0000 0.1122021914
H   H26       1.0  0.18630  0.94570  0.50160  1.0000 0.1122021914
H   H27       1.0  0.06110  0.87000  0.34410  1.0000 0.1122021914
H   H28       1.0  0.93890  0.13000  0.65590  1.0000 0.1122021914
C   C1        1.0  0.70860  0.50400  0.93930  1.0000 0.0935517155
C   C2        1.0  0.29140  0.49600  0.06070  1.0000 0.0935517155
C   C3        1.0  0.78120  0.38250  0.78320  1.0000 0.0783914802
C   C4        1.0  0.21880  0.61750  0.21680  1.0000 0.0783914802
C   C5        1.0  0.67430  0.36890  0.70890  1.0000 -0.1604779683
C   C6        1.0  0.32570  0.63110  0.29110  1.0000 -0.1604779683
C   C7        1.0  0.58040  0.42550  0.75170  1.0000 0.0633094884
C   C8        1.0  0.41960  0.57450  0.24830  1.0000 0.0633094884
C   C9        1.0  0.59910  0.49570  0.87100  1.0000 -0.1604779683
C   C10       1.0  0.40090  0.50430  0.12900  1.0000 -0.1604779683
C   C11       1.0  0.46750  0.41450  0.67340  1.0000 0.258409401
C   C12       1.0  0.53250  0.58550  0.32660  1.0000 0.258409401
C   C13       1.0  0.33030  0.36050  0.52350  1.0000 0.258409401
C   C14       1.0  0.66970  0.63950  0.47650  1.0000 0.258409401
C   C15       1.0  0.25950  0.29510  0.40170  1.0000 0.0724317614
C   C16       1.0  0.74050  0.70490  0.59830  1.0000 0.0724317614
C   C17       1.0  0.31560  0.22320  0.31600  1.0000 -0.1718698949
C   C18       1.0  0.68440  0.77680  0.68400  1.0000 -0.1718698949
C   C19       1.0  0.24550  0.15550  0.20420  1.0000 0.0783914802
C   C20       1.0  0.75450  0.84450  0.79580  1.0000 0.0783914802
C   C21       1.0  0.07170  0.23220  0.25480  1.0000 0.0783914802
C   C22       1.0  0.92830  0.76780  0.74520  1.0000 0.0783914802
C   C23       1.0  0.13530  0.30170  0.36980  1.0000 -0.1718698949
C   C24       1.0  0.86470  0.69830  0.63020  1.0000 -0.1718698949
C   C25       1.0  0.73180  0.88870  0.11250  1.0000 0.5729252078
C   C26       1.0  0.26820  0.11130  0.88750  1.0000 0.5729252078
C   C27       1.0  0.80970  0.90510  0.22290  1.0000 -0.0431832097
C   C28       1.0  0.19030  0.09490  0.77710  1.0000 -0.0431832097
C   C29       1.0  0.76870  0.96940  0.32500  1.0000 -0.1129652135
C   C30       1.0  0.23130  0.03060  0.67500  1.0000 -0.1129652135
C   C31       1.0  0.84200  0.00720  0.43180  1.0000 -0.1370063148
C   C32       1.0  0.15800  0.99280  0.56820  1.0000 -0.1370063148
C   C33       1.0  0.95760  0.97620  0.44190  1.0000 0.0724317614
C   C34       1.0  0.04240  0.02380  0.55810  1.0000 0.0724317614
C   C35       1.0  0.98990  0.90010  0.33980  1.0000 -0.1604779683
C   C36       1.0  0.01010  0.09990  0.66020  1.0000 -0.1604779683
C   C37       1.0  0.92100  0.86640  0.23090  1.0000 -0.0572234042
C   C38       1.0  0.07900  0.13360  0.76910  1.0000 -0.0572234042
C   C39       1.0  0.96780  0.78180  0.12770  1.0000 0.5785492636
C   C40       1.0  0.03220  0.21820  0.87230  1.0000 0.5785492636
N   N1        1.0  0.38480  0.48220  0.70550  1.0000 -0.1497597717
N   N2        1.0  0.61520  0.51780  0.29450  1.0000 -0.1497597717
N   N3        1.0  0.29600  0.45010  0.61010  1.0000 -0.2556085609
N   N4        1.0  0.70400  0.54990  0.38990  1.0000 -0.2556085609
N   N5        1.0  0.43640  0.33630  0.55890  1.0000 -0.407964053
N   N6        1.0  0.56360  0.66370  0.44110  1.0000 -0.407964053
N   N7        1.0  0.80340  0.45270  0.89770  1.0000 -0.2420734189
N   N8        1.0  0.19660  0.54730  0.10230  1.0000 -0.2420734189
N   N9        1.0  0.12290  0.15650  0.17190  1.0000 -0.2503741182
N   N10       1.0  0.87710  0.84350  0.82810  1.0000 -0.2503741182
O   O1        1.0  0.97930  0.67000  0.13300  1.0000 -0.5583463333
O   O2        1.0  0.02070  0.33000  0.86700  1.0000 -0.5583463333
O   O3        1.0  0.99410  0.82280  0.04150  1.0000 -0.5701572768
O   O4        1.0  0.00590  0.17720  0.95850  1.0000 -0.5701572768
O   O5        1.0  0.59620  0.81110  0.09210  1.0000 -0.5583463333
O   O6        1.0  0.40380  0.18890  0.90790  1.0000 -0.5583463333
O   O7        1.0  0.80420  0.96460  0.05370  1.0000 -0.5701572768
O   O8        1.0  0.19580  0.03540  0.94630  1.0000 -0.5701572768
O   O9        1.0  0.88130  0.34750  0.08350  1.0000 -0.6767286681
O   O10       1.0  0.11870  0.65250  0.91650  1.0000 -0.6767286681
