# DDEC6 charges by PACMAN v1.1 (https://github.com/mtap-research/PACMAN-charge/)
data_2012[Ag][srs]3[FSR]1
_chemical_formula_sum              "Ag6 H144 C156 N40"
_cell_length_a       22.247
_cell_length_b       22.247
_cell_length_c       22.247
_cell_angle_alpha    109.471
_cell_angle_beta     109.471
_cell_angle_gamma    109.471

_symmetry_space_group_name_H-M    "P 1"
_symmetry_Int_Tables_number       1

loop_
  _symmetry_equiv_pos_as_xyz
  'x, y, z'

loop_
  _atom_site_type_symbol
  _atom_site_label
  _atom_site_symmetry_multiplicity
  _atom_site_fract_x
  _atom_site_fract_y
  _atom_site_fract_z
  _atom_site_occupancy
  _atom_site_charge
Ag  Ag1       1.0  0.25000  0.64410  0.39410  1.0000 0.2504710437
Ag  Ag2       1.0  0.75000  0.85590  0.10590  1.0000 0.2504710437
Ag  Ag3       1.0  0.39410  0.25000  0.64410  1.0000 0.2504710437
Ag  Ag4       1.0  0.10590  0.75000  0.85590  1.0000 0.2504710437
Ag  Ag5       1.0  0.64410  0.39410  0.25000  1.0000 0.2504710437
Ag  Ag6       1.0  0.85590  0.10590  0.75000  1.0000 0.2504710437
H   H1        1.0  0.42010  0.75160  0.59490  1.0000 0.2504710437
H   H2        1.0  0.65670  0.82520  0.90510  1.0000 0.2504710437
H   H3        1.0  0.84330  0.74840  0.16850  1.0000 0.2504710437
H   H4        1.0  0.07990  0.67480  0.33150  1.0000 0.2504710437
H   H5        1.0  0.59490  0.42010  0.75160  1.0000 0.2504710437
H   H6        1.0  0.90510  0.65670  0.82520  1.0000 0.2504710437
H   H7        1.0  0.16850  0.84330  0.74840  1.0000 0.2504710437
H   H8        1.0  0.33150  0.07990  0.67480  1.0000 0.2504710437
H   H9        1.0  0.75160  0.59490  0.42010  1.0000 0.2504710437
H   H10       1.0  0.82520  0.90510  0.65670  1.0000 0.2504710437
H   H11       1.0  0.74840  0.16850  0.84330  1.0000 0.2504710437
H   H12       1.0  0.67480  0.33150  0.07990  1.0000 0.2504710437
H   H13       1.0  0.35320  0.61940  0.33080  1.0000 0.1106375968
H   H14       1.0  0.78860  0.02240  0.16920  1.0000 0.1106375968
H   H15       1.0  0.71140  0.88060  0.23380  1.0000 0.1106375968
H   H16       1.0  0.14680  0.47760  0.26620  1.0000 0.1106375968
H   H17       1.0  0.33080  0.35320  0.61940  1.0000 0.1106375968
H   H18       1.0  0.16920  0.78860  0.02240  1.0000 0.1106375968
H   H19       1.0  0.23380  0.71140  0.88060  1.0000 0.1106375968
H   H20       1.0  0.26620  0.14680  0.47760  1.0000 0.1106375968
H   H21       1.0  0.61940  0.33080  0.35320  1.0000 0.1106375968
H   H22       1.0  0.02240  0.16920  0.78860  1.0000 0.1106375968
H   H23       1.0  0.88060  0.23380  0.71140  1.0000 0.1106375968
H   H24       1.0  0.47760  0.26620  0.14680  1.0000 0.1106375968
H   H25       1.0  0.47290  0.64390  0.36980  1.0000 0.1233890664
H   H26       1.0  0.77410  0.10310  0.13020  1.0000 0.1233890664
H   H27       1.0  0.72590  0.85610  0.32900  1.0000 0.1233890664
H   H28       1.0  0.02710  0.39690  0.17100  1.0000 0.1233890664
H   H29       1.0  0.36980  0.47290  0.64390  1.0000 0.1233890664
H   H30       1.0  0.13020  0.77410  0.10310  1.0000 0.1233890664
H   H31       1.0  0.32900  0.72590  0.85610  1.0000 0.1233890664
H   H32       1.0  0.17100  0.02710  0.39690  1.0000 0.1233890664
H   H33       1.0  0.64390  0.36980  0.47290  1.0000 0.1233890664
H   H34       1.0  0.10310  0.13020  0.77410  1.0000 0.1233890664
H   H35       1.0  0.85610  0.32900  0.72590  1.0000 0.1233890664
H   H36       1.0  0.39690  0.17100  0.02710  1.0000 0.1233890664
H   H37       1.0  0.54970  0.68850  0.49200  1.0000 0.1106375968
H   H38       1.0  0.69650  0.05770  0.00800  1.0000 0.1106375968
H   H39       1.0  0.80350  0.81150  0.36120  1.0000 0.1106375968
H   H40       1.0  0.95030  0.44230  0.13880  1.0000 0.1106375968
H   H41       1.0  0.49200  0.54970  0.68850  1.0000 0.1106375968
H   H42       1.0  0.00800  0.69650  0.05770  1.0000 0.1106375968
H   H43       1.0  0.36120  0.80350  0.81150  1.0000 0.1106375968
H   H44       1.0  0.13880  0.95030  0.44230  1.0000 0.1106375968
H   H45       1.0  0.68850  0.49200  0.54970  1.0000 0.1106375968
H   H46       1.0  0.05770  0.00800  0.69650  1.0000 0.1106375968
H   H47       1.0  0.81150  0.36120  0.80350  1.0000 0.1106375968
H   H48       1.0  0.44230  0.13880  0.95030  1.0000 0.1106375968
H   H49       1.0  0.51680  0.73540  0.57680  1.0000 0.1304060641
H   H50       1.0  0.65860  0.94000  0.92320  1.0000 0.1304060641
H   H51       1.0  0.84140  0.76460  0.28140  1.0000 0.1304060641
H   H52       1.0  0.98320  0.56000  0.21860  1.0000 0.1304060641
H   H53       1.0  0.57680  0.51680  0.73540  1.0000 0.1304060641
H   H54       1.0  0.92320  0.65860  0.94000  1.0000 0.1304060641
H   H55       1.0  0.28140  0.84140  0.76460  1.0000 0.1304060641
H   H56       1.0  0.21860  0.98320  0.56000  1.0000 0.1304060641
H   H57       1.0  0.73540  0.57680  0.51680  1.0000 0.1304060641
H   H58       1.0  0.94000  0.92320  0.65860  1.0000 0.1304060641
H   H59       1.0  0.76460  0.28140  0.84140  1.0000 0.1304060641
H   H60       1.0  0.56000  0.21860  0.98320  1.0000 0.1304060641
H   H61       1.0  0.40740  0.80390  0.66030  1.0000 0.1233890664
H   H62       1.0  0.64360  0.74710  0.83970  1.0000 0.1233890664
H   H63       1.0  0.85640  0.69610  0.10350  1.0000 0.1233890664
H   H64       1.0  0.09260  0.75290  0.39650  1.0000 0.1233890664
H   H65       1.0  0.66030  0.40740  0.80390  1.0000 0.1233890664
H   H66       1.0  0.83970  0.64360  0.74710  1.0000 0.1233890664
H   H67       1.0  0.10350  0.85640  0.69610  1.0000 0.1233890664
H   H68       1.0  0.39650  0.09260  0.75290  1.0000 0.1233890664
H   H69       1.0  0.80390  0.66030  0.40740  1.0000 0.1233890664
H   H70       1.0  0.74710  0.83970  0.64360  1.0000 0.1233890664
H   H71       1.0  0.69610  0.10350  0.85640  1.0000 0.1233890664
H   H72       1.0  0.75290  0.39650  0.09260  1.0000 0.1233890664
H   H73       1.0  0.35290  0.77490  0.68700  1.0000 0.143079272
H   H74       1.0  0.58790  0.66590  0.81300  1.0000 0.143079272
H   H75       1.0  0.91210  0.72510  0.07800  1.0000 0.143079272
H   H76       1.0  0.14710  0.83410  0.42200  1.0000 0.143079272
H   H77       1.0  0.68700  0.35290  0.77490  1.0000 0.143079272
H   H78       1.0  0.81300  0.58790  0.66590  1.0000 0.143079272
H   H79       1.0  0.07800  0.91210  0.72510  1.0000 0.143079272
H   H80       1.0  0.42200  0.14710  0.83410  1.0000 0.143079272
H   H81       1.0  0.77490  0.68700  0.35290  1.0000 0.143079272
H   H82       1.0  0.66590  0.81300  0.58790  1.0000 0.143079272
H   H83       1.0  0.72510  0.07800  0.91210  1.0000 0.143079272
H   H84       1.0  0.83410  0.42200  0.14710  1.0000 0.143079272
H   H85       1.0  0.35370  0.83430  0.66380  1.0000 0.143079272
H   H86       1.0  0.67050  0.68990  0.83620  1.0000 0.143079272
H   H87       1.0  0.82950  0.66570  0.01940  1.0000 0.143079272
H   H88       1.0  0.14630  0.81010  0.48060  1.0000 0.143079272
H   H89       1.0  0.66380  0.35370  0.83430  1.0000 0.143079272
H   H90       1.0  0.83620  0.67050  0.68990  1.0000 0.143079272
H   H91       1.0  0.01940  0.82950  0.66570  1.0000 0.143079272
H   H92       1.0  0.48060  0.14630  0.81010  1.0000 0.143079272
H   H93       1.0  0.83430  0.66380  0.35370  1.0000 0.143079272
H   H94       1.0  0.68990  0.83620  0.67050  1.0000 0.143079272
H   H95       1.0  0.66570  0.01940  0.82950  1.0000 0.143079272
H   H96       1.0  0.81010  0.48060  0.14630  1.0000 0.143079272
H   H97       1.0  0.23550  0.79570  0.62940  1.0000 0.1026634895
H   H98       1.0  0.66630  0.60610  0.87060  1.0000 0.1026634895
H   H99       1.0  0.83370  0.70430  0.93980  1.0000 0.1026634895
H   H100      1.0  0.26450  0.89390  0.56020  1.0000 0.1026634895
H   H101      1.0  0.62940  0.23550  0.79570  1.0000 0.1026634895
H   H102      1.0  0.87060  0.66630  0.60610  1.0000 0.1026634895
H   H103      1.0  0.93980  0.83370  0.70430  1.0000 0.1026634895
H   H104      1.0  0.56020  0.26450  0.89390  1.0000 0.1026634895
H   H105      1.0  0.79570  0.62940  0.23550  1.0000 0.1026634895
H   H106      1.0  0.60610  0.87060  0.66630  1.0000 0.1026634895
H   H107      1.0  0.70430  0.93980  0.83370  1.0000 0.1026634895
H   H108      1.0  0.89390  0.56020  0.26450  1.0000 0.1026634895
H   H109      1.0  0.11380  0.74860  0.59860  1.0000 0.1106375968
H   H110      1.0  0.65000  0.51520  0.90140  1.0000 0.1106375968
H   H111      1.0  0.85000  0.75140  0.86520  1.0000 0.1106375968
H   H112      1.0  0.38620  0.98480  0.63480  1.0000 0.1106375968
H   H113      1.0  0.59860  0.11380  0.74860  1.0000 0.1106375968
H   H114      1.0  0.90140  0.65000  0.51520  1.0000 0.1106375968
H   H115      1.0  0.86520  0.85000  0.75140  1.0000 0.1106375968
H   H116      1.0  0.63480  0.38620  0.98480  1.0000 0.1106375968
H   H117      1.0  0.74860  0.59860  0.11380  1.0000 0.1106375968
H   H118      1.0  0.51520  0.90140  0.65000  1.0000 0.1106375968
H   H119      1.0  0.75140  0.86520  0.85000  1.0000 0.1106375968
H   H120      1.0  0.98480  0.63480  0.38620  1.0000 0.1106375968
H   H121      1.0  0.06410  0.55880  0.43890  1.0000 0.1233890664
H   H122      1.0  0.61990  0.62520  0.06110  1.0000 0.1233890664
H   H123      1.0  0.88010  0.94120  0.00530  1.0000 0.1233890664
H   H124      1.0  0.43590  0.87480  0.49470  1.0000 0.1233890664
H   H125      1.0  0.43890  0.06410  0.55880  1.0000 0.1233890664
H   H126      1.0  0.06110  0.61990  0.62520  1.0000 0.1233890664
H   H127      1.0  0.00530  0.88010  0.94120  1.0000 0.1233890664
H   H128      1.0  0.49470  0.43590  0.87480  1.0000 0.1233890664
H   H129      1.0  0.55880  0.43890  0.06410  1.0000 0.1233890664
H   H130      1.0  0.62520  0.06110  0.61990  1.0000 0.1233890664
H   H131      1.0  0.94120  0.00530  0.88010  1.0000 0.1233890664
H   H132      1.0  0.87480  0.49470  0.43590  1.0000 0.1233890664
H   H133      1.0  0.18090  0.60260  0.46810  1.0000 0.1106375968
H   H134      1.0  0.63450  0.71280  0.03190  1.0000 0.1106375968
H   H135      1.0  0.86550  0.89740  0.07830  1.0000 0.1106375968
H   H136      1.0  0.31910  0.78720  0.42170  1.0000 0.1106375968
H   H137      1.0  0.46810  0.18090  0.60260  1.0000 0.1106375968
H   H138      1.0  0.03190  0.63450  0.71280  1.0000 0.1106375968
H   H139      1.0  0.07830  0.86550  0.89740  1.0000 0.1106375968
H   H140      1.0  0.42170  0.31910  0.78720  1.0000 0.1106375968
H   H141      1.0  0.60260  0.46810  0.18090  1.0000 0.1106375968
H   H142      1.0  0.71280  0.03190  0.63450  1.0000 0.1106375968
H   H143      1.0  0.89740  0.07830  0.86550  1.0000 0.1106375968
H   H144      1.0  0.78720  0.42170  0.31910  1.0000 0.1106375968
C   C1        1.0  0.38630  0.64370  0.38100  1.0000 0.0595881379
C   C2        1.0  0.76270  0.00530  0.11900  1.0000 0.0595881379
C   C3        1.0  0.73730  0.85630  0.24260  1.0000 0.0595881379
C   C4        1.0  0.11370  0.49470  0.25740  1.0000 0.0595881379
C   C5        1.0  0.38100  0.38630  0.64370  1.0000 0.0595881379
C   C6        1.0  0.11900  0.76270  0.00530  1.0000 0.0595881379
C   C7        1.0  0.24260  0.73730  0.85630  1.0000 0.0595881379
C   C8        1.0  0.25740  0.11370  0.49470  1.0000 0.0595881379
C   C9        1.0  0.64370  0.38100  0.38630  1.0000 0.0595881379
C   C10       1.0  0.00530  0.11900  0.76270  1.0000 0.0595881379
C   C11       1.0  0.85630  0.24260  0.73730  1.0000 0.0595881379
C   C12       1.0  0.49470  0.25740  0.11370  1.0000 0.0595881379
C   C13       1.0  0.45740  0.65590  0.40390  1.0000 -0.1770204679
C   C14       1.0  0.75200  0.05350  0.09610  1.0000 -0.1770204679
C   C15       1.0  0.74800  0.84410  0.30150  1.0000 -0.1770204679
C   C16       1.0  0.04260  0.44650  0.19850  1.0000 -0.1770204679
C   C17       1.0  0.40390  0.45740  0.65590  1.0000 -0.1770204679
C   C18       1.0  0.09610  0.75200  0.05350  1.0000 -0.1770204679
C   C19       1.0  0.30150  0.74800  0.84410  1.0000 -0.1770204679
C   C20       1.0  0.19850  0.04260  0.44650  1.0000 -0.1770204679
C   C21       1.0  0.65590  0.40390  0.45740  1.0000 -0.1770204679
C   C22       1.0  0.05350  0.09610  0.75200  1.0000 -0.1770204679
C   C23       1.0  0.84410  0.30150  0.74800  1.0000 -0.1770204679
C   C24       1.0  0.44650  0.19850  0.04260  1.0000 -0.1770204679
C   C25       1.0  0.50390  0.68530  0.47640  1.0000 -0.0513232234
C   C26       1.0  0.70890  0.02750  0.02360  1.0000 -0.0513232234
C   C27       1.0  0.79110  0.81470  0.31860  1.0000 -0.0513232234
C   C28       1.0  0.99610  0.47250  0.18140  1.0000 -0.0513232234
C   C29       1.0  0.47640  0.50390  0.68530  1.0000 -0.0513232234
C   C30       1.0  0.02360  0.70890  0.02750  1.0000 -0.0513232234
C   C31       1.0  0.31860  0.79110  0.81470  1.0000 -0.0513232234
C   C32       1.0  0.18140  0.99610  0.47250  1.0000 -0.0513232234
C   C33       1.0  0.68530  0.47640  0.50390  1.0000 -0.0513232234
C   C34       1.0  0.02750  0.02360  0.70890  1.0000 -0.0513232234
C   C35       1.0  0.81470  0.31860  0.79110  1.0000 -0.0513232234
C   C36       1.0  0.47250  0.18140  0.99610  1.0000 -0.0513232234
C   C37       1.0  0.48292  0.71042  0.52670  1.0000 -0.2367269994
C   C38       1.0  0.68372  0.95622  0.97330  1.0000 -0.2367269994
C   C39       1.0  0.81628  0.78958  0.27250  1.0000 -0.2367269994
C   C40       1.0  0.01708  0.54378  0.22750  1.0000 -0.2367269994
C   C41       1.0  0.52670  0.48292  0.71042  1.0000 -0.2367269994
C   C42       1.0  0.97330  0.68372  0.95622  1.0000 -0.2367269994
C   C43       1.0  0.27250  0.81628  0.78958  1.0000 -0.2367269994
C   C44       1.0  0.22750  0.01708  0.54378  1.0000 -0.2367269994
C   C45       1.0  0.71042  0.52670  0.48292  1.0000 -0.2367269994
C   C46       1.0  0.95622  0.97330  0.68372  1.0000 -0.2367269994
C   C47       1.0  0.78958  0.27250  0.81628  1.0000 -0.2367269994
C   C48       1.0  0.54378  0.22750  0.01708  1.0000 -0.2367269994
C   C49       1.0  0.41140  0.69880  0.50380  1.0000 0.3032897238
C   C50       1.0  0.69500  0.90760  0.99620  1.0000 0.3032897238
C   C51       1.0  0.80500  0.80120  0.21260  1.0000 0.3032897238
C   C52       1.0  0.08860  0.59240  0.28740  1.0000 0.3032897238
C   C53       1.0  0.50380  0.41140  0.69880  1.0000 0.3032897238
C   C54       1.0  0.99620  0.69500  0.90760  1.0000 0.3032897238
C   C55       1.0  0.21260  0.80500  0.80120  1.0000 0.3032897238
C   C56       1.0  0.28740  0.08860  0.59240  1.0000 0.3032897238
C   C57       1.0  0.69880  0.50380  0.41140  1.0000 0.3032897238
C   C58       1.0  0.90760  0.99620  0.69500  1.0000 0.3032897238
C   C59       1.0  0.80120  0.21260  0.80500  1.0000 0.3032897238
C   C60       1.0  0.59240  0.28740  0.08860  1.0000 0.3032897238
C   C61       1.0  0.29980  0.72900  0.57260  1.0000 0.203219128
C   C62       1.0  0.65640  0.72720  0.92740  1.0000 0.203219128
C   C63       1.0  0.84360  0.77100  0.07080  1.0000 0.203219128
C   C64       1.0  0.20020  0.77280  0.42920  1.0000 0.203219128
C   C65       1.0  0.57260  0.29980  0.72900  1.0000 0.203219128
C   C66       1.0  0.92740  0.65640  0.72720  1.0000 0.203219128
C   C67       1.0  0.07080  0.84360  0.77100  1.0000 0.203219128
C   C68       1.0  0.42920  0.20020  0.77280  1.0000 0.203219128
C   C69       1.0  0.72900  0.57260  0.29980  1.0000 0.203219128
C   C70       1.0  0.72720  0.92740  0.65640  1.0000 0.203219128
C   C71       1.0  0.77100  0.07080  0.84360  1.0000 0.203219128
C   C72       1.0  0.77280  0.42920  0.20020  1.0000 0.203219128
C   C73       1.0  0.35920  0.79160  0.65380  1.0000 -0.4914368592
C   C74       1.0  0.63780  0.70540  0.84620  1.0000 -0.4914368592
C   C75       1.0  0.86220  0.70840  0.06760  1.0000 -0.4914368592
C   C76       1.0  0.14080  0.79460  0.43240  1.0000 -0.4914368592
C   C77       1.0  0.65380  0.35920  0.79160  1.0000 -0.4914368592
C   C78       1.0  0.84620  0.63780  0.70540  1.0000 -0.4914368592
C   C79       1.0  0.06760  0.86220  0.70840  1.0000 -0.4914368592
C   C80       1.0  0.43240  0.14080  0.79460  1.0000 -0.4914368592
C   C81       1.0  0.79160  0.65380  0.35920  1.0000 -0.4914368592
C   C82       1.0  0.70540  0.84620  0.63780  1.0000 -0.4914368592
C   C83       1.0  0.70840  0.06760  0.86220  1.0000 -0.4914368592
C   C84       1.0  0.79460  0.43240  0.14080  1.0000 -0.4914368592
C   C85       1.0  0.22100  0.70150  0.55130  1.0000 0.0031801115
C   C86       1.0  0.65020  0.66970  0.94870  1.0000 0.0031801115
C   C87       1.0  0.84980  0.79850  0.01950  1.0000 0.0031801115
C   C88       1.0  0.27900  0.83030  0.48050  1.0000 0.0031801115
C   C89       1.0  0.55130  0.22100  0.70150  1.0000 0.0031801115
C   C90       1.0  0.94870  0.65020  0.66970  1.0000 0.0031801115
C   C91       1.0  0.01950  0.84980  0.79850  1.0000 0.0031801115
C   C92       1.0  0.48050  0.27900  0.83030  1.0000 0.0031801115
C   C93       1.0  0.70150  0.55130  0.22100  1.0000 0.0031801115
C   C94       1.0  0.66970  0.94870  0.65020  1.0000 0.0031801115
C   C95       1.0  0.79850  0.01950  0.84980  1.0000 0.0031801115
C   C96       1.0  0.83030  0.48050  0.27900  1.0000 0.0031801115
C   C97       1.0  0.20070  0.74780  0.59150  1.0000 -0.1770204679
C   C98       1.0  0.65630  0.60920  0.90850  1.0000 -0.1770204679
C   C99       1.0  0.84370  0.75220  0.95290  1.0000 -0.1721504014
C   C100      1.0  0.29930  0.89080  0.54710  1.0000 -0.1770204679
C   C101      1.0  0.59150  0.20070  0.74780  1.0000 -0.1770204679
C   C102      1.0  0.90850  0.65630  0.60920  1.0000 -0.1721504014
C   C103      1.0  0.95290  0.84370  0.75220  1.0000 -0.1721504014
C   C104      1.0  0.54710  0.29930  0.89080  1.0000 -0.1770204679
C   C105      1.0  0.74780  0.59150  0.20070  1.0000 -0.1721504014
C   C106      1.0  0.60920  0.90850  0.65630  1.0000 -0.1770204679
C   C107      1.0  0.75220  0.95290  0.84370  1.0000 -0.1770204679
C   C108      1.0  0.89080  0.54710  0.29930  1.0000 -0.1721504014
C   C109      1.0  0.12780  0.71940  0.57240  1.0000 -0.1960283812
C   C110      1.0  0.64700  0.55540  0.92760  1.0000 -0.1960283812
C   C111      1.0  0.85300  0.78060  0.90840  1.0000 -0.1960283812
C   C112      1.0  0.37220  0.94460  0.59160  1.0000 -0.1960283812
C   C113      1.0  0.57240  0.12780  0.71940  1.0000 -0.1960283812
C   C114      1.0  0.92760  0.64700  0.55540  1.0000 -0.1960283812
C   C115      1.0  0.90840  0.85300  0.78060  1.0000 -0.1960283812
C   C116      1.0  0.59160  0.37220  0.94460  1.0000 -0.1960283812
C   C117      1.0  0.71940  0.57240  0.12780  1.0000 -0.1960283812
C   C118      1.0  0.55540  0.92760  0.64700  1.0000 -0.1960283812
C   C119      1.0  0.78060  0.90840  0.85300  1.0000 -0.1960283812
C   C120      1.0  0.94460  0.59160  0.37220  1.0000 -0.1960283812
C   C121      1.0  0.07700  0.65180  0.51780  1.0000 0.1580246636
C   C122      1.0  0.63400  0.55920  0.98220  1.0000 0.1580246636
C   C123      1.0  0.86600  0.84820  0.92520  1.0000 0.1580246636
C   C124      1.0  0.42300  0.94080  0.57480  1.0000 0.1580246636
C   C125      1.0  0.51780  0.07700  0.65180  1.0000 0.1580246636
C   C126      1.0  0.98220  0.63400  0.55920  1.0000 0.1580246636
C   C127      1.0  0.92520  0.86600  0.84820  1.0000 0.1580246636
C   C128      1.0  0.57480  0.42300  0.94080  1.0000 0.1580246636
C   C129      1.0  0.65180  0.51780  0.07700  1.0000 0.1580246636
C   C130      1.0  0.55920  0.98220  0.63400  1.0000 0.1580246636
C   C131      1.0  0.84820  0.92520  0.86600  1.0000 0.1580246636
C   C132      1.0  0.94080  0.57480  0.42300  1.0000 0.1580246636
C   C133      1.0  0.09910  0.60660  0.47750  1.0000 -0.1721504014
C   C134      1.0  0.62910  0.62160  0.02250  1.0000 -0.1721504014
C   C135      1.0  0.87090  0.89340  0.99250  1.0000 -0.1721504014
C   C136      1.0  0.40090  0.87840  0.50750  1.0000 -0.1721504014
C   C137      1.0  0.47750  0.09910  0.60660  1.0000 -0.1721504014
C   C138      1.0  0.02250  0.62910  0.62160  1.0000 -0.1721504014
C   C139      1.0  0.99250  0.87090  0.89340  1.0000 -0.1721504014
C   C140      1.0  0.50750  0.40090  0.87840  1.0000 -0.1721504014
C   C141      1.0  0.60660  0.47750  0.09910  1.0000 -0.1721504014
C   C142      1.0  0.62160  0.02250  0.62910  1.0000 -0.1721504014
C   C143      1.0  0.89340  0.99250  0.87090  1.0000 -0.1721504014
C   C144      1.0  0.87840  0.50750  0.40090  1.0000 -0.1721504014
C   C145      1.0  0.16770  0.63230  0.49500  1.0000 -0.1164086115
C   C146      1.0  0.63730  0.67270  0.00500  1.0000 -0.1164086115
C   C147      1.0  0.86270  0.86770  0.03540  1.0000 -0.1164086115
C   C148      1.0  0.33230  0.82730  0.46460  1.0000 -0.1164086115
C   C149      1.0  0.49500  0.16770  0.63230  1.0000 -0.1164086115
C   C150      1.0  0.00500  0.63730  0.67270  1.0000 -0.1164086115
C   C151      1.0  0.03540  0.86270  0.86770  1.0000 -0.1164086115
C   C152      1.0  0.46460  0.33230  0.82730  1.0000 -0.1164086115
C   C153      1.0  0.63230  0.49500  0.16770  1.0000 -0.1164086115
C   C154      1.0  0.67270  0.00500  0.63730  1.0000 -0.1164086115
C   C155      1.0  0.86770  0.03540  0.86270  1.0000 -0.1164086115
C   C156      1.0  0.82730  0.46460  0.33230  1.0000 -0.1164086115
N   N1        1.0  0.36330  0.66620  0.42930  1.0000 -0.3110030742
N   N2        1.0  0.73690  0.93400  0.07070  1.0000 -0.3110030742
N   N3        1.0  0.76310  0.83380  0.19710  1.0000 -0.3110030742
N   N4        1.0  0.13670  0.56600  0.30290  1.0000 -0.3110030742
N   N5        1.0  0.42930  0.36330  0.66620  1.0000 -0.3110030742
N   N6        1.0  0.07070  0.73690  0.93400  1.0000 -0.3110030742
N   N7        1.0  0.19710  0.76310  0.83380  1.0000 -0.3110030742
N   N8        1.0  0.30290  0.13670  0.56600  1.0000 -0.3110030742
N   N9        1.0  0.66620  0.42930  0.36330  1.0000 -0.3110030742
N   N10       1.0  0.93400  0.07070  0.73690  1.0000 -0.3110030742
N   N11       1.0  0.83380  0.19710  0.76310  1.0000 -0.3110030742
N   N12       1.0  0.56600  0.30290  0.13670  1.0000 -0.3110030742
N   N13       1.0  0.38856  0.72182  0.54886  1.0000 -0.1960283812
N   N14       1.0  0.67296  0.83970  0.95114  1.0000 -0.1960283812
N   N15       1.0  0.82704  0.77818  0.16674  1.0000 -0.1960283812
N   N16       1.0  0.11144  0.66030  0.33326  1.0000 -0.1960283812
N   N17       1.0  0.54886  0.38856  0.72182  1.0000 -0.1960283812
N   N18       1.0  0.95114  0.67296  0.83970  1.0000 -0.1960283812
N   N19       1.0  0.16674  0.82704  0.77818  1.0000 -0.1960283812
N   N20       1.0  0.33326  0.11144  0.66030  1.0000 -0.1960283812
N   N21       1.0  0.72182  0.54886  0.38856  1.0000 -0.1960283812
N   N22       1.0  0.83970  0.95114  0.67296  1.0000 -0.1960283812
N   N23       1.0  0.77818  0.16674  0.82704  1.0000 -0.1960283812
N   N24       1.0  0.66030  0.33326  0.11144  1.0000 -0.1960283812
N   N25       1.0  0.31697  0.70020  0.52517  1.0000 -0.2194376143
N   N26       1.0  0.67503  0.79180  0.97483  1.0000 -0.2194376143
N   N27       1.0  0.82497  0.79980  0.11677  1.0000 -0.2194376143
N   N28       1.0  0.18303  0.70820  0.38323  1.0000 -0.2194376143
N   N29       1.0  0.52517  0.31697  0.70020  1.0000 -0.2194376143
N   N30       1.0  0.97483  0.67503  0.79180  1.0000 -0.2194376143
N   N31       1.0  0.11677  0.82497  0.79980  1.0000 -0.2194376143
N   N32       1.0  0.38323  0.18303  0.70820  1.0000 -0.2194376143
N   N33       1.0  0.70020  0.52517  0.31697  1.0000 -0.2194376143
N   N34       1.0  0.79180  0.97483  0.67503  1.0000 -0.2194376143
N   N35       1.0  0.79980  0.11677  0.82497  1.0000 -0.2194376143
N   N36       1.0  0.70820  0.38323  0.18303  1.0000 -0.2194376143
N   N37       1.0  0.00000  0.62440  0.50000  1.0000 -0.2771961815
N   N38       1.0  0.62440  0.50000  0.00000  1.0000 -0.2771961815
N   N39       1.0  0.87560  0.87560  0.87560  1.0000 -0.2771961815
N   N40       1.0  0.50000  0.00000  0.62440  1.0000 -0.2771961815
