# DDEC6 charges by PACMAN v1.1 (https://github.com/mtap-research/PACMAN-charge/)
data_2012[Ga][ctn]3[FSR]1
_chemical_formula_sum              "Ga6 H24 C72 O48"
_cell_length_a       17.1787
_cell_length_b       17.1787
_cell_length_c       17.1787
_cell_angle_alpha    108.84
_cell_angle_beta     108.84
_cell_angle_gamma    108.84

_symmetry_space_group_name_H-M    "P 1"
_symmetry_Int_Tables_number       1

loop_
  _symmetry_equiv_pos_as_xyz
  'x, y, z'

loop_
  _atom_site_type_symbol
  _atom_site_label
  _atom_site_symmetry_multiplicity
  _atom_site_fract_x
  _atom_site_fract_y
  _atom_site_fract_z
  _atom_site_occupancy
  _atom_site_charge
Ga  Ga1       1.0  0.36194  0.73711  0.46799  1.0000 1.2307453647
Ga  Ga2       1.0  0.73711  0.46799  0.36194  1.0000 1.2307453647
Ga  Ga3       1.0  0.46799  0.36194  0.73711  1.0000 1.2307453647
Ga  Ga4       1.0  0.86194  0.96799  0.23711  1.0000 1.2307453647
Ga  Ga5       1.0  0.23711  0.86194  0.96799  1.0000 1.2307453647
Ga  Ga6       1.0  0.96799  0.23711  0.86194  1.0000 1.2307453647
H   H1        1.0  0.15040  0.47910  0.11890  1.0000 0.1410743192
H   H2        1.0  0.47910  0.11890  0.15040  1.0000 0.1410743192
H   H3        1.0  0.11890  0.15040  0.47910  1.0000 0.1410743192
H   H4        1.0  0.65040  0.61890  0.97910  1.0000 0.1410743192
H   H5        1.0  0.97910  0.65040  0.61890  1.0000 0.1410743192
H   H6        1.0  0.61890  0.97910  0.65040  1.0000 0.1410743192
H   H7        1.0  0.13060  0.58850  0.94410  1.0000 0.1410743192
H   H8        1.0  0.58850  0.94410  0.13060  1.0000 0.1410743192
H   H9        1.0  0.94410  0.13060  0.58850  1.0000 0.1410743192
H   H10       1.0  0.63060  0.44410  0.08850  1.0000 0.1410743192
H   H11       1.0  0.08850  0.63060  0.44410  1.0000 0.1410743192
H   H12       1.0  0.44410  0.08850  0.63060  1.0000 0.1410743192
H   H13       1.0  0.29810  0.75720  0.21840  1.0000 0.1410743192
H   H14       1.0  0.75720  0.21840  0.29810  1.0000 0.1410743192
H   H15       1.0  0.21840  0.29810  0.75720  1.0000 0.1410743192
H   H16       1.0  0.79810  0.71840  0.25720  1.0000 0.1410743192
H   H17       1.0  0.25720  0.79810  0.71840  1.0000 0.1410743192
H   H18       1.0  0.71840  0.25720  0.79810  1.0000 0.1410743192
H   H19       1.0  0.56720  0.57830  0.43090  1.0000 0.1462313627
H   H20       1.0  0.57830  0.43090  0.56720  1.0000 0.1462313627
H   H21       1.0  0.43090  0.56720  0.57830  1.0000 0.1462313627
H   H22       1.0  0.06720  0.93090  0.07830  1.0000 0.1462313627
H   H23       1.0  0.07830  0.06720  0.93090  1.0000 0.1462313627
H   H24       1.0  0.93090  0.07830  0.06720  1.0000 0.1462313627
C   C1        1.0  0.23153  0.62028  0.18519  1.0000 -0.0111018201
C   C2        1.0  0.62028  0.18519  0.23153  1.0000 -0.0111018201
C   C3        1.0  0.18519  0.23153  0.62028  1.0000 -0.0111018201
C   C4        1.0  0.73153  0.68519  0.12028  1.0000 -0.0111018201
C   C5        1.0  0.12028  0.73153  0.68519  1.0000 -0.0111018201
C   C6        1.0  0.68519  0.12028  0.73153  1.0000 -0.0111018201
C   C7        1.0  0.16726  0.53089  0.10905  1.0000 -0.0887884304
C   C8        1.0  0.53089  0.10905  0.16726  1.0000 -0.0887884304
C   C9        1.0  0.10905  0.16726  0.53089  1.0000 -0.0887884304
C   C10       1.0  0.66726  0.60905  0.03089  1.0000 -0.0887884304
C   C11       1.0  0.03089  0.66726  0.60905  1.0000 -0.0887884304
C   C12       1.0  0.60905  0.03089  0.66726  1.0000 -0.0887884304
C   C13       1.0  0.12847  0.51923  0.01880  1.0000 -0.0111018201
C   C14       1.0  0.51923  0.01880  0.12847  1.0000 -0.0111018201
C   C15       1.0  0.01880  0.12847  0.51923  1.0000 -0.0111018201
C   C16       1.0  0.62847  0.51880  0.01923  1.0000 -0.0111018201
C   C17       1.0  0.01923  0.62847  0.51880  1.0000 -0.0111018201
C   C18       1.0  0.51880  0.01923  0.62847  1.0000 -0.0111018201
C   C19       1.0  0.15531  0.59656  0.00463  1.0000 -0.0816680173
C   C20       1.0  0.59656  0.00463  0.15531  1.0000 -0.0816680173
C   C21       1.0  0.00463  0.15531  0.59656  1.0000 -0.0816680173
C   C22       1.0  0.65531  0.50463  0.09656  1.0000 -0.0816680173
C   C23       1.0  0.09656  0.65531  0.50463  1.0000 -0.0816680173
C   C24       1.0  0.50463  0.09656  0.65531  1.0000 -0.0816680173
C   C25       1.0  0.21755  0.68459  0.07816  1.0000 -0.0111018201
C   C26       1.0  0.68459  0.07816  0.21755  1.0000 -0.0111018201
C   C27       1.0  0.07816  0.21755  0.68459  1.0000 -0.0111018201
C   C28       1.0  0.71755  0.57816  0.18459  1.0000 -0.0111018201
C   C29       1.0  0.18459  0.71755  0.57816  1.0000 -0.0111018201
C   C30       1.0  0.57816  0.18459  0.71755  1.0000 -0.0111018201
C   C31       1.0  0.25596  0.69739  0.16855  1.0000 -0.0816680173
C   C32       1.0  0.69739  0.16855  0.25596  1.0000 -0.0816680173
C   C33       1.0  0.16855  0.25596  0.69739  1.0000 -0.0816680173
C   C34       1.0  0.75596  0.66855  0.19739  1.0000 -0.0816680173
C   C35       1.0  0.19739  0.75596  0.66855  1.0000 -0.0816680173
C   C36       1.0  0.66855  0.19739  0.75596  1.0000 -0.0816680173
C   C37       1.0  0.27140  0.63340  0.28190  1.0000 0.5472903095
C   C38       1.0  0.63340  0.28190  0.27140  1.0000 0.5472903095
C   C39       1.0  0.28190  0.27140  0.63340  1.0000 0.5472903095
C   C40       1.0  0.77140  0.78190  0.13340  1.0000 0.5472903095
C   C41       1.0  0.13340  0.77140  0.78190  1.0000 0.5472903095
C   C42       1.0  0.78190  0.13340  0.77140  1.0000 0.5472903095
C   C43       1.0  0.05655  0.42430  0.93845  1.0000 0.5472903095
C   C44       1.0  0.42430  0.93845  0.05655  1.0000 0.5445711111
C   C45       1.0  0.93845  0.05655  0.42430  1.0000 0.5445711111
C   C46       1.0  0.55655  0.43845  0.92430  1.0000 0.5445711111
C   C47       1.0  0.92430  0.55655  0.43845  1.0000 0.5445711111
C   C48       1.0  0.43845  0.92430  0.55655  1.0000 0.5445711111
C   C49       1.0  0.24210  0.76980  0.06650  1.0000 0.5472903095
C   C50       1.0  0.76980  0.06650  0.24210  1.0000 0.5472903095
C   C51       1.0  0.06650  0.24210  0.76980  1.0000 0.5472903095
C   C52       1.0  0.74210  0.56650  0.26980  1.0000 0.5472903095
C   C53       1.0  0.26980  0.74210  0.56650  1.0000 0.5472903095
C   C54       1.0  0.56650  0.26980  0.74210  1.0000 0.5472903095
C   C55       1.0  0.49511  0.58449  0.50280  1.0000 -0.0004591051
C   C56       1.0  0.58449  0.50280  0.49511  1.0000 -0.0004591051
C   C57       1.0  0.50280  0.49511  0.58449  1.0000 -0.0004591051
C   C58       1.0  0.99511  0.00280  0.08449  1.0000 -0.0004591051
C   C59       1.0  0.08449  0.99511  0.00280  1.0000 -0.0004591051
C   C60       1.0  0.00280  0.08449  0.99511  1.0000 -0.0004591051
C   C61       1.0  0.55160  0.55790  0.47050  1.0000 -0.0887884304
C   C62       1.0  0.55790  0.47050  0.55160  1.0000 -0.0887884304
C   C63       1.0  0.47050  0.55160  0.55790  1.0000 -0.0887884304
C   C64       1.0  0.05160  0.97050  0.05790  1.0000 -0.0887884304
C   C65       1.0  0.05790  0.05160  0.97050  1.0000 -0.0887884304
C   C66       1.0  0.97050  0.05790  0.05160  1.0000 -0.0887884304
C   C67       1.0  0.46350  0.64820  0.47580  1.0000 0.5472903095
C   C68       1.0  0.64820  0.47580  0.46350  1.0000 0.5472903095
C   C69       1.0  0.47580  0.46350  0.64820  1.0000 0.5472903095
C   C70       1.0  0.96350  0.97580  0.14820  1.0000 0.5472903095
C   C71       1.0  0.14820  0.96350  0.97580  1.0000 0.5472903095
C   C72       1.0  0.97580  0.14820  0.96350  1.0000 0.5472903095
O   O1        1.0  0.32232  0.71903  0.34695  1.0000 -0.4913450683
O   O2        1.0  0.71903  0.34695  0.32232  1.0000 -0.4913450683
O   O3        1.0  0.34695  0.32232  0.71903  1.0000 -0.4913450683
O   O4        1.0  0.82232  0.84695  0.21903  1.0000 -0.4913450683
O   O5        1.0  0.21903  0.82232  0.84695  1.0000 -0.4913450683
O   O6        1.0  0.84695  0.21903  0.82232  1.0000 -0.4913450683
O   O7        1.0  0.25464  0.56606  0.29670  1.0000 -0.4106167873
O   O8        1.0  0.56606  0.29670  0.25464  1.0000 -0.4106167873
O   O9        1.0  0.29670  0.25464  0.56606  1.0000 -0.4106167873
O   O10       1.0  0.75464  0.79670  0.06606  1.0000 -0.4106167873
O   O11       1.0  0.06606  0.75464  0.79670  1.0000 -0.4106167873
O   O12       1.0  0.79670  0.06606  0.75464  1.0000 -0.4106167873
O   O13       1.0  0.04248  0.35725  0.96038  1.0000 -0.4996723174
O   O14       1.0  0.35725  0.96038  0.04248  1.0000 -0.4913450683
O   O15       1.0  0.96038  0.04248  0.35725  1.0000 -0.4996723174
O   O16       1.0  0.54248  0.46038  0.85725  1.0000 -0.4913450683
O   O17       1.0  0.85725  0.54248  0.46038  1.0000 -0.4996723174
O   O18       1.0  0.46038  0.85725  0.54248  1.0000 -0.4913450683
O   O19       1.0  0.01625  0.41402  0.86036  1.0000 -0.4106167873
O   O20       1.0  0.41402  0.86036  0.01625  1.0000 -0.4047576393
O   O21       1.0  0.86036  0.01625  0.41402  1.0000 -0.4047576393
O   O22       1.0  0.51625  0.36036  0.91402  1.0000 -0.4047576393
O   O23       1.0  0.91402  0.51625  0.36036  1.0000 -0.4047576393
O   O24       1.0  0.36036  0.91402  0.51625  1.0000 -0.4047576393
O   O25       1.0  0.20680  0.75324  0.97937  1.0000 -0.4996723174
O   O26       1.0  0.75324  0.97937  0.20680  1.0000 -0.4996723174
O   O27       1.0  0.97937  0.20680  0.75324  1.0000 -0.4996723174
O   O28       1.0  0.70680  0.47937  0.25324  1.0000 -0.4996723174
O   O29       1.0  0.25324  0.70680  0.47937  1.0000 -0.4996723174
O   O30       1.0  0.47937  0.25324  0.70680  1.0000 -0.4996723174
O   O31       1.0  0.28859  0.84852  0.13299  1.0000 -0.4202104265
O   O32       1.0  0.84852  0.13299  0.28859  1.0000 -0.4202104265
O   O33       1.0  0.13299  0.28859  0.84852  1.0000 -0.4202104265
O   O34       1.0  0.78859  0.63299  0.34852  1.0000 -0.4202104265
O   O35       1.0  0.34852  0.78859  0.63299  1.0000 -0.4202104265
O   O36       1.0  0.63299  0.34852  0.78859  1.0000 -0.4202104265
O   O37       1.0  0.40872  0.66441  0.50474  1.0000 -0.4787132199
O   O38       1.0  0.66441  0.50474  0.40872  1.0000 -0.4787132199
O   O39       1.0  0.50474  0.40872  0.66441  1.0000 -0.4787132199
O   O40       1.0  0.90872  0.00474  0.16441  1.0000 -0.4787132199
O   O41       1.0  0.16441  0.90872  0.00474  1.0000 -0.4787132199
O   O42       1.0  0.00474  0.16441  0.90872  1.0000 -0.4787132199
O   O43       1.0  0.48822  0.68003  0.42885  1.0000 -0.4106167873
O   O44       1.0  0.68003  0.42885  0.48822  1.0000 -0.4106167873
O   O45       1.0  0.42885  0.48822  0.68003  1.0000 -0.4106167873
O   O46       1.0  0.98822  0.92885  0.18003  1.0000 -0.4106167873
O   O47       1.0  0.18003  0.98822  0.92885  1.0000 -0.4106167873
O   O48       1.0  0.92885  0.18003  0.98822  1.0000 -0.4106167873
