# DDEC6 charges by PACMAN v1.1 (https://github.com/mtap-research/PACMAN-charge/)
data_2012[U][nan]3[FSR]1
_chemical_formula_sum              "U16 P24 H24 C12 O104"
_cell_length_a       15.4974
_cell_length_b       15.4974
_cell_length_c       16.723
_cell_angle_alpha    78.8202
_cell_angle_beta     101.18
_cell_angle_gamma    113.382

_symmetry_space_group_name_H-M    "P 1"
_symmetry_Int_Tables_number       1

loop_
  _symmetry_equiv_pos_as_xyz
  'x, y, z'

loop_
  _atom_site_type_symbol
  _atom_site_label
  _atom_site_symmetry_multiplicity
  _atom_site_fract_x
  _atom_site_fract_y
  _atom_site_fract_z
  _atom_site_occupancy
  _atom_site_charge
U   U1        1.0  0.57008  0.38386  0.44810  1.0000 2.5986495853
U   U2        1.0  0.38386  0.57008  0.05190  1.0000 2.5893143943
U   U3        1.0  0.42992  0.61614  0.55190  1.0000 2.5893143943
U   U4        1.0  0.61614  0.42992  0.94810  1.0000 2.5986495853
U   U5        1.0  0.10270  0.37248  0.37390  1.0000 2.5841386676
U   U6        1.0  0.37248  0.10270  0.12610  1.0000 2.5841386676
U   U7        1.0  0.89730  0.62752  0.62610  1.0000 2.5893143943
U   U8        1.0  0.62752  0.89730  0.87390  1.0000 2.5841386676
U   U9        1.0  0.74442  0.25860  0.73056  1.0000 2.6052761436
U   U10       1.0  0.25860  0.74442  0.76944  1.0000 2.5986495853
U   U11       1.0  0.25558  0.74140  0.26944  1.0000 2.5986495853
U   U12       1.0  0.74140  0.25558  0.23056  1.0000 2.5986495853
U   U13       1.0  0.87272  0.07580  0.53121  1.0000 2.5893143943
U   U14       1.0  0.07580  0.87272  0.96879  1.0000 2.5893143943
U   U15       1.0  0.12728  0.92420  0.46879  1.0000 2.5893143943
U   U16       1.0  0.92420  0.12728  0.03121  1.0000 2.5893143943
P   P1        1.0  0.36135  0.44149  0.40546  1.0000 1.5510524496
P   P2        1.0  0.44149  0.36135  0.09454  1.0000 1.5510524496
P   P3        1.0  0.63865  0.55851  0.59454  1.0000 1.5510524496
P   P4        1.0  0.55851  0.63865  0.90546  1.0000 1.5510524496
P   P5        1.0  0.80637  0.40131  0.53459  1.0000 1.5510524496
P   P6        1.0  0.40131  0.80637  0.96541  1.0000 1.5510524496
P   P7        1.0  0.19363  0.59869  0.46541  1.0000 1.5510524496
P   P8        1.0  0.59869  0.19363  0.03459  1.0000 1.5510524496
P   P9        1.0  0.28492  0.53216  0.24318  1.0000 1.5510524496
P   P10       1.0  0.53216  0.28492  0.25682  1.0000 1.5510524496
P   P11       1.0  0.71508  0.46784  0.75682  1.0000 1.5510524496
P   P12       1.0  0.46784  0.71508  0.74318  1.0000 1.5510524496
P   P13       1.0  0.86407  0.28809  0.43516  1.0000 1.5313839972
P   P14       1.0  0.28809  0.86407  0.06484  1.0000 1.5313839972
P   P15       1.0  0.13593  0.71191  0.56484  1.0000 1.5313839972
P   P16       1.0  0.71191  0.13593  0.93516  1.0000 1.5313839972
P   P17       1.0  0.95153  0.21229  0.22508  1.0000 1.5510524496
P   P18       1.0  0.21229  0.95153  0.27492  1.0000 1.5510524496
P   P19       1.0  0.04847  0.78771  0.77492  1.0000 1.5510524496
P   P20       1.0  0.78771  0.04847  0.72508  1.0000 1.5510524496
P   P21       1.0  0.03792  0.11808  0.38299  1.0000 1.5446973205
P   P22       1.0  0.11808  0.03792  0.11701  1.0000 1.5446973205
P   P23       1.0  0.96208  0.88192  0.61701  1.0000 1.5446973205
P   P24       1.0  0.88192  0.96208  0.88299  1.0000 1.5446973205
H   H1        1.0  0.35330  0.42090  0.27110  1.0000 0.2321280524
H   H2        1.0  0.42090  0.35330  0.22890  1.0000 0.2321280524
H   H3        1.0  0.64670  0.57910  0.72890  1.0000 0.2321280524
H   H4        1.0  0.57910  0.64670  0.77110  1.0000 0.2321280524
H   H5        1.0  0.42980  0.52020  0.28830  1.0000 0.2484040022
H   H6        1.0  0.52020  0.42980  0.21170  1.0000 0.2484040022
H   H7        1.0  0.57020  0.47980  0.71170  1.0000 0.2484040022
H   H8        1.0  0.47980  0.57020  0.78830  1.0000 0.2484040022
H   H9        1.0  0.94500  0.38300  0.53450  1.0000 0.2384071857
H   H10       1.0  0.38300  0.94500  0.96550  1.0000 0.2384071857
H   H11       1.0  0.05500  0.61700  0.46550  1.0000 0.2384071857
H   H12       1.0  0.61700  0.05500  0.03450  1.0000 0.2384071857
H   H13       1.0  0.92250  0.44370  0.45330  1.0000 0.2384071857
H   H14       1.0  0.44370  0.92250  0.04670  1.0000 0.2384071857
H   H15       1.0  0.07750  0.55630  0.54670  1.0000 0.2384071857
H   H16       1.0  0.55630  0.07750  0.95330  1.0000 0.2384071857
H   H17       1.0  0.94530  0.05970  0.26740  1.0000 0.2384071857
H   H18       1.0  0.05970  0.94530  0.23260  1.0000 0.2384071857
H   H19       1.0  0.05470  0.94030  0.73260  1.0000 0.2384071857
H   H20       1.0  0.94030  0.05470  0.76740  1.0000 0.2384071857
H   H21       1.0  0.04700  0.12560  0.24730  1.0000 0.2321280524
H   H22       1.0  0.12560  0.04700  0.25270  1.0000 0.2321280524
H   H23       1.0  0.95300  0.87440  0.75270  1.0000 0.2321280524
H   H24       1.0  0.87440  0.95300  0.74730  1.0000 0.2321280524
C   C1        1.0  0.36580  0.47680  0.29640  1.0000 -0.8100400408
C   C2        1.0  0.47680  0.36580  0.20360  1.0000 -0.8100400408
C   C3        1.0  0.63420  0.52320  0.70360  1.0000 -0.8100400408
C   C4        1.0  0.52320  0.63420  0.79640  1.0000 -0.8100400408
C   C5        1.0  0.89520  0.38640  0.49030  1.0000 -0.7700289727
C   C6        1.0  0.38640  0.89520  0.00970  1.0000 -0.7700289727
C   C7        1.0  0.10480  0.61360  0.50970  1.0000 -0.7700289727
C   C8        1.0  0.61360  0.10480  0.99030  1.0000 -0.7700289727
C   C9        1.0  0.99580  0.12040  0.27560  1.0000 -0.7999841842
C   C10       1.0  0.12040  0.99580  0.22440  1.0000 -0.7999841842
C   C11       1.0  0.00420  0.87960  0.72440  1.0000 -0.7999841842
C   C12       1.0  0.87960  0.00420  0.77560  1.0000 -0.7999841842
O   O1        1.0  0.41690  0.37530  0.43300  1.0000 -0.7999841842
O   O2        1.0  0.37530  0.41690  0.06700  1.0000 -0.7999841842
O   O3        1.0  0.58310  0.62470  0.56700  1.0000 -0.7999841842
O   O4        1.0  0.62470  0.58310  0.93300  1.0000 -0.7999841842
O   O5        1.0  0.54450  0.28010  0.52190  1.0000 -0.6075172216
O   O6        1.0  0.28010  0.54450  0.97810  1.0000 -0.6075172216
O   O7        1.0  0.45550  0.71990  0.47810  1.0000 -0.6075172216
O   O8        1.0  0.71990  0.45550  0.02190  1.0000 -0.6075172216
O   O9        1.0  0.59340  0.48540  0.37170  1.0000 -0.6494758517
O   O10       1.0  0.48540  0.59340  0.12830  1.0000 -0.6494758517
O   O11       1.0  0.40660  0.51460  0.62830  1.0000 -0.6494758517
O   O12       1.0  0.51460  0.40660  0.87170  1.0000 -0.6494758517
O   O13       1.0  0.72760  0.40840  0.46690  1.0000 -0.7903351948
O   O14       1.0  0.40840  0.72760  0.03310  1.0000 -0.7903351948
O   O15       1.0  0.27240  0.59160  0.53310  1.0000 -0.7903351948
O   O16       1.0  0.59160  0.27240  0.96690  1.0000 -0.7903351948
O   O17       1.0  0.53410  0.28550  0.34970  1.0000 -0.7999841842
O   O18       1.0  0.28550  0.53410  0.15030  1.0000 -0.7999841842
O   O19       1.0  0.46590  0.71450  0.65030  1.0000 -0.7999841842
O   O20       1.0  0.71450  0.46590  0.84970  1.0000 -0.7999841842
O   O21       1.0  0.59480  0.47000  0.55100  1.0000 -0.8160276502
O   O22       1.0  0.47000  0.59480  0.94900  1.0000 -0.8160276502
O   O23       1.0  0.40520  0.53000  0.44900  1.0000 -0.8160276502
O   O24       1.0  0.53000  0.40520  0.05100  1.0000 -0.8160276502
O   O25       1.0  0.25780  0.38660  0.41710  1.0000 -0.7799071561
O   O26       1.0  0.38660  0.25780  0.08290  1.0000 -0.7799071561
O   O27       1.0  0.74220  0.61340  0.58290  1.0000 -0.7799071561
O   O28       1.0  0.61340  0.74220  0.91710  1.0000 -0.7799071561
O   O29       1.0  0.77020  0.31640  0.59810  1.0000 -0.8100400408
O   O30       1.0  0.31640  0.77020  0.90190  1.0000 -0.8100400408
O   O31       1.0  0.22980  0.68360  0.40190  1.0000 -0.8100400408
O   O32       1.0  0.68360  0.22980  0.09810  1.0000 -0.8100400408
O   O33       1.0  0.85660  0.49360  0.57310  1.0000 -0.7999841842
O   O34       1.0  0.49360  0.85660  0.92690  1.0000 -0.7999841842
O   O35       1.0  0.14340  0.50640  0.42690  1.0000 -0.7999841842
O   O36       1.0  0.50640  0.14340  0.07310  1.0000 -0.7999841842
O   O37       1.0  0.63170  0.32030  0.23230  1.0000 -0.8100400408
O   O38       1.0  0.32030  0.63170  0.26770  1.0000 -0.8160276502
O   O39       1.0  0.36830  0.67970  0.76770  1.0000 -0.8160276502
O   O40       1.0  0.67970  0.36830  0.73230  1.0000 -0.8100400408
O   O41       1.0  0.01850  0.30530  0.25580  1.0000 -0.7903351948
O   O42       1.0  0.30530  0.01850  0.24420  1.0000 -0.7903351948
O   O43       1.0  0.98150  0.69470  0.74420  1.0000 -0.7903351948
O   O44       1.0  0.69470  0.98150  0.75580  1.0000 -0.7903351948
O   O45       1.0  0.18640  0.47040  0.26590  1.0000 -0.8100400408
O   O46       1.0  0.47040  0.18640  0.23410  1.0000 -0.8100400408
O   O47       1.0  0.81360  0.52960  0.73410  1.0000 -0.8100400408
O   O48       1.0  0.52960  0.81360  0.76590  1.0000 -0.8100400408
O   O49       1.0  0.99660  0.46100  0.29900  1.0000 -0.3222772122
O   O50       1.0  0.46100  0.99660  0.20100  1.0000 -0.3222772122
O   O51       1.0  0.00340  0.53900  0.70100  1.0000 -0.3257023931
O   O52       1.0  0.53900  0.00340  0.79900  1.0000 -0.3222772122
O   O53       1.0  0.10340  0.22020  0.39730  1.0000 -0.7903351948
O   O54       1.0  0.22020  0.10340  0.10270  1.0000 -0.7903351948
O   O55       1.0  0.89660  0.77980  0.60270  1.0000 -0.7903351948
O   O56       1.0  0.77980  0.89660  0.89730  1.0000 -0.7903351948
O   O57       1.0  0.12160  0.32880  0.53000  1.0000 -0.3090837241
O   O58       1.0  0.32880  0.12160  0.97000  1.0000 -0.3090837241
O   O59       1.0  0.87840  0.67120  0.47000  1.0000 -0.3090837241
O   O60       1.0  0.67120  0.87840  0.03000  1.0000 -0.3090837241
O   O61       1.0  0.95730  0.28810  0.41790  1.0000 -0.8286412001
O   O62       1.0  0.28810  0.95730  0.08210  1.0000 -0.8286412001
O   O63       1.0  0.04270  0.71190  0.58210  1.0000 -0.8286412001
O   O64       1.0  0.71190  0.04270  0.91790  1.0000 -0.8286412001
O   O65       1.0  0.79960  0.30180  0.35660  1.0000 -0.7799071561
O   O66       1.0  0.30180  0.79960  0.14340  1.0000 -0.7799071561
O   O67       1.0  0.20040  0.69820  0.64340  1.0000 -0.7799071561
O   O68       1.0  0.69820  0.20040  0.85660  1.0000 -0.7799071561
O   O69       1.0  0.81410  0.19570  0.48790  1.0000 -0.7799071561
O   O70       1.0  0.19570  0.81410  0.01210  1.0000 -0.7799071561
O   O71       1.0  0.18590  0.80430  0.51210  1.0000 -0.7799071561
O   O72       1.0  0.80430  0.18590  0.98790  1.0000 -0.7799071561
O   O73       1.0  0.82610  0.36710  0.19180  1.0000 -0.5698876471
O   O74       1.0  0.36710  0.82610  0.30820  1.0000 -0.5698876471
O   O75       1.0  0.17390  0.63290  0.80820  1.0000 -0.5698876471
O   O76       1.0  0.63290  0.17390  0.69180  1.0000 -0.5698876471
O   O77       1.0  0.66160  0.14260  0.27120  1.0000 -0.6025262117
O   O78       1.0  0.14260  0.66160  0.22880  1.0000 -0.6025262117
O   O79       1.0  0.33840  0.85740  0.72880  1.0000 -0.6025262117
O   O80       1.0  0.85740  0.33840  0.77120  1.0000 -0.6025262117
O   O81       1.0  0.85012  0.18348  0.24240  1.0000 -0.8100400408
O   O82       1.0  0.18348  0.85012  0.25760  1.0000 -0.8160276502
O   O83       1.0  0.14988  0.81652  0.75760  1.0000 -0.8160276502
O   O84       1.0  0.81652  0.14988  0.74240  1.0000 -0.8100400408
O   O85       1.0  0.95600  0.21820  0.13290  1.0000 -0.7903351948
O   O86       1.0  0.21820  0.95600  0.36710  1.0000 -0.7903351948
O   O87       1.0  0.04400  0.78180  0.86710  1.0000 -0.7903351948
O   O88       1.0  0.78180  0.04400  0.63290  1.0000 -0.7903351948
O   O89       1.0  0.09450  0.05350  0.40350  1.0000 -0.7999841842
O   O90       1.0  0.05350  0.09450  0.09650  1.0000 -0.7999841842
O   O91       1.0  0.90550  0.94650  0.59650  1.0000 -0.8100400408
O   O92       1.0  0.94650  0.90550  0.90350  1.0000 -0.8100400408
O   O93       1.0  0.95220  0.07880  0.42980  1.0000 -0.8160276502
O   O94       1.0  0.07880  0.95220  0.07020  1.0000 -0.8160276502
O   O95       1.0  0.04780  0.92120  0.57020  1.0000 -0.8160276502
O   O96       1.0  0.92120  0.04780  0.92980  1.0000 -0.8160276502
O   O97       1.0  0.97590  0.15190  0.58770  1.0000 -0.6304415256
O   O98       1.0  0.15190  0.97590  0.91230  1.0000 -0.6304415256
O   O99       1.0  0.02410  0.84810  0.41230  1.0000 -0.6304415256
O   O100      1.0  0.84810  0.02410  0.08770  1.0000 -0.6304415256
O   O101      1.0  0.77010  0.00050  0.47430  1.0000 -0.5922179163
O   O102      1.0  0.00050  0.77010  0.02570  1.0000 -0.5922179163
O   O103      1.0  0.22990  0.99950  0.52570  1.0000 -0.5922179163
O   O104      1.0  0.99950  0.22990  0.97430  1.0000 -0.5922179163
