# DDEC6 charges by PACMAN v1.1 (https://github.com/mtap-research/PACMAN-charge/)
data_2012[Zn][sod]3[FSR]3
_chemical_formula_sum              "Zn6 H60 C48 N24"
_cell_length_a       14.7969
_cell_length_b       14.7969
_cell_length_c       14.7969
_cell_angle_alpha    109.471
_cell_angle_beta     109.471
_cell_angle_gamma    109.471

_symmetry_space_group_name_H-M    "P 1"
_symmetry_Int_Tables_number       1

loop_
  _symmetry_equiv_pos_as_xyz
  'x, y, z'

loop_
  _atom_site_type_symbol
  _atom_site_label
  _atom_site_symmetry_multiplicity
  _atom_site_fract_x
  _atom_site_fract_y
  _atom_site_fract_z
  _atom_site_occupancy
  _atom_site_charge
Zn  Zn1       1.0  0.25000  0.50000  0.75000  1.0000 0.6626445546
Zn  Zn2       1.0  0.75000  0.50000  0.25000  1.0000 0.6626445546
Zn  Zn3       1.0  0.75000  0.25000  0.50000  1.0000 0.6626445546
Zn  Zn4       1.0  0.25000  0.75000  0.50000  1.0000 0.6626445546
Zn  Zn5       1.0  0.50000  0.75000  0.25000  1.0000 0.6626445546
Zn  Zn6       1.0  0.50000  0.25000  0.75000  1.0000 0.6626445546
H   H1        1.0  0.10250  0.51650  0.86520  1.0000 0.1151264653
H   H2        1.0  0.65130  0.23730  0.13480  1.0000 0.1151264653
H   H3        1.0  0.34870  0.48350  0.58600  1.0000 0.1151264653
H   H4        1.0  0.89750  0.76270  0.41400  1.0000 0.1151264653
H   H5        1.0  0.86520  0.10250  0.51650  1.0000 0.1151264653
H   H6        1.0  0.13480  0.65130  0.23730  1.0000 0.1151264653
H   H7        1.0  0.58600  0.34870  0.48350  1.0000 0.1151264653
H   H8        1.0  0.41400  0.89750  0.76270  1.0000 0.1151264653
H   H9        1.0  0.51650  0.86520  0.10250  1.0000 0.1151264653
H   H10       1.0  0.23730  0.13480  0.65130  1.0000 0.1151264653
H   H11       1.0  0.48350  0.58600  0.34870  1.0000 0.1151264653
H   H12       1.0  0.76270  0.41400  0.89750  1.0000 0.1151264653
H   H13       1.0  0.51650  0.10250  0.86520  1.0000 0.1151264653
H   H14       1.0  0.23730  0.65130  0.13480  1.0000 0.1151264653
H   H15       1.0  0.48350  0.34870  0.58600  1.0000 0.1151264653
H   H16       1.0  0.76270  0.89750  0.41400  1.0000 0.1151264653
H   H17       1.0  0.10250  0.86520  0.51650  1.0000 0.1151264653
H   H18       1.0  0.65130  0.13480  0.23730  1.0000 0.1151264653
H   H19       1.0  0.34870  0.58600  0.48350  1.0000 0.1151264653
H   H20       1.0  0.89750  0.41400  0.76270  1.0000 0.1151264653
H   H21       1.0  0.86520  0.51650  0.10250  1.0000 0.1151264653
H   H22       1.0  0.13480  0.23730  0.65130  1.0000 0.1151264653
H   H23       1.0  0.58600  0.48350  0.34870  1.0000 0.1151264653
H   H24       1.0  0.41400  0.76270  0.89750  1.0000 0.1151264653
H   H25       1.0  0.00000  0.25130  0.49250  1.0000 0.1535916746
H   H26       1.0  0.75880  0.50750  0.50750  1.0000 0.1535916746
H   H27       1.0  0.24120  0.74870  0.74870  1.0000 0.1535916746
H   H28       1.0  0.00000  0.49250  0.25130  1.0000 0.1535916746
H   H29       1.0  0.49250  0.00000  0.25130  1.0000 0.1535916746
H   H30       1.0  0.50750  0.75880  0.50750  1.0000 0.1535916746
H   H31       1.0  0.74870  0.24120  0.74870  1.0000 0.1535916746
H   H32       1.0  0.25130  0.00000  0.49250  1.0000 0.1535916746
H   H33       1.0  0.25130  0.49250  0.00000  1.0000 0.1535916746
H   H34       1.0  0.50750  0.50750  0.75880  1.0000 0.1535916746
H   H35       1.0  0.74870  0.74870  0.24120  1.0000 0.1535916746
H   H36       1.0  0.49250  0.25130  0.00000  1.0000 0.1535916746
H   H37       1.0  0.06620  0.37340  0.51360  1.0000 0.1552361742
H   H38       1.0  0.85980  0.55260  0.48640  1.0000 0.1552361742
H   H39       1.0  0.14020  0.62660  0.69280  1.0000 0.1552361742
H   H40       1.0  0.93380  0.44740  0.30720  1.0000 0.1552361742
H   H41       1.0  0.51360  0.06620  0.37340  1.0000 0.1552361742
H   H42       1.0  0.48640  0.85980  0.55260  1.0000 0.1552361742
H   H43       1.0  0.69280  0.14020  0.62660  1.0000 0.1552361742
H   H44       1.0  0.30720  0.93380  0.44740  1.0000 0.1552361742
H   H45       1.0  0.37340  0.51360  0.06620  1.0000 0.1552361742
H   H46       1.0  0.55260  0.48640  0.85980  1.0000 0.1552361742
H   H47       1.0  0.62660  0.69280  0.14020  1.0000 0.1552361742
H   H48       1.0  0.44740  0.30720  0.93380  1.0000 0.1552361742
H   H49       1.0  0.37340  0.06620  0.51360  1.0000 0.1552361742
H   H50       1.0  0.55260  0.85980  0.48640  1.0000 0.1552361742
H   H51       1.0  0.62660  0.14020  0.69280  1.0000 0.1552361742
H   H52       1.0  0.44740  0.93380  0.30720  1.0000 0.1552361742
H   H53       1.0  0.06620  0.51360  0.37340  1.0000 0.1552361742
H   H54       1.0  0.85980  0.48640  0.55260  1.0000 0.1552361742
H   H55       1.0  0.14020  0.69280  0.62660  1.0000 0.1552361742
H   H56       1.0  0.93380  0.30720  0.44740  1.0000 0.1552361742
H   H57       1.0  0.51360  0.37340  0.06620  1.0000 0.1552361742
H   H58       1.0  0.48640  0.55260  0.85980  1.0000 0.1552361742
H   H59       1.0  0.69280  0.62660  0.14020  1.0000 0.1552361742
H   H60       1.0  0.30720  0.44740  0.93380  1.0000 0.1552361742
C   C1        1.0  0.00000  0.36882  0.61459  1.0000 0.3900964851
C   C2        1.0  0.75423  0.38542  0.38542  1.0000 0.3900964851
C   C3        1.0  0.24577  0.63118  0.63118  1.0000 0.3900964851
C   C4        1.0  0.00000  0.61459  0.36881  1.0000 0.3900964851
C   C5        1.0  0.61459  0.00000  0.36881  1.0000 0.3900964851
C   C6        1.0  0.38542  0.75423  0.38542  1.0000 0.3900964851
C   C7        1.0  0.63118  0.24577  0.63118  1.0000 0.3900964851
C   C8        1.0  0.36881  0.00000  0.61459  1.0000 0.3900964851
C   C9        1.0  0.36882  0.61459  0.00000  1.0000 0.3900964851
C   C10       1.0  0.38541  0.38542  0.75423  1.0000 0.3900964851
C   C11       1.0  0.63119  0.63118  0.24577  1.0000 0.3900964851
C   C12       1.0  0.61459  0.36882  0.00000  1.0000 0.3900964851
C   C13       1.0  0.05652  0.46690  0.78778  1.0000 -0.0711294042
C   C14       1.0  0.67912  0.26874  0.21222  1.0000 -0.0711294042
C   C15       1.0  0.32088  0.53310  0.58962  1.0000 -0.0711294042
C   C16       1.0  0.94348  0.73126  0.41038  1.0000 -0.0711294042
C   C17       1.0  0.78778  0.05652  0.46690  1.0000 -0.0711294042
C   C18       1.0  0.21222  0.67912  0.26874  1.0000 -0.0711294042
C   C19       1.0  0.58962  0.32088  0.53310  1.0000 -0.0711294042
C   C20       1.0  0.41038  0.94348  0.73126  1.0000 -0.0711294042
C   C21       1.0  0.46690  0.78778  0.05652  1.0000 -0.0711294042
C   C22       1.0  0.26874  0.21222  0.67912  1.0000 -0.0711294042
C   C23       1.0  0.53310  0.58962  0.32088  1.0000 -0.0711294042
C   C24       1.0  0.73126  0.41038  0.94348  1.0000 -0.0711294042
C   C25       1.0  0.46690  0.05652  0.78778  1.0000 -0.0711294042
C   C26       1.0  0.26874  0.67912  0.21222  1.0000 -0.0711294042
C   C27       1.0  0.53310  0.32088  0.58962  1.0000 -0.0711294042
C   C28       1.0  0.73126  0.94348  0.41038  1.0000 -0.0711294042
C   C29       1.0  0.05652  0.78778  0.46690  1.0000 -0.0711294042
C   C30       1.0  0.67912  0.21222  0.26874  1.0000 -0.0711294042
C   C31       1.0  0.32088  0.58962  0.53310  1.0000 -0.0711294042
C   C32       1.0  0.94348  0.41038  0.73126  1.0000 -0.0711294042
C   C33       1.0  0.78778  0.46690  0.05652  1.0000 -0.0711294042
C   C34       1.0  0.21222  0.26874  0.67912  1.0000 -0.0711294042
C   C35       1.0  0.58962  0.53310  0.32088  1.0000 -0.0711294042
C   C36       1.0  0.41038  0.73126  0.94348  1.0000 -0.0711294042
C   C37       1.0  0.00000  0.32100  0.50780  1.0000 -0.544959496
C   C38       1.0  0.81320  0.49220  0.49220  1.0000 -0.545770349
C   C39       1.0  0.18680  0.67900  0.67900  1.0000 -0.545770349
C   C40       1.0  0.00000  0.50780  0.32100  1.0000 -0.545770349
C   C41       1.0  0.50780  0.00000  0.32100  1.0000 -0.545770349
C   C42       1.0  0.49220  0.81320  0.49220  1.0000 -0.545770349
C   C43       1.0  0.67900  0.18680  0.67900  1.0000 -0.545770349
C   C44       1.0  0.32100  0.00000  0.50780  1.0000 -0.544959496
C   C45       1.0  0.32100  0.50780  0.00000  1.0000 -0.544959496
C   C46       1.0  0.49220  0.49220  0.81320  1.0000 -0.544959496
C   C47       1.0  0.67900  0.67900  0.18680  1.0000 -0.545770349
C   C48       1.0  0.50780  0.32100  0.00000  1.0000 -0.544959496
N   N1        1.0  0.09235  0.43952  0.71295  1.0000 -0.364022207
N   N2        1.0  0.72657  0.37940  0.28705  1.0000 -0.364022207
N   N3        1.0  0.27343  0.56048  0.65283  1.0000 -0.364022207
N   N4        1.0  0.90765  0.62060  0.34717  1.0000 -0.364022207
N   N5        1.0  0.71295  0.09235  0.43952  1.0000 -0.364022207
N   N6        1.0  0.28705  0.72657  0.37940  1.0000 -0.364022207
N   N7        1.0  0.65283  0.27343  0.56048  1.0000 -0.364022207
N   N8        1.0  0.34717  0.90765  0.62060  1.0000 -0.364022207
N   N9        1.0  0.43952  0.71295  0.09235  1.0000 -0.364022207
N   N10       1.0  0.37940  0.28705  0.72657  1.0000 -0.364022207
N   N11       1.0  0.56048  0.65283  0.27343  1.0000 -0.364022207
N   N12       1.0  0.62060  0.34717  0.90765  1.0000 -0.364022207
N   N13       1.0  0.43952  0.09235  0.71295  1.0000 -0.364022207
N   N14       1.0  0.37940  0.72657  0.28705  1.0000 -0.364022207
N   N15       1.0  0.56048  0.27343  0.65283  1.0000 -0.364022207
N   N16       1.0  0.62060  0.90765  0.34717  1.0000 -0.364022207
N   N17       1.0  0.09235  0.71295  0.43952  1.0000 -0.364022207
N   N18       1.0  0.72657  0.28705  0.37940  1.0000 -0.364022207
N   N19       1.0  0.27343  0.65283  0.56048  1.0000 -0.364022207
N   N20       1.0  0.90765  0.34717  0.62060  1.0000 -0.364022207
N   N21       1.0  0.71295  0.43952  0.09235  1.0000 -0.364022207
N   N22       1.0  0.28705  0.37940  0.72657  1.0000 -0.364022207
N   N23       1.0  0.65283  0.56048  0.27343  1.0000 -0.364022207
N   N24       1.0  0.34717  0.62060  0.90765  1.0000 -0.364022207
