# DDEC6 charges by PACMAN v1.1 (https://github.com/mtap-research/PACMAN-charge/)
data_2012[Zn][sod]3[FSR]10
_chemical_formula_sum              "Zn6 H60 C24 N48"
_cell_length_a       14.7915
_cell_length_b       14.7915
_cell_length_c       14.7915
_cell_angle_alpha    109.471
_cell_angle_beta     109.471
_cell_angle_gamma    109.471

_symmetry_space_group_name_H-M    "P 1"
_symmetry_Int_Tables_number       1

loop_
  _symmetry_equiv_pos_as_xyz
  'x, y, z'

loop_
  _atom_site_type_symbol
  _atom_site_label
  _atom_site_symmetry_multiplicity
  _atom_site_fract_x
  _atom_site_fract_y
  _atom_site_fract_z
  _atom_site_occupancy
  _atom_site_charge
Zn  Zn1       1.0  0.25000  0.50000  0.75000  1.0000 0.6241036685
Zn  Zn2       1.0  0.75000  0.50000  0.25000  1.0000 0.6241036685
Zn  Zn3       1.0  0.75000  0.25000  0.50000  1.0000 0.6241036685
Zn  Zn4       1.0  0.25000  0.75000  0.50000  1.0000 0.6241036685
Zn  Zn5       1.0  0.50000  0.75000  0.25000  1.0000 0.6241036685
Zn  Zn6       1.0  0.50000  0.25000  0.75000  1.0000 0.6241036685
H   H1        1.0  0.10090  0.56590  0.83860  1.0000 0.241734714
H   H2        1.0  0.72730  0.26230  0.16140  1.0000 0.241734714
H   H3        1.0  0.27270  0.43410  0.53500  1.0000 0.241734714
H   H4        1.0  0.89910  0.73770  0.46500  1.0000 0.241734714
H   H5        1.0  0.83860  0.10090  0.56590  1.0000 0.241734714
H   H6        1.0  0.16140  0.72730  0.26230  1.0000 0.241734714
H   H7        1.0  0.53500  0.27270  0.43410  1.0000 0.241734714
H   H8        1.0  0.46500  0.89910  0.73770  1.0000 0.241734714
H   H9        1.0  0.56590  0.83860  0.10090  1.0000 0.241734714
H   H10       1.0  0.26230  0.16140  0.72730  1.0000 0.241734714
H   H11       1.0  0.43410  0.53500  0.27270  1.0000 0.241734714
H   H12       1.0  0.73770  0.46500  0.89910  1.0000 0.241734714
H   H13       1.0  0.56590  0.10090  0.83860  1.0000 0.241734714
H   H14       1.0  0.26230  0.72730  0.16140  1.0000 0.241734714
H   H15       1.0  0.43410  0.27270  0.53500  1.0000 0.241734714
H   H16       1.0  0.73770  0.89910  0.46500  1.0000 0.241734714
H   H17       1.0  0.10090  0.83860  0.56590  1.0000 0.241734714
H   H18       1.0  0.72730  0.16140  0.26230  1.0000 0.241734714
H   H19       1.0  0.27270  0.53500  0.43410  1.0000 0.241734714
H   H20       1.0  0.89910  0.46500  0.73770  1.0000 0.241734714
H   H21       1.0  0.83860  0.56590  0.10090  1.0000 0.241734714
H   H22       1.0  0.16140  0.26230  0.72730  1.0000 0.241734714
H   H23       1.0  0.53500  0.43410  0.27270  1.0000 0.241734714
H   H24       1.0  0.46500  0.73770  0.89910  1.0000 0.241734714
H   H25       1.0  0.00000  0.20835  0.54605  1.0000 0.1308614643
H   H26       1.0  0.66230  0.45395  0.45395  1.0000 0.1308614643
H   H27       1.0  0.33770  0.79165  0.79165  1.0000 0.1308614643
H   H28       1.0  0.00000  0.54605  0.20835  1.0000 0.1308614643
H   H29       1.0  0.54605  0.00000  0.20835  1.0000 0.1308614643
H   H30       1.0  0.45395  0.66230  0.45395  1.0000 0.1308614643
H   H31       1.0  0.79165  0.33770  0.79165  1.0000 0.1308614643
H   H32       1.0  0.20835  0.00000  0.54605  1.0000 0.1308614643
H   H33       1.0  0.20835  0.54605  0.00000  1.0000 0.1308614643
H   H34       1.0  0.45395  0.45395  0.66230  1.0000 0.1308614643
H   H35       1.0  0.79165  0.79165  0.33770  1.0000 0.1308614643
H   H36       1.0  0.54605  0.20835  0.00000  1.0000 0.1308614643
H   H37       1.0  0.06630  0.30220  0.52530  1.0000 0.1422839544
H   H38       1.0  0.77690  0.54100  0.47470  1.0000 0.1422839544
H   H39       1.0  0.22310  0.69780  0.76410  1.0000 0.1422839544
H   H40       1.0  0.93370  0.45900  0.23590  1.0000 0.1422839544
H   H41       1.0  0.52530  0.06630  0.30220  1.0000 0.1422839544
H   H42       1.0  0.47470  0.77690  0.54100  1.0000 0.1422839544
H   H43       1.0  0.76410  0.22310  0.69780  1.0000 0.1422839544
H   H44       1.0  0.23590  0.93370  0.45900  1.0000 0.1422839544
H   H45       1.0  0.30220  0.52530  0.06630  1.0000 0.1422839544
H   H46       1.0  0.54100  0.47470  0.77690  1.0000 0.1422839544
H   H47       1.0  0.69780  0.76410  0.22310  1.0000 0.1422839544
H   H48       1.0  0.45900  0.23590  0.93370  1.0000 0.1422839544
H   H49       1.0  0.30220  0.06630  0.52530  1.0000 0.1422839544
H   H50       1.0  0.54100  0.77690  0.47470  1.0000 0.1422839544
H   H51       1.0  0.69780  0.22310  0.76410  1.0000 0.1422839544
H   H52       1.0  0.45900  0.93370  0.23590  1.0000 0.1422839544
H   H53       1.0  0.06630  0.52530  0.30220  1.0000 0.1422839544
H   H54       1.0  0.77690  0.47470  0.54100  1.0000 0.1422839544
H   H55       1.0  0.22310  0.76410  0.69780  1.0000 0.1422839544
H   H56       1.0  0.93370  0.23590  0.45900  1.0000 0.1422839544
H   H57       1.0  0.52530  0.30220  0.06630  1.0000 0.1422839544
H   H58       1.0  0.47470  0.54100  0.77690  1.0000 0.1422839544
H   H59       1.0  0.76410  0.69780  0.22310  1.0000 0.1422839544
H   H60       1.0  0.23590  0.45900  0.93370  1.0000 0.1422839544
C   C1        1.0  0.00000  0.35288  0.62052  1.0000 0.3284093843
C   C2        1.0  0.73236  0.37948  0.37948  1.0000 0.3284093843
C   C3        1.0  0.26764  0.64712  0.64712  1.0000 0.3284093843
C   C4        1.0  0.00000  0.62052  0.35288  1.0000 0.3284093843
C   C5        1.0  0.62052  0.00000  0.35288  1.0000 0.3284093843
C   C6        1.0  0.37948  0.73236  0.37948  1.0000 0.3284093843
C   C7        1.0  0.64712  0.26764  0.64712  1.0000 0.3284093843
C   C8        1.0  0.35288  0.00000  0.62052  1.0000 0.3284093843
C   C9        1.0  0.35288  0.62052  0.00000  1.0000 0.3284093843
C   C10       1.0  0.37948  0.37948  0.73236  1.0000 0.3284093843
C   C11       1.0  0.64712  0.64712  0.26764  1.0000 0.3284093843
C   C12       1.0  0.62052  0.35288  0.00000  1.0000 0.3284093843
C   C13       1.0  0.00000  0.26739  0.52980  1.0000 -0.5124741985
C   C14       1.0  0.73759  0.47019  0.47019  1.0000 -0.5124741985
C   C15       1.0  0.26241  0.73260  0.73260  1.0000 -0.5124741985
C   C16       1.0  0.00000  0.52980  0.26739  1.0000 -0.5124741985
C   C17       1.0  0.52980  0.00000  0.26739  1.0000 -0.5124741985
C   C18       1.0  0.47019  0.73759  0.47019  1.0000 -0.5124741985
C   C19       1.0  0.73260  0.26241  0.73260  1.0000 -0.5124741985
C   C20       1.0  0.26739  0.00000  0.52980  1.0000 -0.5124741985
C   C21       1.0  0.26739  0.52980  0.00000  1.0000 -0.5124741985
C   C22       1.0  0.47019  0.47019  0.73759  1.0000 -0.5124741985
C   C23       1.0  0.73260  0.73260  0.26241  1.0000 -0.5124741985
C   C24       1.0  0.52980  0.26739  0.00000  1.0000 -0.5124741985
N   N1        1.0  0.09157  0.44179  0.71096  1.0000 -0.323617187
N   N2        1.0  0.73083  0.38061  0.28904  1.0000 -0.323617187
N   N3        1.0  0.26917  0.55821  0.64978  1.0000 -0.323617187
N   N4        1.0  0.90843  0.61939  0.35022  1.0000 -0.323617187
N   N5        1.0  0.71096  0.09157  0.44179  1.0000 -0.323617187
N   N6        1.0  0.28904  0.73083  0.38061  1.0000 -0.323617187
N   N7        1.0  0.64978  0.26917  0.55821  1.0000 -0.323617187
N   N8        1.0  0.35022  0.90843  0.61939  1.0000 -0.323617187
N   N9        1.0  0.44179  0.71096  0.09157  1.0000 -0.323617187
N   N10       1.0  0.38061  0.28904  0.73083  1.0000 -0.323617187
N   N11       1.0  0.55821  0.64978  0.26917  1.0000 -0.323617187
N   N12       1.0  0.61939  0.35022  0.90843  1.0000 -0.323617187
N   N13       1.0  0.44179  0.09157  0.71096  1.0000 -0.323617187
N   N14       1.0  0.38061  0.73083  0.28904  1.0000 -0.323617187
N   N15       1.0  0.55821  0.26917  0.64978  1.0000 -0.323617187
N   N16       1.0  0.61939  0.90843  0.35022  1.0000 -0.323617187
N   N17       1.0  0.09157  0.71096  0.44179  1.0000 -0.323617187
N   N18       1.0  0.73083  0.28904  0.38061  1.0000 -0.323617187
N   N19       1.0  0.26917  0.64978  0.55821  1.0000 -0.323617187
N   N20       1.0  0.90843  0.35022  0.61939  1.0000 -0.323617187
N   N21       1.0  0.71096  0.44179  0.09157  1.0000 -0.323617187
N   N22       1.0  0.28904  0.38061  0.73083  1.0000 -0.323617187
N   N23       1.0  0.64978  0.55821  0.26917  1.0000 -0.323617187
N   N24       1.0  0.35022  0.61939  0.90843  1.0000 -0.323617187
N   N25       1.0  0.05510  0.49842  0.76984  1.0000 -0.1905698752
N   N26       1.0  0.72858  0.28526  0.23016  1.0000 -0.1846166619
N   N27       1.0  0.27142  0.50158  0.55668  1.0000 -0.1905698752
N   N28       1.0  0.94490  0.71474  0.44332  1.0000 -0.1846166619
N   N29       1.0  0.76984  0.05510  0.49842  1.0000 -0.1905698752
N   N30       1.0  0.23016  0.72858  0.28526  1.0000 -0.1846166619
N   N31       1.0  0.55668  0.27142  0.50158  1.0000 -0.1905698752
N   N32       1.0  0.44332  0.94490  0.71474  1.0000 -0.1905698752
N   N33       1.0  0.49842  0.76984  0.05510  1.0000 -0.1905698752
N   N34       1.0  0.28526  0.23016  0.72858  1.0000 -0.1905698752
N   N35       1.0  0.50158  0.55668  0.27142  1.0000 -0.1905698752
N   N36       1.0  0.71474  0.44332  0.94490  1.0000 -0.1905698752
N   N37       1.0  0.49842  0.05510  0.76984  1.0000 -0.1905698752
N   N38       1.0  0.28526  0.72858  0.23016  1.0000 -0.1905698752
N   N39       1.0  0.50158  0.27142  0.55668  1.0000 -0.1905698752
N   N40       1.0  0.71474  0.94490  0.44332  1.0000 -0.1905698752
N   N41       1.0  0.05510  0.76984  0.49842  1.0000 -0.1905698752
N   N42       1.0  0.72858  0.23016  0.28526  1.0000 -0.1905698752
N   N43       1.0  0.27142  0.55668  0.50158  1.0000 -0.1905698752
N   N44       1.0  0.94490  0.44332  0.71474  1.0000 -0.1905698752
N   N45       1.0  0.76984  0.49842  0.05510  1.0000 -0.1905698752
N   N46       1.0  0.23016  0.28526  0.72858  1.0000 -0.1905698752
N   N47       1.0  0.55668  0.50158  0.27142  1.0000 -0.1905698752
N   N48       1.0  0.44332  0.71474  0.94490  1.0000 -0.1905698752
