# DDEC6 charges by PACMAN v1.1 (https://github.com/mtap-research/PACMAN-charge/)
data_2013[Cu][nan]3[FSR]2
_chemical_formula_sum              "Cu24 H64 C80 I16 N32 O40"
_cell_length_a       7.6664
_cell_length_b       15.481
_cell_length_c       31.951
_cell_angle_alpha    90
_cell_angle_beta     90
_cell_angle_gamma    90

_symmetry_space_group_name_H-M    "P 1"
_symmetry_Int_Tables_number       1

loop_
  _symmetry_equiv_pos_as_xyz
  'x, y, z'

loop_
  _atom_site_type_symbol
  _atom_site_label
  _atom_site_symmetry_multiplicity
  _atom_site_fract_x
  _atom_site_fract_y
  _atom_site_fract_z
  _atom_site_occupancy
  _atom_site_charge
Cu  Cu1       1.0  0.08560  0.32572  0.43826  1.0000 0.1746517899
Cu  Cu2       1.0  0.41440  0.82572  0.06174  1.0000 0.1756407204
Cu  Cu3       1.0  0.91440  0.17428  0.43826  1.0000 0.1756407204
Cu  Cu4       1.0  0.58560  0.67428  0.06174  1.0000 0.1756407204
Cu  Cu5       1.0  0.91440  0.67428  0.56174  1.0000 0.1756407204
Cu  Cu6       1.0  0.58560  0.17428  0.93826  1.0000 0.1746517899
Cu  Cu7       1.0  0.08560  0.82572  0.56174  1.0000 0.1746517899
Cu  Cu8       1.0  0.41440  0.32572  0.93826  1.0000 0.1756407204
Cu  Cu9       1.0  0.92190  0.46948  0.46589  1.0000 0.163814086
Cu  Cu10      1.0  0.57810  0.96948  0.03411  1.0000 0.163814086
Cu  Cu11      1.0  0.07810  0.03052  0.46589  1.0000 0.163814086
Cu  Cu12      1.0  0.42190  0.53052  0.03411  1.0000 0.163814086
Cu  Cu13      1.0  0.07810  0.53052  0.53411  1.0000 0.163814086
Cu  Cu14      1.0  0.42190  0.03052  0.96589  1.0000 0.163814086
Cu  Cu15      1.0  0.92190  0.96948  0.53411  1.0000 0.163814086
Cu  Cu16      1.0  0.57810  0.46948  0.96589  1.0000 0.163814086
Cu  Cu17      1.0  0.25090  0.37368  0.22911  1.0000 0.7299126866
Cu  Cu18      1.0  0.24910  0.87368  0.27089  1.0000 0.7299126866
Cu  Cu19      1.0  0.74910  0.12632  0.22911  1.0000 0.7299126866
Cu  Cu20      1.0  0.75090  0.62632  0.27089  1.0000 0.7299126866
Cu  Cu21      1.0  0.74910  0.62632  0.77089  1.0000 0.7299126866
Cu  Cu22      1.0  0.75090  0.12632  0.72911  1.0000 0.7299126866
Cu  Cu23      1.0  0.25090  0.87368  0.77089  1.0000 0.7299126866
Cu  Cu24      1.0  0.24910  0.37368  0.72911  1.0000 0.7299126866
H   H1        1.0  0.58290  0.39380  0.17080  1.0000 0.1308148194
H   H2        1.0  0.91710  0.89380  0.32920  1.0000 0.1308148194
H   H3        1.0  0.41710  0.10620  0.17080  1.0000 0.1308148194
H   H4        1.0  0.08290  0.60620  0.32920  1.0000 0.1308148194
H   H5        1.0  0.41710  0.60620  0.82920  1.0000 0.1308148194
H   H6        1.0  0.08290  0.10620  0.67080  1.0000 0.1308148194
H   H7        1.0  0.58290  0.89380  0.82920  1.0000 0.1308148194
H   H8        1.0  0.91710  0.39380  0.67080  1.0000 0.1308148194
H   H9        1.0  0.62630  0.44520  0.10430  1.0000 0.1308148194
H   H10       1.0  0.87370  0.94520  0.39570  1.0000 0.1308148194
H   H11       1.0  0.37370  0.05480  0.10430  1.0000 0.1308148194
H   H12       1.0  0.12630  0.55480  0.39570  1.0000 0.1308148194
H   H13       1.0  0.37370  0.55480  0.89570  1.0000 0.1308148194
H   H14       1.0  0.12630  0.05480  0.60430  1.0000 0.1308148194
H   H15       1.0  0.62630  0.94520  0.89570  1.0000 0.1308148194
H   H16       1.0  0.87370  0.44520  0.60430  1.0000 0.1308148194
H   H17       1.0  0.27110  0.17800  0.21870  1.0000 0.3569555165
H   H18       1.0  0.22890  0.67800  0.28130  1.0000 0.3569555165
H   H19       1.0  0.72890  0.32200  0.21870  1.0000 0.3569555165
H   H20       1.0  0.77110  0.82200  0.28130  1.0000 0.3569555165
H   H21       1.0  0.72890  0.82200  0.78130  1.0000 0.3569555165
H   H22       1.0  0.77110  0.32200  0.71870  1.0000 0.3569555165
H   H23       1.0  0.27110  0.67800  0.78130  1.0000 0.3569555165
H   H24       1.0  0.22890  0.17800  0.71870  1.0000 0.3569555165
H   H25       1.0  0.14900  0.23720  0.20590  1.0000 0.3124744216
H   H26       1.0  0.35100  0.73720  0.29410  1.0000 0.3124744216
H   H27       1.0  0.85100  0.26280  0.20590  1.0000 0.3124744216
H   H28       1.0  0.64900  0.76280  0.29410  1.0000 0.3124744216
H   H29       1.0  0.85100  0.76280  0.79410  1.0000 0.3124744216
H   H30       1.0  0.64900  0.26280  0.70590  1.0000 0.3124744216
H   H31       1.0  0.14900  0.73720  0.79410  1.0000 0.3124744216
H   H32       1.0  0.35100  0.23720  0.70590  1.0000 0.3124744216
H   H33       1.0  0.38430  0.34460  0.37470  1.0000 0.1308148194
H   H34       1.0  0.11570  0.84460  0.12530  1.0000 0.1308148194
H   H35       1.0  0.61570  0.15540  0.37470  1.0000 0.1308148194
H   H36       1.0  0.88430  0.65540  0.12530  1.0000 0.1308148194
H   H37       1.0  0.61570  0.65540  0.62530  1.0000 0.1308148194
H   H38       1.0  0.88430  0.15540  0.87470  1.0000 0.1308148194
H   H39       1.0  0.38430  0.84460  0.62530  1.0000 0.1308148194
H   H40       1.0  0.11570  0.34460  0.87470  1.0000 0.1308148194
H   H41       1.0  0.88010  0.35880  0.35880  1.0000 0.1186932581
H   H42       1.0  0.61990  0.85880  0.14120  1.0000 0.1186932581
H   H43       1.0  0.11990  0.14120  0.35880  1.0000 0.1186932581
H   H44       1.0  0.38010  0.64120  0.14120  1.0000 0.1186932581
H   H45       1.0  0.11990  0.64120  0.64120  1.0000 0.1186932581
H   H46       1.0  0.38010  0.14120  0.85880  1.0000 0.1186932581
H   H47       1.0  0.88010  0.85880  0.64120  1.0000 0.1186932581
H   H48       1.0  0.61990  0.35880  0.85880  1.0000 0.1186932581
H   H49       1.0  0.91530  0.37310  0.28900  1.0000 0.1377494516
H   H50       1.0  0.58470  0.87310  0.21100  1.0000 0.1377494516
H   H51       1.0  0.08470  0.12690  0.28900  1.0000 0.1377494516
H   H52       1.0  0.41530  0.62690  0.21100  1.0000 0.1377494516
H   H53       1.0  0.08470  0.62690  0.71100  1.0000 0.1377494516
H   H54       1.0  0.41530  0.12690  0.78900  1.0000 0.1377494516
H   H55       1.0  0.91530  0.87310  0.71100  1.0000 0.1377494516
H   H56       1.0  0.58470  0.37310  0.78900  1.0000 0.1377494516
H   H57       1.0  0.12500  0.48870  0.09420  1.0000 0.1377494516
H   H58       1.0  0.37500  0.98870  0.40580  1.0000 0.1377494516
H   H59       1.0  0.87500  0.01130  0.09420  1.0000 0.1377494516
H   H60       1.0  0.62500  0.51130  0.40580  1.0000 0.1377494516
H   H61       1.0  0.87500  0.51130  0.90580  1.0000 0.1377494516
H   H62       1.0  0.62500  0.01130  0.59420  1.0000 0.1377494516
H   H63       1.0  0.12500  0.98870  0.90580  1.0000 0.1377494516
H   H64       1.0  0.37500  0.48870  0.59420  1.0000 0.1377494516
C   C1        1.0  0.48800  0.41320  0.15530  1.0000 0.0590016986
C   C2        1.0  0.01200  0.91320  0.34470  1.0000 0.0590016986
C   C3        1.0  0.51200  0.08680  0.15530  1.0000 0.0590016986
C   C4        1.0  0.98800  0.58680  0.34470  1.0000 0.0590016986
C   C5        1.0  0.51200  0.58680  0.84470  1.0000 0.0590016986
C   C6        1.0  0.98800  0.08680  0.65530  1.0000 0.0590016986
C   C7        1.0  0.48800  0.91320  0.84470  1.0000 0.0590016986
C   C8        1.0  0.01200  0.41320  0.65530  1.0000 0.0590016986
C   C9        1.0  0.48500  0.35980  0.29430  1.0000 0.5297146546
C   C10       1.0  0.01500  0.85980  0.20570  1.0000 0.5297146546
C   C11       1.0  0.51500  0.14020  0.29430  1.0000 0.5297146546
C   C12       1.0  0.98500  0.64020  0.20570  1.0000 0.5297146546
C   C13       1.0  0.51500  0.64020  0.70570  1.0000 0.5297146546
C   C14       1.0  0.98500  0.14020  0.79430  1.0000 0.5297146546
C   C15       1.0  0.48500  0.85980  0.70570  1.0000 0.5297146546
C   C16       1.0  0.01500  0.35980  0.79430  1.0000 0.5297146546
C   C17       1.0  0.02100  0.43110  0.17030  1.0000 0.5297146546
C   C18       1.0  0.47900  0.93110  0.32970  1.0000 0.5297146546
C   C19       1.0  0.97900  0.06890  0.17030  1.0000 0.5297146546
C   C20       1.0  0.52100  0.56890  0.32970  1.0000 0.5297146546
C   C21       1.0  0.97900  0.56890  0.82970  1.0000 0.5297146546
C   C22       1.0  0.52100  0.06890  0.67030  1.0000 0.5297146546
C   C23       1.0  0.02100  0.93110  0.82970  1.0000 0.5297146546
C   C24       1.0  0.47900  0.43110  0.67030  1.0000 0.5297146546
C   C25       1.0  0.51400  0.44280  0.11520  1.0000 0.0380365821
C   C26       1.0  0.98600  0.94280  0.38480  1.0000 0.0380365821
C   C27       1.0  0.48600  0.05720  0.11520  1.0000 0.0380365821
C   C28       1.0  0.01400  0.55720  0.38480  1.0000 0.0380365821
C   C29       1.0  0.48600  0.55720  0.88480  1.0000 0.0380365821
C   C30       1.0  0.01400  0.05720  0.61520  1.0000 0.0380365821
C   C31       1.0  0.51400  0.94280  0.88480  1.0000 0.0380365821
C   C32       1.0  0.98600  0.44280  0.61520  1.0000 0.0380365821
C   C33       1.0  0.31070  0.35950  0.31470  1.0000 0.0667338618
C   C34       1.0  0.18930  0.85950  0.18530  1.0000 0.0667338618
C   C35       1.0  0.68930  0.14050  0.31470  1.0000 0.0667338618
C   C36       1.0  0.81070  0.64050  0.18530  1.0000 0.0667338618
C   C37       1.0  0.68930  0.64050  0.68530  1.0000 0.0667338618
C   C38       1.0  0.81070  0.14050  0.81470  1.0000 0.0667338618
C   C39       1.0  0.31070  0.85950  0.68530  1.0000 0.0667338618
C   C40       1.0  0.18930  0.35950  0.81470  1.0000 0.0667338618
C   C41       1.0  0.28700  0.34950  0.35740  1.0000 0.0380365821
C   C42       1.0  0.21300  0.84950  0.14260  1.0000 0.0380365821
C   C43       1.0  0.71300  0.15050  0.35740  1.0000 0.0380365821
C   C44       1.0  0.78700  0.65050  0.14260  1.0000 0.0380365821
C   C45       1.0  0.71300  0.65050  0.64260  1.0000 0.0380365821
C   C46       1.0  0.78700  0.15050  0.85740  1.0000 0.0380365821
C   C47       1.0  0.28700  0.84950  0.64260  1.0000 0.0380365821
C   C48       1.0  0.21300  0.34950  0.85740  1.0000 0.0380365821
C   C49       1.0  0.99300  0.35760  0.34790  1.0000 0.0185828055
C   C50       1.0  0.50700  0.85760  0.15210  1.0000 0.0185828055
C   C51       1.0  0.00700  0.14240  0.34790  1.0000 0.0185828055
C   C52       1.0  0.49300  0.64240  0.15210  1.0000 0.0185828055
C   C53       1.0  0.00700  0.64240  0.65210  1.0000 0.0185828055
C   C54       1.0  0.49300  0.14240  0.84790  1.0000 0.0185828055
C   C55       1.0  0.99300  0.85760  0.65210  1.0000 0.0185828055
C   C56       1.0  0.50700  0.35760  0.84790  1.0000 0.0185828055
C   C57       1.0  0.01300  0.36700  0.30610  1.0000 0.0590016986
C   C58       1.0  0.48700  0.86700  0.19390  1.0000 0.0590016986
C   C59       1.0  0.98700  0.13300  0.30610  1.0000 0.0590016986
C   C60       1.0  0.51300  0.63300  0.19390  1.0000 0.0590016986
C   C61       1.0  0.98700  0.63300  0.69390  1.0000 0.0590016986
C   C62       1.0  0.51300  0.13300  0.80610  1.0000 0.0590016986
C   C63       1.0  0.01300  0.86700  0.69390  1.0000 0.0590016986
C   C64       1.0  0.48700  0.36700  0.80610  1.0000 0.0590016986
C   C65       1.0  0.21990  0.46700  0.10890  1.0000 0.033482376
C   C66       1.0  0.28010  0.96700  0.39110  1.0000 0.033482376
C   C67       1.0  0.78010  0.03300  0.10890  1.0000 0.033482376
C   C68       1.0  0.71990  0.53300  0.39110  1.0000 0.033482376
C   C69       1.0  0.78010  0.53300  0.89110  1.0000 0.033482376
C   C70       1.0  0.71990  0.03300  0.60890  1.0000 0.033482376
C   C71       1.0  0.21990  0.96700  0.89110  1.0000 0.033482376
C   C72       1.0  0.28010  0.46700  0.60890  1.0000 0.033482376
C   C73       1.0  0.19570  0.43460  0.14810  1.0000 0.0667338618
C   C74       1.0  0.30430  0.93460  0.35190  1.0000 0.0667338618
C   C75       1.0  0.80430  0.06540  0.14810  1.0000 0.0667338618
C   C76       1.0  0.69570  0.56540  0.35190  1.0000 0.0667338618
C   C77       1.0  0.80430  0.56540  0.85190  1.0000 0.0667338618
C   C78       1.0  0.69570  0.06540  0.64810  1.0000 0.0667338618
C   C79       1.0  0.19570  0.93460  0.85190  1.0000 0.0667338618
C   C80       1.0  0.30430  0.43460  0.64810  1.0000 0.0667338618
I   I1        1.0  0.26219  0.44965  0.47671  1.0000 -0.2371733249
I   I2        1.0  0.23781  0.94965  0.02329  1.0000 -0.2371733249
I   I3        1.0  0.73781  0.05035  0.47671  1.0000 -0.2371733249
I   I4        1.0  0.76219  0.55035  0.02329  1.0000 -0.2371733249
I   I5        1.0  0.73781  0.55035  0.52329  1.0000 -0.2371733249
I   I6        1.0  0.76219  0.05035  0.97671  1.0000 -0.2371733249
I   I7        1.0  0.26219  0.94965  0.52329  1.0000 -0.2371733249
I   I8        1.0  0.23781  0.44965  0.97671  1.0000 -0.2371733249
I   I9        1.0  0.25562  0.17904  0.45223  1.0000 -0.2474889276
I   I10       1.0  0.24438  0.67904  0.04777  1.0000 -0.2474889276
I   I11       1.0  0.74438  0.32096  0.45223  1.0000 -0.2474889276
I   I12       1.0  0.75562  0.82096  0.04777  1.0000 -0.2474889276
I   I13       1.0  0.74438  0.82096  0.54777  1.0000 -0.2474889276
I   I14       1.0  0.75562  0.32096  0.95223  1.0000 -0.2474889276
I   I15       1.0  0.25562  0.67904  0.54777  1.0000 -0.2474889276
I   I16       1.0  0.24438  0.17904  0.95223  1.0000 -0.2474889276
N   N1        1.0  0.32950  0.41180  0.17240  1.0000 -0.2252626536
N   N2        1.0  0.17050  0.91180  0.32760  1.0000 -0.2247654912
N   N3        1.0  0.67050  0.08820  0.17240  1.0000 -0.2252626536
N   N4        1.0  0.82950  0.58820  0.32760  1.0000 -0.2252626536
N   N5        1.0  0.67050  0.58820  0.82760  1.0000 -0.2247654912
N   N6        1.0  0.82950  0.08820  0.67240  1.0000 -0.2247654912
N   N7        1.0  0.32950  0.91180  0.82760  1.0000 -0.2247654912
N   N8        1.0  0.17050  0.41180  0.67240  1.0000 -0.2247654912
N   N9        1.0  0.17180  0.36750  0.28900  1.0000 -0.2099875589
N   N10       1.0  0.32820  0.86750  0.21100  1.0000 -0.2099875589
N   N11       1.0  0.82820  0.13250  0.28900  1.0000 -0.2099875589
N   N12       1.0  0.67180  0.63250  0.21100  1.0000 -0.2099875589
N   N13       1.0  0.82820  0.63250  0.71100  1.0000 -0.2099875589
N   N14       1.0  0.67180  0.13250  0.78900  1.0000 -0.2099875589
N   N15       1.0  0.17180  0.86750  0.71100  1.0000 -0.2099875589
N   N16       1.0  0.32820  0.36750  0.78900  1.0000 -0.2099875589
N   N17       1.0  0.37850  0.46810  0.09140  1.0000 -0.1325129834
N   N18       1.0  0.12150  0.96810  0.40860  1.0000 -0.1325129834
N   N19       1.0  0.62150  0.03190  0.09140  1.0000 -0.1325129834
N   N20       1.0  0.87850  0.53190  0.40860  1.0000 -0.1325129834
N   N21       1.0  0.62150  0.53190  0.90860  1.0000 -0.1325129834
N   N22       1.0  0.87850  0.03190  0.59140  1.0000 -0.1325129834
N   N23       1.0  0.37850  0.96810  0.90860  1.0000 -0.1325129834
N   N24       1.0  0.12150  0.46810  0.59140  1.0000 -0.1325129834
N   N25       1.0  0.12670  0.34660  0.37440  1.0000 -0.1463139472
N   N26       1.0  0.37330  0.84660  0.12560  1.0000 -0.1463139472
N   N27       1.0  0.87330  0.15340  0.37440  1.0000 -0.1463139472
N   N28       1.0  0.62670  0.65340  0.12560  1.0000 -0.1463139472
N   N29       1.0  0.87330  0.65340  0.62560  1.0000 -0.1463139472
N   N30       1.0  0.62670  0.15340  0.87440  1.0000 -0.1463139472
N   N31       1.0  0.12670  0.84660  0.62560  1.0000 -0.1463139472
N   N32       1.0  0.37330  0.34660  0.87440  1.0000 -0.1463139472
O   O1        1.0  0.02230  0.39880  0.20700  1.0000 -0.5456699846
O   O2        1.0  0.47770  0.89880  0.29300  1.0000 -0.5456699846
O   O3        1.0  0.97770  0.10120  0.20700  1.0000 -0.5456699846
O   O4        1.0  0.52230  0.60120  0.29300  1.0000 -0.5456699846
O   O5        1.0  0.97770  0.60120  0.79300  1.0000 -0.5456699846
O   O6        1.0  0.52230  0.10120  0.70700  1.0000 -0.5456699846
O   O7        1.0  0.02230  0.89880  0.79300  1.0000 -0.5456699846
O   O8        1.0  0.47770  0.39880  0.70700  1.0000 -0.5456699846
O   O9        1.0  0.48400  0.36630  0.25410  1.0000 -0.5177690914
O   O10       1.0  0.01600  0.86630  0.24590  1.0000 -0.5177690914
O   O11       1.0  0.51600  0.13370  0.25410  1.0000 -0.5177690914
O   O12       1.0  0.98400  0.63370  0.24590  1.0000 -0.5177690914
O   O13       1.0  0.51600  0.63370  0.74590  1.0000 -0.5177690914
O   O14       1.0  0.98400  0.13370  0.75410  1.0000 -0.5177690914
O   O15       1.0  0.48400  0.86630  0.74590  1.0000 -0.5177690914
O   O16       1.0  0.01600  0.36630  0.75410  1.0000 -0.5177690914
O   O17       1.0  0.88900  0.45380  0.15110  1.0000 -0.5131313024
O   O18       1.0  0.61100  0.95380  0.34890  1.0000 -0.5131313024
O   O19       1.0  0.11100  0.04620  0.15110  1.0000 -0.5131313024
O   O20       1.0  0.38900  0.54620  0.34890  1.0000 -0.5131313024
O   O21       1.0  0.11100  0.54620  0.84890  1.0000 -0.5131313024
O   O22       1.0  0.38900  0.04620  0.65110  1.0000 -0.5131313024
O   O23       1.0  0.88900  0.95380  0.84890  1.0000 -0.5131313024
O   O24       1.0  0.61100  0.45380  0.65110  1.0000 -0.5131313024
O   O25       1.0  0.61850  0.35360  0.31560  1.0000 -0.5177690914
O   O26       1.0  0.88150  0.85360  0.18440  1.0000 -0.5177690914
O   O27       1.0  0.38150  0.14640  0.31560  1.0000 -0.5177690914
O   O28       1.0  0.11850  0.64640  0.18440  1.0000 -0.5177690914
O   O29       1.0  0.38150  0.64640  0.68440  1.0000 -0.5177690914
O   O30       1.0  0.11850  0.14640  0.81560  1.0000 -0.5177690914
O   O31       1.0  0.61850  0.85360  0.68440  1.0000 -0.5177690914
O   O32       1.0  0.88150  0.35360  0.81560  1.0000 -0.5177690914
O   O33       1.0  0.24570  0.23140  0.21880  1.0000 -0.6713338387
O   O34       1.0  0.25430  0.73140  0.28120  1.0000 -0.6713338387
O   O35       1.0  0.75430  0.26860  0.21880  1.0000 -0.6713338387
O   O36       1.0  0.74570  0.76860  0.28120  1.0000 -0.6713338387
O   O37       1.0  0.75430  0.76860  0.78120  1.0000 -0.6713338387
O   O38       1.0  0.74570  0.26860  0.71880  1.0000 -0.6713338387
O   O39       1.0  0.24570  0.73140  0.78120  1.0000 -0.6713338387
O   O40       1.0  0.25430  0.23140  0.71880  1.0000 -0.6713338387
