# DDEC6 charges by PACMAN v1.1 (https://github.com/mtap-research/PACMAN-charge/)
data_2013[Mn][pcu]3[FSR]3
_chemical_formula_sum              "Mn8 H24 C24 O48"
_cell_length_a       12.1962
_cell_length_b       12.3675
_cell_length_c       17.4698
_cell_angle_alpha    90
_cell_angle_beta     132.832
_cell_angle_gamma    90

_symmetry_space_group_name_H-M    "P 1"
_symmetry_Int_Tables_number       1

loop_
  _symmetry_equiv_pos_as_xyz
  'x, y, z'

loop_
  _atom_site_type_symbol
  _atom_site_label
  _atom_site_symmetry_multiplicity
  _atom_site_fract_x
  _atom_site_fract_y
  _atom_site_fract_z
  _atom_site_occupancy
  _atom_site_charge
Mn  Mn1       1.0  0.77643  0.25497  0.01177  1.0000 1.0185031405
Mn  Mn2       1.0  0.22357  0.75497  0.48823  1.0000 1.0185031405
Mn  Mn3       1.0  0.22357  0.74503  0.98823  1.0000 1.0185031405
Mn  Mn4       1.0  0.77643  0.24503  0.51177  1.0000 1.0185031405
Mn  Mn5       1.0  0.27398  0.24709  0.01000  1.0000 1.0185031405
Mn  Mn6       1.0  0.72602  0.74709  0.49000  1.0000 1.0185031405
Mn  Mn7       1.0  0.72602  0.75291  0.99000  1.0000 1.0185031405
Mn  Mn8       1.0  0.27398  0.25291  0.51000  1.0000 1.0185031405
H   H1        1.0  0.57370  0.23700  0.06270  1.0000 0.1012840506
H   H2        1.0  0.42630  0.73700  0.43730  1.0000 0.1012840506
H   H3        1.0  0.42630  0.76300  0.93730  1.0000 0.1012840506
H   H4        1.0  0.57370  0.26300  0.56270  1.0000 0.1012840506
H   H5        1.0  0.08200  0.31000  0.07100  1.0000 0.0873532443
H   H6        1.0  0.91800  0.81000  0.42900  1.0000 0.0873532443
H   H7        1.0  0.91800  0.69000  0.92900  1.0000 0.0873532443
H   H8        1.0  0.08200  0.19000  0.57100  1.0000 0.0873532443
H   H9        1.0  0.07300  0.33900  0.26200  1.0000 0.1012840506
H   H10       1.0  0.92700  0.83900  0.23800  1.0000 0.1012840506
H   H11       1.0  0.92700  0.66100  0.73800  1.0000 0.1012840506
H   H12       1.0  0.07300  0.16100  0.76200  1.0000 0.1012840506
H   H13       1.0  0.47500  0.33000  0.76300  1.0000 0.0873532443
H   H14       1.0  0.52500  0.83000  0.73700  1.0000 0.0873532443
H   H15       1.0  0.52500  0.67000  0.23700  1.0000 0.0873532443
H   H16       1.0  0.47500  0.17000  0.26300  1.0000 0.0873532443
H   H17       1.0  0.17900  0.49200  0.91000  1.0000 0.0774446576
H   H18       1.0  0.82100  0.99200  0.59000  1.0000 0.0774446576
H   H19       1.0  0.82100  0.50800  0.09000  1.0000 0.0774446576
H   H20       1.0  0.17900  0.00800  0.41000  1.0000 0.0774446576
H   H21       1.0  0.27400  0.00100  0.06200  1.0000 0.1012840506
H   H22       1.0  0.72600  0.50100  0.43800  1.0000 0.1012840506
H   H23       1.0  0.72600  0.99900  0.93800  1.0000 0.1012840506
H   H24       1.0  0.27400  0.49900  0.56200  1.0000 0.1012840506
C   C1        1.0  0.01609  0.28245  0.26199  1.0000 0.5122975203
C   C2        1.0  0.98391  0.78245  0.23801  1.0000 0.5122975203
C   C3        1.0  0.98391  0.71755  0.73801  1.0000 0.5122975203
C   C4        1.0  0.01609  0.21755  0.76199  1.0000 0.5122975203
C   C5        1.0  0.28828  0.99767  0.01267  1.0000 0.5122975203
C   C6        1.0  0.71172  0.49767  0.48733  1.0000 0.5122975203
C   C7        1.0  0.71172  0.00233  0.98733  1.0000 0.5122975203
C   C8        1.0  0.28828  0.50233  0.51267  1.0000 0.5122975203
C   C9        1.0  0.52813  0.27129  0.75819  1.0000 0.5122975203
C   C10       1.0  0.47187  0.77129  0.74181  1.0000 0.5122975203
C   C11       1.0  0.47187  0.72871  0.24181  1.0000 0.5122975203
C   C12       1.0  0.52813  0.22871  0.25819  1.0000 0.5122975203
C   C13       1.0  0.18924  0.49548  0.97420  1.0000 0.5210986173
C   C14       1.0  0.81076  0.99548  0.52580  1.0000 0.5210986173
C   C15       1.0  0.81076  0.50452  0.02580  1.0000 0.5210986173
C   C16       1.0  0.18924  0.00452  0.47420  1.0000 0.5210986173
C   C17       1.0  0.06184  0.23116  0.04883  1.0000 0.5122975203
C   C18       1.0  0.93816  0.73116  0.45117  1.0000 0.5122975203
C   C19       1.0  0.93816  0.76884  0.95117  1.0000 0.5122975203
C   C20       1.0  0.06184  0.26884  0.54883  1.0000 0.5122975203
C   C21       1.0  0.52190  0.28929  0.00525  1.0000 0.5210986173
C   C22       1.0  0.47810  0.78929  0.49475  1.0000 0.5210986173
C   C23       1.0  0.47810  0.71071  0.99475  1.0000 0.5210986173
C   C24       1.0  0.52190  0.21071  0.50525  1.0000 0.5210986173
O   O1        1.0  0.64505  0.23455  0.84414  1.0000 -0.4633899221
O   O2        1.0  0.35495  0.73455  0.65586  1.0000 -0.4633899221
O   O3        1.0  0.35495  0.76545  0.15586  1.0000 -0.4633899221
O   O4        1.0  0.64505  0.26545  0.34414  1.0000 -0.4633899221
O   O5        1.0  0.39526  0.31667  0.96969  1.0000 -0.4704106973
O   O6        1.0  0.60474  0.81667  0.53031  1.0000 -0.4704106973
O   O7        1.0  0.60474  0.68333  0.03031  1.0000 -0.4704106973
O   O8        1.0  0.39526  0.18333  0.46969  1.0000 -0.4704106973
O   O9        1.0  0.15310  0.18502  0.04892  1.0000 -0.489039112
O   O10       1.0  0.84690  0.68502  0.45108  1.0000 -0.489039112
O   O11       1.0  0.84690  0.81498  0.95108  1.0000 -0.489039112
O   O12       1.0  0.15310  0.31498  0.54892  1.0000 -0.489039112
O   O13       1.0  0.94887  0.18937  0.02342  1.0000 -0.4504595139
O   O14       1.0  0.05113  0.68937  0.47658  1.0000 -0.4504595139
O   O15       1.0  0.05113  0.81063  0.97658  1.0000 -0.4504595139
O   O16       1.0  0.94887  0.31063  0.52342  1.0000 -0.4504595139
O   O17       1.0  0.07255  0.24117  0.34712  1.0000 -0.4633899221
O   O18       1.0  0.92745  0.74117  0.15288  1.0000 -0.4633899221
O   O19       1.0  0.92745  0.75883  0.65288  1.0000 -0.4633899221
O   O20       1.0  0.07255  0.25883  0.84712  1.0000 -0.4633899221
O   O21       1.0  0.15763  0.58315  0.99275  1.0000 -0.5051779786
O   O22       1.0  0.84237  0.08315  0.50725  1.0000 -0.5051779786
O   O23       1.0  0.84237  0.41685  0.00725  1.0000 -0.5051779786
O   O24       1.0  0.15763  0.91685  0.49275  1.0000 -0.5051779786
O   O25       1.0  0.58076  0.32397  0.97388  1.0000 -0.4775401417
O   O26       1.0  0.41924  0.82397  0.52612  1.0000 -0.4775401417
O   O27       1.0  0.41924  0.67603  0.02612  1.0000 -0.4775401417
O   O28       1.0  0.58076  0.17603  0.47388  1.0000 -0.4775401417
O   O29       1.0  0.31426  0.08408  0.99073  1.0000 -0.489039112
O   O30       1.0  0.68574  0.58408  0.50927  1.0000 -0.489039112
O   O31       1.0  0.68574  0.91592  0.00927  1.0000 -0.489039112
O   O32       1.0  0.31426  0.41592  0.49073  1.0000 -0.489039112
O   O33       1.0  0.48040  0.24098  0.67234  1.0000 -0.4775401417
O   O34       1.0  0.51960  0.74098  0.82766  1.0000 -0.4775401417
O   O35       1.0  0.51960  0.75902  0.32766  1.0000 -0.4775401417
O   O36       1.0  0.48040  0.25902  0.17234  1.0000 -0.4775401417
O   O37       1.0  0.28573  0.90642  0.97886  1.0000 -0.4704106973
O   O38       1.0  0.71427  0.40642  0.52114  1.0000 -0.4704106973
O   O39       1.0  0.71427  0.09358  0.02114  1.0000 -0.4704106973
O   O40       1.0  0.28573  0.59358  0.47886  1.0000 -0.4704106973
O   O41       1.0  0.89460  0.25435  0.17541  1.0000 -0.4775401417
O   O42       1.0  0.10540  0.75435  0.32459  1.0000 -0.4775401417
O   O43       1.0  0.10540  0.74565  0.82459  1.0000 -0.4775401417
O   O44       1.0  0.89460  0.24565  0.67541  1.0000 -0.4775401417
O   O45       1.0  0.22843  0.41199  0.02574  1.0000 -0.4504595139
O   O46       1.0  0.77157  0.91199  0.47426  1.0000 -0.4504595139
O   O47       1.0  0.77157  0.58801  0.97426  1.0000 -0.4504595139
O   O48       1.0  0.22843  0.08801  0.52574  1.0000 -0.4504595139
