# DDEC6 charges by PACMAN v1.1 (https://github.com/mtap-research/PACMAN-charge/)
data_2013[Zn][ths]3[FSR]8
_chemical_formula_sum              "Zn12 H96 C144 I24 N48"
_cell_length_a       18.9212
_cell_length_b       18.9212
_cell_length_c       30.74
_cell_angle_alpha    78.9559
_cell_angle_beta     101.044
_cell_angle_gamma    134.099

_symmetry_space_group_name_H-M    "P 1"
_symmetry_Int_Tables_number       1

loop_
  _symmetry_equiv_pos_as_xyz
  'x, y, z'

loop_
  _atom_site_type_symbol
  _atom_site_label
  _atom_site_symmetry_multiplicity
  _atom_site_fract_x
  _atom_site_fract_y
  _atom_site_fract_z
  _atom_site_occupancy
  _atom_site_charge
Zn  Zn1       1.0  0.28848  0.45818  0.90891  1.0000 0.4628851112
Zn  Zn2       1.0  0.54182  0.71152  0.40891  1.0000 0.4628851112
Zn  Zn3       1.0  0.02169  0.77493  0.55980  1.0000 0.4628851112
Zn  Zn4       1.0  0.22507  0.97831  0.05980  1.0000 0.4628851112
Zn  Zn5       1.0  0.96855  0.31509  0.73091  1.0000 0.4419595424
Zn  Zn6       1.0  0.68491  0.03145  0.23091  1.0000 0.4419595424
Zn  Zn7       1.0  0.45818  0.28848  0.59109  1.0000 0.4628851112
Zn  Zn8       1.0  0.71152  0.54182  0.09109  1.0000 0.4657339279
Zn  Zn9       1.0  0.77493  0.02169  0.94020  1.0000 0.4628851112
Zn  Zn10      1.0  0.97831  0.22507  0.44020  1.0000 0.4628851112
Zn  Zn11      1.0  0.31509  0.96855  0.76909  1.0000 0.4419595424
Zn  Zn12      1.0  0.03145  0.68491  0.26909  1.0000 0.4419595424
H   H1        1.0  0.18170  0.50530  0.84010  1.0000 0.1076096098
H   H2        1.0  0.49470  0.81830  0.34010  1.0000 0.1076096098
H   H3        1.0  0.21870  0.61750  0.78140  1.0000 0.1304293286
H   H4        1.0  0.38250  0.78130  0.28140  1.0000 0.1304293286
H   H5        1.0  0.50740  0.76560  0.81100  1.0000 0.1304293286
H   H6        1.0  0.23440  0.49260  0.31100  1.0000 0.1304293286
H   H7        1.0  0.46060  0.64340  0.86660  1.0000 0.1017631773
H   H8        1.0  0.35660  0.53940  0.36660  1.0000 0.1017631773
H   H9        1.0  0.24090  0.91250  0.56960  1.0000 0.1076096098
H   H10       1.0  0.08750  0.75910  0.06960  1.0000 0.1076096098
H   H11       1.0  0.36740  0.94260  0.61630  1.0000 0.1388826307
H   H12       1.0  0.05740  0.63260  0.11630  1.0000 0.1388826307
H   H13       1.0  0.16140  0.70440  0.69540  1.0000 0.1241147865
H   H14       1.0  0.29560  0.83860  0.19540  1.0000 0.1241147865
H   H15       1.0  0.04290  0.68270  0.64730  1.0000 0.1017631773
H   H16       1.0  0.31730  0.95710  0.14730  1.0000 0.1017631773
H   H17       1.0  0.83220  0.10840  0.76740  1.0000 0.1017631773
H   H18       1.0  0.89160  0.16780  0.26740  1.0000 0.1017631773
H   H19       1.0  0.66850  0.96450  0.76490  1.0000 0.1388826307
H   H20       1.0  0.03550  0.33150  0.26490  1.0000 0.1388826307
H   H21       1.0  0.61340  0.09860  0.66730  1.0000 0.1388826307
H   H22       1.0  0.90140  0.38660  0.16730  1.0000 0.1388826307
H   H23       1.0  0.77860  0.24380  0.67640  1.0000 0.1076096098
H   H24       1.0  0.75620  0.22140  0.17640  1.0000 0.1076096098
H   H25       1.0  0.06940  0.42120  0.64580  1.0000 0.1076096098
H   H26       1.0  0.57880  0.93060  0.14580  1.0000 0.1076096098
H   H27       1.0  0.14110  0.41350  0.59640  1.0000 0.1304293286
H   H28       1.0  0.58650  0.85890  0.09640  1.0000 0.1304293286
H   H29       1.0  0.04120  0.15440  0.66390  1.0000 0.1388826307
H   H30       1.0  0.84560  0.95880  0.16390  1.0000 0.1388826307
H   H31       1.0  0.97450  0.17550  0.70980  1.0000 0.1017631773
H   H32       1.0  0.82450  0.02550  0.20980  1.0000 0.1017631773
H   H33       1.0  0.46110  0.50290  0.43700  1.0000 0.1076096098
H   H34       1.0  0.49710  0.53890  0.93700  1.0000 0.1076096098
H   H35       1.0  0.34870  0.36810  0.48280  1.0000 0.1388826307
H   H36       1.0  0.63190  0.65130  0.98280  1.0000 0.1388826307
H   H37       1.0  0.29700  0.51840  0.52250  1.0000 0.1388826307
H   H38       1.0  0.48160  0.70300  0.02250  1.0000 0.1388826307
H   H39       1.0  0.41890  0.65430  0.47900  1.0000 0.1076096098
H   H40       1.0  0.34570  0.58110  0.97900  1.0000 0.1076096098
H   H41       1.0  0.01810  0.87990  0.61520  1.0000 0.1017631773
H   H42       1.0  0.12010  0.98190  0.11520  1.0000 0.1017631773
H   H43       1.0  0.06400  0.02940  0.61980  1.0000 0.1388826307
H   H44       1.0  0.97060  0.93600  0.11980  1.0000 0.1388826307
H   H45       1.0  0.15990  0.11190  0.49720  1.0000 0.1388826307
H   H46       1.0  0.88810  0.84010  0.99720  1.0000 0.1388826307
H   H47       1.0  0.11180  0.96140  0.49820  1.0000 0.1076096098
H   H48       1.0  0.03860  0.88820  0.99820  1.0000 0.1076096098
H   H49       1.0  0.50530  0.18170  0.65990  1.0000 0.1076096098
H   H50       1.0  0.81830  0.49470  0.15990  1.0000 0.1076096098
H   H51       1.0  0.61750  0.21870  0.71860  1.0000 0.1304293286
H   H52       1.0  0.78130  0.38250  0.21860  1.0000 0.1304293286
H   H53       1.0  0.76560  0.50740  0.68900  1.0000 0.1304293286
H   H54       1.0  0.49260  0.23440  0.18900  1.0000 0.1304293286
H   H55       1.0  0.64340  0.46060  0.63340  1.0000 0.1017631773
H   H56       1.0  0.53940  0.35660  0.13340  1.0000 0.1017631773
H   H57       1.0  0.91250  0.24090  0.93040  1.0000 0.1076096098
H   H58       1.0  0.75910  0.08750  0.43040  1.0000 0.1076096098
H   H59       1.0  0.94260  0.36740  0.88370  1.0000 0.1388826307
H   H60       1.0  0.63260  0.05740  0.38370  1.0000 0.1388826307
H   H61       1.0  0.70440  0.16140  0.80460  1.0000 0.1241147865
H   H62       1.0  0.83860  0.29560  0.30460  1.0000 0.1241147865
H   H63       1.0  0.68270  0.04290  0.85270  1.0000 0.1017631773
H   H64       1.0  0.95710  0.31730  0.35270  1.0000 0.1017631773
H   H65       1.0  0.10840  0.83220  0.73260  1.0000 0.1017631773
H   H66       1.0  0.16780  0.89160  0.23260  1.0000 0.1017631773
H   H67       1.0  0.96450  0.66850  0.73510  1.0000 0.1388826307
H   H68       1.0  0.33150  0.03550  0.23510  1.0000 0.1388826307
H   H69       1.0  0.09860  0.61340  0.83270  1.0000 0.1388826307
H   H70       1.0  0.38660  0.90140  0.33270  1.0000 0.1388826307
H   H71       1.0  0.24380  0.77860  0.82360  1.0000 0.1076096098
H   H72       1.0  0.22140  0.75620  0.32360  1.0000 0.1076096098
H   H73       1.0  0.42120  0.06940  0.85420  1.0000 0.1076096098
H   H74       1.0  0.93060  0.57880  0.35420  1.0000 0.1076096098
H   H75       1.0  0.41350  0.14110  0.90360  1.0000 0.1304293286
H   H76       1.0  0.85890  0.58650  0.40360  1.0000 0.1304293286
H   H77       1.0  0.15440  0.04120  0.83610  1.0000 0.1388826307
H   H78       1.0  0.95880  0.84560  0.33610  1.0000 0.1388826307
H   H79       1.0  0.17550  0.97450  0.79020  1.0000 0.1017631773
H   H80       1.0  0.02550  0.82450  0.29020  1.0000 0.1017631773
H   H81       1.0  0.50290  0.46110  0.06300  1.0000 0.1076096098
H   H82       1.0  0.53890  0.49710  0.56300  1.0000 0.1076096098
H   H83       1.0  0.36810  0.34870  0.01720  1.0000 0.1388826307
H   H84       1.0  0.65130  0.63190  0.51720  1.0000 0.1388826307
H   H85       1.0  0.51840  0.29700  0.97750  1.0000 0.1388826307
H   H86       1.0  0.70300  0.48160  0.47750  1.0000 0.1388826307
H   H87       1.0  0.65430  0.41890  0.02100  1.0000 0.1076096098
H   H88       1.0  0.58110  0.34570  0.52100  1.0000 0.1076096098
H   H89       1.0  0.87990  0.01810  0.88480  1.0000 0.1017631773
H   H90       1.0  0.98190  0.12010  0.38480  1.0000 0.1017631773
H   H91       1.0  0.02940  0.06400  0.88020  1.0000 0.1388826307
H   H92       1.0  0.93600  0.97060  0.38020  1.0000 0.1388826307
H   H93       1.0  0.11190  0.15990  0.00280  1.0000 0.1388826307
H   H94       1.0  0.84010  0.88810  0.50280  1.0000 0.1388826307
H   H95       1.0  0.96140  0.11180  0.00180  1.0000 0.1076096098
H   H96       1.0  0.88820  0.03860  0.50180  1.0000 0.1076096098
C   C1        1.0  0.24870  0.55810  0.83360  1.0000 0.0713806602
C   C2        1.0  0.44190  0.75130  0.33360  1.0000 0.0713806602
C   C3        1.0  0.27020  0.62460  0.79890  1.0000 -0.1586696879
C   C4        1.0  0.37540  0.72980  0.29890  1.0000 -0.1586696879
C   C5        1.0  0.36860  0.70400  0.78880  1.0000 0.0613951464
C   C6        1.0  0.29600  0.63140  0.28880  1.0000 0.0613951464
C   C7        1.0  0.43950  0.71150  0.81550  1.0000 -0.1408896739
C   C8        1.0  0.28850  0.56050  0.31550  1.0000 -0.1408896739
C   C9        1.0  0.41070  0.63910  0.84920  1.0000 0.0879531749
C   C10       1.0  0.36090  0.58930  0.34920  1.0000 0.0879531749
C   C11       1.0  0.22540  0.86980  0.59590  1.0000 0.0879531749
C   C12       1.0  0.13020  0.77460  0.09590  1.0000 0.0879531749
C   C13       1.0  0.30100  0.88780  0.62300  1.0000 -0.1408896739
C   C14       1.0  0.11220  0.69900  0.12300  1.0000 -0.1408896739
C   C15       1.0  0.27920  0.82460  0.66100  1.0000 0.0613951464
C   C16       1.0  0.17540  0.72080  0.16100  1.0000 0.0613951464
C   C17       1.0  0.17940  0.74800  0.66930  1.0000 -0.1473979342
C   C18       1.0  0.25200  0.82060  0.16930  1.0000 -0.1473979342
C   C19       1.0  0.11000  0.73600  0.64100  1.0000 0.0713806602
C   C20       1.0  0.26400  0.89000  0.14100  1.0000 0.0713806602
C   C21       1.0  0.78620  0.10660  0.74730  1.0000 0.0613951464
C   C22       1.0  0.89340  0.21380  0.24730  1.0000 0.0613951464
C   C23       1.0  0.68950  0.02070  0.74560  1.0000 -0.1408896739
C   C24       1.0  0.97930  0.31050  0.24560  1.0000 -0.1408896739
C   C25       1.0  0.62170  0.01610  0.71560  1.0000 0.0713806602
C   C26       1.0  0.98390  0.37830  0.21560  1.0000 0.0713806602
C   C27       1.0  0.65680  0.09920  0.68910  1.0000 -0.1586696879
C   C28       1.0  0.90080  0.34320  0.18910  1.0000 -0.1586696879
C   C29       1.0  0.75610  0.18530  0.69400  1.0000 0.0879531749
C   C30       1.0  0.81470  0.24390  0.19400  1.0000 0.0879531749
C   C31       1.0  0.39650  0.77930  0.75230  1.0000 0.3668562316
C   C32       1.0  0.22070  0.60350  0.25230  1.0000 0.3668562316
C   C33       1.0  0.35540  0.83760  0.69280  1.0000 0.3668562316
C   C34       1.0  0.16240  0.64460  0.19280  1.0000 0.3649834518
C   C35       1.0  0.51590  0.92530  0.71630  1.0000 0.3668562316
C   C36       1.0  0.07470  0.48410  0.21630  1.0000 0.3668562316
C   C37       1.0  0.06680  0.36840  0.65000  1.0000 0.0613951464
C   C38       1.0  0.63160  0.93320  0.15000  1.0000 0.0613951464
C   C39       1.0  0.10810  0.36350  0.62000  1.0000 -0.130929983
C   C40       1.0  0.63650  0.89190  0.12000  1.0000 -0.130929983
C   C41       1.0  0.10060  0.28340  0.62500  1.0000 0.0814382585
C   C42       1.0  0.71660  0.89940  0.12500  1.0000 0.0814382585
C   C43       1.0  0.04970  0.21090  0.65950  1.0000 -0.1586696879
C   C44       1.0  0.78910  0.95030  0.15950  1.0000 -0.1586696879
C   C45       1.0  0.01220  0.22620  0.68700  1.0000 0.0879531749
C   C46       1.0  0.77380  0.98780  0.18700  1.0000 0.0879531749
C   C47       1.0  0.42770  0.50630  0.45480  1.0000 0.0613951464
C   C48       1.0  0.49370  0.57230  0.95480  1.0000 0.0613951464
C   C49       1.0  0.36060  0.42620  0.48160  1.0000 -0.1473979342
C   C50       1.0  0.57380  0.63940  0.98160  1.0000 -0.1473979342
C   C51       1.0  0.30950  0.42750  0.50700  1.0000 0.0713806602
C   C52       1.0  0.57250  0.69050  0.00700  1.0000 0.0713806602
C   C53       1.0  0.33070  0.51410  0.50550  1.0000 -0.1408896739
C   C54       1.0  0.48590  0.66930  0.00550  1.0000 -0.1408896739
C   C55       1.0  0.40190  0.59390  0.47880  1.0000 0.0814382585
C   C56       1.0  0.40610  0.59810  0.97880  1.0000 0.0814382585
C   C57       1.0  0.04770  0.92850  0.59080  1.0000 0.0879531749
C   C58       1.0  0.07150  0.95230  0.09080  1.0000 0.0879531749
C   C59       1.0  0.07340  0.01660  0.59400  1.0000 -0.1408896739
C   C60       1.0  0.98340  0.92660  0.09400  1.0000 -0.1408896739
C   C61       1.0  0.11290  0.08350  0.55780  1.0000 0.0713806602
C   C62       1.0  0.91650  0.88710  0.05780  1.0000 0.0713806602
C   C63       1.0  0.12980  0.06460  0.52200  1.0000 -0.1408896739
C   C64       1.0  0.93540  0.87020  0.02200  1.0000 -0.1408896739
C   C65       1.0  0.10150  0.97510  0.52330  1.0000 0.0713806602
C   C66       1.0  0.02490  0.89850  0.02330  1.0000 0.0713806602
C   C67       1.0  0.13860  0.27240  0.59160  1.0000 0.3668562316
C   C68       1.0  0.72760  0.86140  0.09160  1.0000 0.3649834518
C   C69       1.0  0.23510  0.33870  0.53550  1.0000 0.3772694592
C   C70       1.0  0.66130  0.76490  0.03550  1.0000 0.3772694592
C   C71       1.0  0.14140  0.17940  0.56010  1.0000 0.3668562316
C   C72       1.0  0.82060  0.85860  0.06010  1.0000 0.3668562316
C   C73       1.0  0.55810  0.24870  0.66640  1.0000 0.0713806602
C   C74       1.0  0.75130  0.44190  0.16640  1.0000 0.0713806602
C   C75       1.0  0.62460  0.27020  0.70110  1.0000 -0.1586696879
C   C76       1.0  0.72980  0.37540  0.20110  1.0000 -0.1586696879
C   C77       1.0  0.70400  0.36860  0.71120  1.0000 0.0613951464
C   C78       1.0  0.63140  0.29600  0.21120  1.0000 0.0613951464
C   C79       1.0  0.71150  0.43950  0.68450  1.0000 -0.1408896739
C   C80       1.0  0.56050  0.28850  0.18450  1.0000 -0.1408896739
C   C81       1.0  0.63910  0.41070  0.65080  1.0000 0.0879531749
C   C82       1.0  0.58930  0.36090  0.15080  1.0000 0.0879531749
C   C83       1.0  0.86980  0.22540  0.90410  1.0000 0.0879531749
C   C84       1.0  0.77460  0.13020  0.40410  1.0000 0.0879531749
C   C85       1.0  0.88780  0.30100  0.87700  1.0000 -0.1408896739
C   C86       1.0  0.69900  0.11220  0.37700  1.0000 -0.1408896739
C   C87       1.0  0.82460  0.27920  0.83900  1.0000 0.0613951464
C   C88       1.0  0.72080  0.17540  0.33900  1.0000 0.0613951464
C   C89       1.0  0.74800  0.17940  0.83070  1.0000 -0.1473979342
C   C90       1.0  0.82060  0.25200  0.33070  1.0000 -0.1473979342
C   C91       1.0  0.73600  0.11000  0.85900  1.0000 0.0713806602
C   C92       1.0  0.89000  0.26400  0.35900  1.0000 0.0713806602
C   C93       1.0  0.10660  0.78620  0.75270  1.0000 0.0613951464
C   C94       1.0  0.21380  0.89340  0.25270  1.0000 0.0613951464
C   C95       1.0  0.02070  0.68950  0.75440  1.0000 -0.1408896739
C   C96       1.0  0.31050  0.97930  0.25440  1.0000 -0.1408896739
C   C97       1.0  0.01610  0.62170  0.78440  1.0000 0.0713806602
C   C98       1.0  0.37830  0.98390  0.28440  1.0000 0.0713806602
C   C99       1.0  0.09920  0.65680  0.81090  1.0000 -0.1586696879
C   C100      1.0  0.34320  0.90080  0.31090  1.0000 -0.1586696879
C   C101      1.0  0.18530  0.75610  0.80600  1.0000 0.0879531749
C   C102      1.0  0.24390  0.81470  0.30600  1.0000 0.0879531749
C   C103      1.0  0.77930  0.39650  0.74770  1.0000 0.3668562316
C   C104      1.0  0.60350  0.22070  0.24770  1.0000 0.3668562316
C   C105      1.0  0.83760  0.35540  0.80720  1.0000 0.3668562316
C   C106      1.0  0.64460  0.16240  0.30720  1.0000 0.3668562316
C   C107      1.0  0.92530  0.51590  0.78370  1.0000 0.3668562316
C   C108      1.0  0.48410  0.07470  0.28370  1.0000 0.3668562316
C   C109      1.0  0.36840  0.06680  0.85000  1.0000 0.0613951464
C   C110      1.0  0.93320  0.63160  0.35000  1.0000 0.0613951464
C   C111      1.0  0.36350  0.10810  0.88000  1.0000 -0.130929983
C   C112      1.0  0.89190  0.63650  0.38000  1.0000 -0.130929983
C   C113      1.0  0.28340  0.10060  0.87500  1.0000 0.0814382585
C   C114      1.0  0.89940  0.71660  0.37500  1.0000 0.0814382585
C   C115      1.0  0.21090  0.04970  0.84050  1.0000 -0.1586696879
C   C116      1.0  0.95030  0.78910  0.34050  1.0000 -0.1586696879
C   C117      1.0  0.22620  0.01220  0.81300  1.0000 0.0879531749
C   C118      1.0  0.98780  0.77380  0.31300  1.0000 0.0879531749
C   C119      1.0  0.50630  0.42770  0.04520  1.0000 0.0613951464
C   C120      1.0  0.57230  0.49370  0.54520  1.0000 0.0613951464
C   C121      1.0  0.42620  0.36060  0.01840  1.0000 -0.1473979342
C   C122      1.0  0.63940  0.57380  0.51840  1.0000 -0.1473979342
C   C123      1.0  0.42750  0.30950  0.99300  1.0000 0.0713806602
C   C124      1.0  0.69050  0.57250  0.49300  1.0000 0.0713806602
C   C125      1.0  0.51410  0.33070  0.99450  1.0000 -0.1408896739
C   C126      1.0  0.66930  0.48590  0.49450  1.0000 -0.1408896739
C   C127      1.0  0.59390  0.40190  0.02120  1.0000 0.0814382585
C   C128      1.0  0.59810  0.40610  0.52120  1.0000 0.0814382585
C   C129      1.0  0.92850  0.04770  0.90920  1.0000 0.0879531749
C   C130      1.0  0.95230  0.07150  0.40920  1.0000 0.0879531749
C   C131      1.0  0.01660  0.07340  0.90600  1.0000 -0.1408896739
C   C132      1.0  0.92660  0.98340  0.40600  1.0000 -0.1408896739
C   C133      1.0  0.08350  0.11290  0.94220  1.0000 0.0713806602
C   C134      1.0  0.88710  0.91650  0.44220  1.0000 0.0713806602
C   C135      1.0  0.06460  0.12980  0.97800  1.0000 -0.1408896739
C   C136      1.0  0.87020  0.93540  0.47800  1.0000 -0.1408896739
C   C137      1.0  0.97510  0.10150  0.97670  1.0000 0.0713806602
C   C138      1.0  0.89850  0.02490  0.47670  1.0000 0.0713806602
C   C139      1.0  0.27240  0.13860  0.90840  1.0000 0.3649834518
C   C140      1.0  0.86140  0.72760  0.40840  1.0000 0.3649834518
C   C141      1.0  0.33870  0.23510  0.96450  1.0000 0.3772694592
C   C142      1.0  0.76490  0.66130  0.46450  1.0000 0.3772694592
C   C143      1.0  0.17940  0.14140  0.93990  1.0000 0.3668562316
C   C144      1.0  0.85860  0.82060  0.43990  1.0000 0.3668562316
I   I1        1.0  0.32161  0.37597  0.87122  1.0000 -0.4285926804
I   I2        1.0  0.62403  0.67839  0.37122  1.0000 -0.4285926804
I   I3        1.0  0.13908  0.38360  0.94523  1.0000 -0.4436227109
I   I4        1.0  0.61640  0.86092  0.44523  1.0000 -0.4436227109
I   I5        1.0  0.04885  0.76189  0.48653  1.0000 -0.448463491
I   I6        1.0  0.23811  0.95115  0.98653  1.0000 -0.448463491
I   I7        1.0  0.86362  0.64896  0.59798  1.0000 -0.448463491
I   I8        1.0  0.35104  0.13638  0.09798  1.0000 -0.448463491
I   I9        1.0  0.99689  0.46761  0.70532  1.0000 -0.4285926804
I   I10       1.0  0.53239  0.00311  0.20532  1.0000 -0.4285926804
I   I11       1.0  0.02898  0.28918  0.80787  1.0000 -0.4285926804
I   I12       1.0  0.71082  0.97102  0.30787  1.0000 -0.4228226419
I   I13       1.0  0.37597  0.32161  0.62878  1.0000 -0.4285926804
I   I14       1.0  0.67839  0.62403  0.12878  1.0000 -0.4285926804
I   I15       1.0  0.38360  0.13908  0.55477  1.0000 -0.4436227109
I   I16       1.0  0.86092  0.61640  0.05477  1.0000 -0.4436227109
I   I17       1.0  0.76189  0.04885  0.01347  1.0000 -0.448463491
I   I18       1.0  0.95115  0.23811  0.51347  1.0000 -0.448463491
I   I19       1.0  0.64896  0.86362  0.90202  1.0000 -0.448463491
I   I20       1.0  0.13638  0.35104  0.40202  1.0000 -0.448463491
I   I21       1.0  0.46761  0.99689  0.79468  1.0000 -0.4285926804
I   I22       1.0  0.00311  0.53239  0.29468  1.0000 -0.4285926804
I   I23       1.0  0.28918  0.02898  0.69213  1.0000 -0.4285926804
I   I24       1.0  0.97102  0.71082  0.19213  1.0000 -0.4285926804
N   N1        1.0  0.31833  0.56367  0.85920  1.0000 -0.1769739198
N   N2        1.0  0.43633  0.68167  0.35920  1.0000 -0.1769739198
N   N3        1.0  0.13029  0.79571  0.60380  1.0000 -0.1769739198
N   N4        1.0  0.20429  0.86971  0.10380  1.0000 -0.1769739198
N   N5        1.0  0.81903  0.18857  0.72180  1.0000 -0.1769739198
N   N6        1.0  0.81143  0.18097  0.22180  1.0000 -0.1769739198
N   N7        1.0  0.32380  0.76660  0.72585  1.0000 -0.3831861302
N   N8        1.0  0.23340  0.67620  0.22585  1.0000 -0.3831861302
N   N9        1.0  0.45193  0.91947  0.68570  1.0000 -0.3961891856
N   N10       1.0  0.08053  0.54807  0.18570  1.0000 -0.3961891856
N   N11       1.0  0.49320  0.85480  0.74849  1.0000 -0.3898255046
N   N12       1.0  0.14520  0.50680  0.24849  1.0000 -0.3898255046
N   N13       1.0  0.02283  0.30197  0.68500  1.0000 -0.1896849027
N   N14       1.0  0.69803  0.97717  0.18500  1.0000 -0.1896849027
N   N15       1.0  0.44850  0.59150  0.45280  1.0000 -0.1896849027
N   N16       1.0  0.40850  0.55150  0.95280  1.0000 -0.1896849027
N   N17       1.0  0.06096  0.90684  0.55690  1.0000 -0.1896849027
N   N18       1.0  0.09316  0.93904  0.05690  1.0000 -0.1896849027
N   N19       1.0  0.20514  0.35466  0.56620  1.0000 -0.3961891856
N   N20       1.0  0.64534  0.79486  0.06620  1.0000 -0.3961891856
N   N21       1.0  0.20427  0.25453  0.52966  1.0000 -0.3831861302
N   N22       1.0  0.74547  0.79573  0.02966  1.0000 -0.3831861302
N   N23       1.0  0.10851  0.18569  0.59150  1.0000 -0.3831861302
N   N24       1.0  0.81431  0.89149  0.09150  1.0000 -0.3831861302
N   N25       1.0  0.56367  0.31833  0.64080  1.0000 -0.173822331
N   N26       1.0  0.68167  0.43633  0.14080  1.0000 -0.1769739198
N   N27       1.0  0.79571  0.13029  0.89620  1.0000 -0.1769739198
N   N28       1.0  0.86971  0.20429  0.39620  1.0000 -0.1769739198
N   N29       1.0  0.18857  0.81903  0.77820  1.0000 -0.1769739198
N   N30       1.0  0.18097  0.81143  0.27820  1.0000 -0.1769739198
N   N31       1.0  0.76660  0.32380  0.77415  1.0000 -0.3831861302
N   N32       1.0  0.67620  0.23340  0.27415  1.0000 -0.3898255046
N   N33       1.0  0.91947  0.45193  0.81430  1.0000 -0.3961891856
N   N34       1.0  0.54807  0.08053  0.31430  1.0000 -0.3961891856
N   N35       1.0  0.85480  0.49320  0.75151  1.0000 -0.3898255046
N   N36       1.0  0.50680  0.14520  0.25151  1.0000 -0.3898255046
N   N37       1.0  0.30197  0.02283  0.81500  1.0000 -0.1896849027
N   N38       1.0  0.97717  0.69803  0.31500  1.0000 -0.1896849027
N   N39       1.0  0.59150  0.44850  0.04720  1.0000 -0.1896849027
N   N40       1.0  0.55150  0.40850  0.54720  1.0000 -0.1896849027
N   N41       1.0  0.90684  0.06096  0.94310  1.0000 -0.1896849027
N   N42       1.0  0.93904  0.09316  0.44310  1.0000 -0.1896849027
N   N43       1.0  0.35466  0.20514  0.93380  1.0000 -0.3961891856
N   N44       1.0  0.79486  0.64534  0.43380  1.0000 -0.3961891856
N   N45       1.0  0.25453  0.20427  0.97034  1.0000 -0.3831861302
N   N46       1.0  0.79573  0.74547  0.47034  1.0000 -0.3831861302
N   N47       1.0  0.18569  0.10851  0.90850  1.0000 -0.3831861302
N   N48       1.0  0.89149  0.81431  0.40850  1.0000 -0.3831861302
