# DDEC6 charges by PACMAN v1.1 (https://github.com/mtap-research/PACMAN-charge/)
data_2013[Zn][rtl]3[FSR]2
_chemical_formula_sum              "Zn4 H32 C76 N8 O24"
_cell_length_a       5.5797
_cell_length_b       25.9231
_cell_length_c       16.7931
_cell_angle_alpha    90
_cell_angle_beta     98.575
_cell_angle_gamma    90

_symmetry_space_group_name_H-M    "P 1"
_symmetry_Int_Tables_number       1

loop_
  _symmetry_equiv_pos_as_xyz
  'x, y, z'

loop_
  _atom_site_type_symbol
  _atom_site_label
  _atom_site_symmetry_multiplicity
  _atom_site_fract_x
  _atom_site_fract_y
  _atom_site_fract_z
  _atom_site_occupancy
  _atom_site_charge
Zn  Zn1       1.0  0.11923  0.52087  0.57962  1.0000 0.8370740107
Zn  Zn2       1.0  0.88077  0.02087  0.92038  1.0000 0.8370740107
Zn  Zn3       1.0  0.88077  0.47913  0.42038  1.0000 0.8370740107
Zn  Zn4       1.0  0.11923  0.97913  0.07962  1.0000 0.8370740107
H   H1        1.0  0.44790  0.08840  0.87190  1.0000 0.1208627041
H   H2        1.0  0.55210  0.58840  0.62810  1.0000 0.1208627041
H   H3        1.0  0.55210  0.91160  0.12810  1.0000 0.1208627041
H   H4        1.0  0.44790  0.41160  0.37190  1.0000 0.1208627041
H   H5        1.0  0.38210  0.16470  0.79820  1.0000 0.149864412
H   H6        1.0  0.61790  0.66470  0.70180  1.0000 0.149864412
H   H7        1.0  0.61790  0.83530  0.20180  1.0000 0.149864412
H   H8        1.0  0.38210  0.33530  0.29820  1.0000 0.149864412
H   H9        1.0  0.95650  0.12860  0.68690  1.0000 0.149864412
H   H10       1.0  0.04350  0.62860  0.81310  1.0000 0.149864412
H   H11       1.0  0.04350  0.87140  0.31310  1.0000 0.149864412
H   H12       1.0  0.95650  0.37140  0.18690  1.0000 0.149864412
H   H13       1.0  0.01000  0.05430  0.76490  1.0000 0.1208627041
H   H14       1.0  0.99000  0.55430  0.73510  1.0000 0.1208627041
H   H15       1.0  0.99000  0.94570  0.23510  1.0000 0.1208627041
H   H16       1.0  0.01000  0.44570  0.26490  1.0000 0.1208627041
H   H17       1.0  0.11690  0.24970  0.53120  1.0000 0.1287124645
H   H18       1.0  0.88310  0.74970  0.96880  1.0000 0.1287124645
H   H19       1.0  0.88310  0.75030  0.46880  1.0000 0.1287124645
H   H20       1.0  0.11690  0.25030  0.03120  1.0000 0.1287124645
H   H21       1.0  0.05860  0.33380  0.47920  1.0000 0.1287124645
H   H22       1.0  0.94140  0.83380  0.02080  1.0000 0.1287124645
H   H23       1.0  0.94140  0.66620  0.52080  1.0000 0.1287124645
H   H24       1.0  0.05860  0.16620  0.97920  1.0000 0.1287124645
H   H25       1.0  0.06340  0.40450  0.70110  1.0000 0.1287124645
H   H26       1.0  0.93660  0.90450  0.79890  1.0000 0.1287124645
H   H27       1.0  0.93660  0.59550  0.29890  1.0000 0.1287124645
H   H28       1.0  0.06340  0.09550  0.20110  1.0000 0.1287124645
H   H29       1.0  0.10520  0.32140  0.75440  1.0000 0.1208627041
H   H30       1.0  0.89480  0.82140  0.74560  1.0000 0.1208627041
H   H31       1.0  0.89480  0.67860  0.24560  1.0000 0.1208627041
H   H32       1.0  0.10520  0.17860  0.25440  1.0000 0.1208627041
C   C1        1.0  0.55470  0.09746  0.83510  1.0000 0.0985580888
C   C2        1.0  0.44530  0.59746  0.66490  1.0000 0.0985580888
C   C3        1.0  0.44530  0.90254  0.16490  1.0000 0.0985580888
C   C4        1.0  0.55470  0.40254  0.33510  1.0000 0.0985580888
C   C5        1.0  0.51440  0.14281  0.79170  1.0000 -0.209384937
C   C6        1.0  0.48560  0.64281  0.70830  1.0000 -0.209384937
C   C7        1.0  0.48560  0.85719  0.20830  1.0000 -0.209384937
C   C8        1.0  0.51440  0.35719  0.29170  1.0000 -0.209384937
C   C9        1.0  0.67230  0.15528  0.73890  1.0000 0.2279489926
C   C10       1.0  0.32770  0.65528  0.76110  1.0000 0.2279489926
C   C11       1.0  0.32770  0.84472  0.26110  1.0000 0.2279489926
C   C12       1.0  0.67230  0.34472  0.23890  1.0000 0.2279489926
C   C13       1.0  0.85440  0.12160  0.72610  1.0000 -0.199026593
C   C14       1.0  0.14560  0.62160  0.77390  1.0000 -0.199026593
C   C15       1.0  0.14560  0.87840  0.27390  1.0000 -0.199026593
C   C16       1.0  0.85440  0.37840  0.22610  1.0000 -0.199026593
C   C17       1.0  0.88320  0.07747  0.77220  1.0000 0.0985580888
C   C18       1.0  0.11680  0.57747  0.72780  1.0000 0.0985580888
C   C19       1.0  0.11680  0.92253  0.22780  1.0000 0.0985580888
C   C20       1.0  0.88320  0.42253  0.27220  1.0000 0.0985580888
C   C21       1.0  0.44610  0.21341  0.64260  1.0000 0.4504370979
C   C22       1.0  0.55390  0.71341  0.85740  1.0000 0.4504370979
C   C23       1.0  0.55390  0.78659  0.35740  1.0000 0.4504370979
C   C24       1.0  0.44610  0.28659  0.14260  1.0000 0.4504370979
C   C25       1.0  0.42450  0.26594  0.60690  1.0000 -0.0709350416
C   C26       1.0  0.57550  0.76594  0.89310  1.0000 -0.0709350416
C   C27       1.0  0.57550  0.73406  0.39310  1.0000 -0.0709350416
C   C28       1.0  0.42450  0.23406  0.10690  1.0000 -0.0709350416
C   C29       1.0  0.59760  0.30421  0.63220  1.0000 0.0346628046
C   C30       1.0  0.40240  0.80421  0.86780  1.0000 0.0382982123
C   C31       1.0  0.40240  0.69579  0.36780  1.0000 0.0346628046
C   C32       1.0  0.59760  0.19579  0.13220  1.0000 0.0382982123
C   C33       1.0  0.80220  0.29248  0.68920  1.0000 -0.0810144503
C   C34       1.0  0.19780  0.79248  0.81080  1.0000 -0.0810144503
C   C35       1.0  0.19780  0.70752  0.31080  1.0000 -0.0810144503
C   C36       1.0  0.80220  0.20752  0.18920  1.0000 -0.0810144503
C   C37       1.0  0.83640  0.23998  0.72410  1.0000 0.4504370979
C   C38       1.0  0.16360  0.73998  0.77590  1.0000 0.4504370979
C   C39       1.0  0.16360  0.76002  0.27590  1.0000 0.4504370979
C   C40       1.0  0.83640  0.26002  0.22410  1.0000 0.4504370979
C   C41       1.0  0.22850  0.27632  0.54990  1.0000 -0.0810144503
C   C42       1.0  0.77150  0.77632  0.95010  1.0000 -0.0810144503
C   C43       1.0  0.77150  0.72368  0.45010  1.0000 -0.0810144503
C   C44       1.0  0.22850  0.22368  0.04990  1.0000 -0.0810144503
C   C45       1.0  0.19380  0.32672  0.51920  1.0000 -0.1102002048
C   C46       1.0  0.80620  0.82672  0.98080  1.0000 -0.1102002048
C   C47       1.0  0.80620  0.67328  0.48080  1.0000 -0.1102002048
C   C48       1.0  0.19380  0.17328  0.01920  1.0000 -0.1102002048
C   C49       1.0  0.35180  0.36575  0.54590  1.0000 -0.0454708719
C   C50       1.0  0.64820  0.86575  0.95410  1.0000 -0.0454708719
C   C51       1.0  0.64820  0.63425  0.45410  1.0000 -0.0454708719
C   C52       1.0  0.35180  0.13425  0.04590  1.0000 -0.0454708719
C   C53       1.0  0.56560  0.35535  0.60064  1.0000 0.0382982123
C   C54       1.0  0.43440  0.85535  0.89936  1.0000 0.0382982123
C   C55       1.0  0.43440  0.64465  0.39936  1.0000 0.0382982123
C   C56       1.0  0.56560  0.14465  0.10064  1.0000 0.0382982123
C   C57       1.0  0.75010  0.39232  0.62680  1.0000 -0.0342779266
C   C58       1.0  0.24990  0.89232  0.87320  1.0000 -0.0342779266
C   C59       1.0  0.24990  0.60768  0.37320  1.0000 -0.0342779266
C   C60       1.0  0.75010  0.10768  0.12680  1.0000 -0.0342779266
C   C61       1.0  0.94430  0.37921  0.68320  1.0000 -0.1102002048
C   C62       1.0  0.05570  0.87921  0.81680  1.0000 -0.1102002048
C   C63       1.0  0.05570  0.62079  0.31680  1.0000 -0.1102002048
C   C64       1.0  0.94430  0.12079  0.18320  1.0000 -0.1102002048
C   C65       1.0  0.97040  0.32956  0.71490  1.0000 -0.0810144503
C   C66       1.0  0.02960  0.82956  0.78510  1.0000 -0.0810144503
C   C67       1.0  0.02960  0.67044  0.28510  1.0000 -0.0810144503
C   C68       1.0  0.97040  0.17044  0.21490  1.0000 -0.0810144503
C   C69       1.0  0.26390  0.41971  0.52390  1.0000 0.5915841154
C   C70       1.0  0.73610  0.91971  0.97610  1.0000 0.5915841154
C   C71       1.0  0.73610  0.58029  0.47610  1.0000 0.5915841154
C   C72       1.0  0.26390  0.08029  0.02390  1.0000 0.5915841154
C   C73       1.0  0.77390  0.44373  0.58600  1.0000 0.5978410831
C   C74       1.0  0.22610  0.94373  0.91400  1.0000 0.5978410831
C   C75       1.0  0.22610  0.55627  0.41400  1.0000 0.5978410831
C   C76       1.0  0.77390  0.05627  0.08600  1.0000 0.5978410831
N   N1        1.0  0.73950  0.06585  0.82687  1.0000 -0.209384937
N   N2        1.0  0.26050  0.56585  0.67313  1.0000 -0.2155244806
N   N3        1.0  0.26050  0.93415  0.17313  1.0000 -0.2155244806
N   N4        1.0  0.73950  0.43415  0.32687  1.0000 -0.2155244806
N   N5        1.0  0.65210  0.20458  0.69965  1.0000 -0.2335662155
N   N6        1.0  0.34790  0.70458  0.80035  1.0000 -0.2335662155
N   N7        1.0  0.34790  0.79542  0.30035  1.0000 -0.2335662155
N   N8        1.0  0.65210  0.29542  0.19965  1.0000 -0.2355277249
O   O1        1.0  0.28910  0.45242  0.57993  1.0000 -0.521893532
O   O2        1.0  0.71090  0.95242  0.92007  1.0000 -0.521893532
O   O3        1.0  0.71090  0.54758  0.42007  1.0000 -0.521893532
O   O4        1.0  0.28910  0.04758  0.07993  1.0000 -0.521893532
O   O5        1.0  0.15480  0.42625  0.45465  1.0000 -0.5384601661
O   O6        1.0  0.84520  0.92625  0.04535  1.0000 -0.5384601661
O   O7        1.0  0.84520  0.57375  0.54535  1.0000 -0.5384601661
O   O8        1.0  0.15480  0.07375  0.95465  1.0000 -0.5384601661
O   O9        1.0  0.72790  0.44401  0.51054  1.0000 -0.5478569576
O   O10       1.0  0.27210  0.94401  0.98946  1.0000 -0.5478569576
O   O11       1.0  0.27210  0.55599  0.48946  1.0000 -0.5478569576
O   O12       1.0  0.72790  0.05599  0.01054  1.0000 -0.5478569576
O   O13       1.0  0.86240  0.48011  0.63006  1.0000 -0.5312393317
O   O14       1.0  0.13760  0.98011  0.86994  1.0000 -0.5312393317
O   O15       1.0  0.13760  0.51989  0.36994  1.0000 -0.5312393317
O   O16       1.0  0.86240  0.01989  0.13006  1.0000 -0.5312393317
O   O17       1.0  0.29900  0.17956  0.62587  1.0000 -0.4261977085
O   O18       1.0  0.70100  0.67956  0.87413  1.0000 -0.4261977085
O   O19       1.0  0.70100  0.82044  0.37413  1.0000 -0.4261977085
O   O20       1.0  0.29900  0.32044  0.12587  1.0000 -0.4261977085
O   O21       1.0  0.01080  0.22833  0.77335  1.0000 -0.4394386122
O   O22       1.0  0.98920  0.72833  0.72665  1.0000 -0.4394386122
O   O23       1.0  0.98920  0.77167  0.22665  1.0000 -0.4394386122
O   O24       1.0  0.01080  0.27167  0.27335  1.0000 -0.4394386122
