# DDEC6 charges by PACMAN v1.1 (https://github.com/mtap-research/PACMAN-charge/)
data_2013[Co][nan]3[FSR]11
_chemical_formula_sum              "Co12 H24 C40 N32 O24"
_cell_length_a       15.2609
_cell_length_b       15.2609
_cell_length_c       15.2609
_cell_angle_alpha    94.3953
_cell_angle_beta     94.3953
_cell_angle_gamma    147.857

_symmetry_space_group_name_H-M    "P 1"
_symmetry_Int_Tables_number       1

loop_
  _symmetry_equiv_pos_as_xyz
  'x, y, z'

loop_
  _atom_site_type_symbol
  _atom_site_label
  _atom_site_symmetry_multiplicity
  _atom_site_fract_x
  _atom_site_fract_y
  _atom_site_fract_z
  _atom_site_occupancy
  _atom_site_charge
Co  Co1       1.0  0.12500  0.37500  0.25000  1.0000 0.8746578922
Co  Co2       1.0  0.12500  0.87500  0.75000  1.0000 0.8746578922
Co  Co3       1.0  0.12500  0.87500  0.25000  1.0000 0.8772907188
Co  Co4       1.0  0.62500  0.87500  0.75000  1.0000 0.8772907188
Co  Co5       1.0  0.77113  0.06079  0.30018  1.0000 0.9389396538
Co  Co6       1.0  0.76061  0.47095  0.69982  1.0000 0.9389396538
Co  Co7       1.0  0.72095  0.52113  0.21034  1.0000 0.9389396538
Co  Co8       1.0  0.31079  0.51061  0.78966  1.0000 0.9389396538
Co  Co9       1.0  0.47887  0.68921  0.19982  1.0000 0.9389396538
Co  Co10      1.0  0.48939  0.27905  0.80018  1.0000 0.9389396538
Co  Co11      1.0  0.52905  0.22887  0.28966  1.0000 0.9389396538
Co  Co12      1.0  0.93921  0.23939  0.71034  1.0000 0.9389396538
H   H1        1.0  0.25000  0.47500  0.44220  1.0000 0.2992529204
H   H2        1.0  0.03280  0.80780  0.55780  1.0000 0.2992529204
H   H3        1.0  0.05780  0.00000  0.27500  1.0000 0.2992529204
H   H4        1.0  0.72500  0.78280  0.72500  1.0000 0.2992529204
H   H5        1.0  0.00000  0.27500  0.05780  1.0000 0.2992529204
H   H6        1.0  0.21720  0.94220  0.94220  1.0000 0.2992529204
H   H7        1.0  0.19220  0.75000  0.22500  1.0000 0.2992529204
H   H8        1.0  0.52500  0.96720  0.77500  1.0000 0.2992529204
H   H9        1.0  0.92040  0.24790  0.50270  1.0000 0.1074575638
H   H10       1.0  0.74520  0.41770  0.49730  1.0000 0.1074575638
H   H11       1.0  0.66770  0.67040  0.17250  1.0000 0.1074575638
H   H12       1.0  0.49790  0.49520  0.82750  1.0000 0.1074575638
H   H13       1.0  0.32960  0.50210  0.99730  1.0000 0.1074575638
H   H14       1.0  0.50480  0.33230  0.00270  1.0000 0.1074575638
H   H15       1.0  0.58230  0.07960  0.32750  1.0000 0.1074575638
H   H16       1.0  0.75210  0.25480  0.67250  1.0000 0.1074575638
H   H17       1.0  0.33100  0.55750  0.59190  1.0000 0.1286078771
H   H18       1.0  0.96560  0.73910  0.40810  1.0000 0.1286078771
H   H19       1.0  0.98910  0.08100  0.27350  1.0000 0.1286078771
H   H20       1.0  0.80750  0.71560  0.72650  1.0000 0.1286078771
H   H21       1.0  0.91900  0.19250  0.90810  1.0000 0.1286078771
H   H22       1.0  0.28440  0.01090  0.09190  1.0000 0.1286078771
H   H23       1.0  0.26090  0.66900  0.22650  1.0000 0.1286078771
H   H24       1.0  0.44250  0.03440  0.77350  1.0000 0.1286078771
C   C1        1.0  0.43898  0.68839  0.40757  1.0000 0.4497600203
C   C2        1.0  0.28082  0.03141  0.59243  1.0000 0.4497600203
C   C3        1.0  0.28141  0.18898  0.25059  1.0000 0.4497600203
C   C4        1.0  0.93839  0.03082  0.74941  1.0000 0.4497600203
C   C5        1.0  0.81102  0.06161  0.09243  1.0000 0.4497600203
C   C6        1.0  0.96918  0.71859  0.90757  1.0000 0.4497600203
C   C7        1.0  0.96859  0.56102  0.24941  1.0000 0.4497600203
C   C8        1.0  0.31161  0.71918  0.75059  1.0000 0.4497600203
C   C9        1.0  0.58942  0.86266  0.45468  1.0000 -0.0498134148
C   C10       1.0  0.40798  0.13474  0.54532  1.0000 -0.0498134148
C   C11       1.0  0.38474  0.33942  0.22676  1.0000 -0.0498134148
C   C12       1.0  0.11266  0.15798  0.77324  1.0000 -0.0498134148
C   C13       1.0  0.66058  0.88734  0.04532  1.0000 -0.0498134148
C   C14       1.0  0.84202  0.61526  0.95468  1.0000 -0.0498134148
C   C15       1.0  0.86526  0.41058  0.27324  1.0000 -0.0498134148
C   C16       1.0  0.13734  0.59202  0.72676  1.0000 -0.0498134148
C   C17       1.0  0.82251  0.13322  0.50233  1.0000 0.1914896151
C   C18       1.0  0.63089  0.32018  0.49767  1.0000 0.1914896151
C   C19       1.0  0.57018  0.57251  0.18929  1.0000 0.1914896151
C   C20       1.0  0.38322  0.38089  0.81071  1.0000 0.1914896151
C   C21       1.0  0.42749  0.61678  0.99767  1.0000 0.1914896151
C   C22       1.0  0.61911  0.42982  0.00233  1.0000 0.1914896151
C   C23       1.0  0.67982  0.17749  0.31071  1.0000 0.1914896151
C   C24       1.0  0.86678  0.36911  0.68929  1.0000 0.1914896151
C   C25       1.0  0.63467  0.91145  0.55072  1.0000 0.2695824844
C   C26       1.0  0.36073  0.08395  0.44928  1.0000 0.2695824844
C   C27       1.0  0.33395  0.38467  0.22322  1.0000 0.2695824844
C   C28       1.0  0.16145  0.11073  0.77678  1.0000 0.2695824844
C   C29       1.0  0.61533  0.83855  0.94928  1.0000 0.2695824844
C   C30       1.0  0.88927  0.66605  0.05072  1.0000 0.2695824844
C   C31       1.0  0.91605  0.36533  0.27678  1.0000 0.2695824844
C   C32       1.0  0.08855  0.63927  0.72322  1.0000 0.2695824844
C   C33       1.0  0.39955  0.63886  0.55901  1.0000 0.2695824844
C   C34       1.0  0.07985  0.84054  0.44099  1.0000 0.2695824844
C   C35       1.0  0.09054  0.14955  0.26069  1.0000 0.2695824844
C   C36       1.0  0.88886  0.82985  0.73931  1.0000 0.2695824844
C   C37       1.0  0.85045  0.11114  0.94099  1.0000 0.2695824844
C   C38       1.0  0.17015  0.90946  0.05901  1.0000 0.2695824844
C   C39       1.0  0.15946  0.60045  0.23931  1.0000 0.2695824844
C   C40       1.0  0.36114  0.92015  0.76069  1.0000 0.2695824844
N   N1        1.0  0.71231  0.00785  0.42536  1.0000 -0.2422942831
N   N2        1.0  0.58249  0.28695  0.57464  1.0000 -0.2422942831
N   N3        1.0  0.53695  0.46231  0.20446  1.0000 -0.2422942831
N   N4        1.0  0.25785  0.33249  0.79554  1.0000 -0.2422942831
N   N5        1.0  0.53769  0.74215  0.07464  1.0000 -0.2422942831
N   N6        1.0  0.66751  0.46305  0.92536  1.0000 -0.2422942831
N   N7        1.0  0.71305  0.28769  0.29554  1.0000 -0.2422942831
N   N8        1.0  0.99215  0.41751  0.70446  1.0000 -0.2422942831
N   N9        1.0  0.78256  0.08264  0.58020  1.0000 -0.3316993186
N   N10       1.0  0.50244  0.20236  0.41980  1.0000 -0.3316993186
N   N11       1.0  0.45236  0.53256  0.19992  1.0000 -0.3316993186
N   N12       1.0  0.33264  0.25244  0.80008  1.0000 -0.3316993186
N   N13       1.0  0.46744  0.66736  0.91980  1.0000 -0.3316993186
N   N14       1.0  0.74756  0.54764  0.08020  1.0000 -0.3316993186
N   N15       1.0  0.79764  0.21744  0.30008  1.0000 -0.3316993186
N   N16       1.0  0.91736  0.49756  0.69992  1.0000 -0.3316993186
N   N17       1.0  0.54045  0.79968  0.60433  1.0000 -0.3220283496
N   N18       1.0  0.19535  0.93612  0.39567  1.0000 -0.3220283496
N   N19       1.0  0.18612  0.29045  0.24077  1.0000 -0.3220283496
N   N20       1.0  0.04968  0.94535  0.75923  1.0000 -0.3220283496
N   N21       1.0  0.70955  0.95032  0.89567  1.0000 -0.3220283496
N   N22       1.0  0.05465  0.81388  0.10433  1.0000 -0.3220283496
N   N23       1.0  0.06388  0.45955  0.25923  1.0000 -0.3220283496
N   N24       1.0  0.20032  0.80465  0.74077  1.0000 -0.3220283496
N   N25       1.0  0.34722  0.58331  0.46633  1.0000 -0.3062888415
N   N26       1.0  0.11698  0.88089  0.53367  1.0000 -0.3062888415
N   N27       1.0  0.13089  0.09722  0.26391  1.0000 -0.3062888415
N   N28       1.0  0.83331  0.86698  0.73609  1.0000 -0.3062888415
N   N29       1.0  0.90278  0.16669  0.03367  1.0000 -0.3062888415
N   N30       1.0  0.13302  0.86911  0.96633  1.0000 -0.3062888415
N   N31       1.0  0.11911  0.65278  0.23609  1.0000 -0.3062888415
N   N32       1.0  0.41669  0.88302  0.76391  1.0000 -0.3062888415
O   O1        1.0  0.03144  0.27408  0.35572  1.0000 -0.7064790412
O   O2        1.0  0.91836  0.67572  0.64428  1.0000 -0.7064790412
O   O3        1.0  0.92572  0.78144  0.25736  1.0000 -0.7064790412
O   O4        1.0  0.52408  0.66836  0.74264  1.0000 -0.7064790412
O   O5        1.0  0.21856  0.47592  0.14428  1.0000 -0.7049309382
O   O6        1.0  0.33164  0.07428  0.85572  1.0000 -0.7064790412
O   O7        1.0  0.32428  0.96856  0.24264  1.0000 -0.7064790412
O   O8        1.0  0.72592  0.08164  0.75736  1.0000 -0.7064790412
O   O9        1.0  0.37919  0.61974  0.32353  1.0000 -0.4939136276
O   O10       1.0  0.29621  0.05566  0.67647  1.0000 -0.4939136276
O   O11       1.0  0.30566  0.12919  0.25945  1.0000 -0.4939136276
O   O12       1.0  0.86974  0.04621  0.74055  1.0000 -0.4939136276
O   O13       1.0  0.87081  0.13026  0.17647  1.0000 -0.4939136276
O   O14       1.0  0.95379  0.69434  0.82353  1.0000 -0.4939136276
O   O15       1.0  0.94434  0.62081  0.24055  1.0000 -0.4939136276
O   O16       1.0  0.38026  0.70379  0.75945  1.0000 -0.4939136276
O   O17       1.0  0.72631  0.89208  0.27659  1.0000 -0.6403364087
O   O18       1.0  0.61549  0.44972  0.72341  1.0000 -0.6403364087
O   O19       1.0  0.69972  0.47631  0.33423  1.0000 -0.6403364087
O   O20       1.0  0.14208  0.36549  0.66577  1.0000 -0.6403364087
O   O21       1.0  0.52369  0.85792  0.22341  1.0000 -0.6403364087
O   O22       1.0  0.63451  0.30028  0.77659  1.0000 -0.6403364087
O   O23       1.0  0.55028  0.27369  0.16577  1.0000 -0.6403364087
O   O24       1.0  0.10792  0.38451  0.83423  1.0000 -0.6403364087
