# DDEC6 charges by PACMAN v1.1 (https://github.com/mtap-research/PACMAN-charge/)
data_2013[Mn][nan]3[FSR]5
_chemical_formula_sum              "Mn12 H96 C84 S12 N12 O36"
_cell_length_a       16.3541
_cell_length_b       16.3541
_cell_length_c       16.3541
_cell_angle_alpha    110.524
_cell_angle_beta     110.524
_cell_angle_gamma    110.524

_symmetry_space_group_name_H-M    "P 1"
_symmetry_Int_Tables_number       1

loop_
  _symmetry_equiv_pos_as_xyz
  'x, y, z'

loop_
  _atom_site_type_symbol
  _atom_site_label
  _atom_site_symmetry_multiplicity
  _atom_site_fract_x
  _atom_site_fract_y
  _atom_site_fract_z
  _atom_site_occupancy
  _atom_site_charge
Mn  Mn1       1.0  0.40779  0.75000  0.09221  1.0000 0.825502972
Mn  Mn2       1.0  0.75000  0.09221  0.40779  1.0000 0.825502972
Mn  Mn3       1.0  0.09221  0.40779  0.75000  1.0000 0.825502972
Mn  Mn4       1.0  0.59221  0.25000  0.90779  1.0000 0.825502972
Mn  Mn5       1.0  0.25000  0.90779  0.59221  1.0000 0.825502972
Mn  Mn6       1.0  0.90779  0.59221  0.25000  1.0000 0.825502972
Mn  Mn7       1.0  0.25000  0.65716  0.84284  1.0000 0.8241769673
Mn  Mn8       1.0  0.65716  0.84284  0.25000  1.0000 0.8241769673
Mn  Mn9       1.0  0.84284  0.25000  0.65716  1.0000 0.8241769673
Mn  Mn10      1.0  0.75000  0.34284  0.15716  1.0000 0.8241769673
Mn  Mn11      1.0  0.34284  0.15716  0.75000  1.0000 0.8241769673
Mn  Mn12      1.0  0.15716  0.75000  0.34284  1.0000 0.8241769673
H   H1        1.0  0.38280  0.40900  0.82210  1.0000 0.139278643
H   H2        1.0  0.40900  0.82210  0.38280  1.0000 0.139278643
H   H3        1.0  0.82210  0.38280  0.40900  1.0000 0.139278643
H   H4        1.0  0.11720  0.67790  0.09100  1.0000 0.139278643
H   H5        1.0  0.09100  0.11720  0.67790  1.0000 0.139278643
H   H6        1.0  0.67790  0.09100  0.11720  1.0000 0.139278643
H   H7        1.0  0.61720  0.59100  0.17790  1.0000 0.139278643
H   H8        1.0  0.59100  0.17790  0.61720  1.0000 0.139278643
H   H9        1.0  0.17790  0.61720  0.59100  1.0000 0.139278643
H   H10       1.0  0.88280  0.32210  0.90900  1.0000 0.139278643
H   H11       1.0  0.90900  0.88280  0.32210  1.0000 0.139278643
H   H12       1.0  0.32210  0.90900  0.88280  1.0000 0.139278643
H   H13       1.0  0.48310  0.77630  0.91880  1.0000 0.0877909736
H   H14       1.0  0.77630  0.91880  0.48310  1.0000 0.0877909736
H   H15       1.0  0.91880  0.48310  0.77630  1.0000 0.0877909736
H   H16       1.0  0.01690  0.58120  0.72370  1.0000 0.0877909736
H   H17       1.0  0.72370  0.01690  0.58120  1.0000 0.0877909736
H   H18       1.0  0.58120  0.72370  0.01690  1.0000 0.0877909736
H   H19       1.0  0.51690  0.22370  0.08120  1.0000 0.0877909736
H   H20       1.0  0.22370  0.08120  0.51690  1.0000 0.0877909736
H   H21       1.0  0.08120  0.51690  0.22370  1.0000 0.0877909736
H   H22       1.0  0.98310  0.41880  0.27630  1.0000 0.0877909736
H   H23       1.0  0.27630  0.98310  0.41880  1.0000 0.0877909736
H   H24       1.0  0.41880  0.27630  0.98310  1.0000 0.0877909736
H   H25       1.0  0.38950  0.78820  0.70440  1.0000 0.153859228
H   H26       1.0  0.78820  0.70440  0.38950  1.0000 0.153859228
H   H27       1.0  0.70440  0.38950  0.78820  1.0000 0.153859228
H   H28       1.0  0.11050  0.79560  0.71180  1.0000 0.153859228
H   H29       1.0  0.71180  0.11050  0.79560  1.0000 0.153859228
H   H30       1.0  0.79560  0.71180  0.11050  1.0000 0.153859228
H   H31       1.0  0.61050  0.21180  0.29560  1.0000 0.153859228
H   H32       1.0  0.21180  0.29560  0.61050  1.0000 0.153859228
H   H33       1.0  0.29560  0.61050  0.21180  1.0000 0.153859228
H   H34       1.0  0.88950  0.20440  0.28820  1.0000 0.153859228
H   H35       1.0  0.28820  0.88950  0.20440  1.0000 0.153859228
H   H36       1.0  0.20440  0.28820  0.88950  1.0000 0.153859228
H   H37       1.0  0.49560  0.89280  0.75380  1.0000 0.1324850937
H   H38       1.0  0.89280  0.75380  0.49560  1.0000 0.1324850937
H   H39       1.0  0.75380  0.49560  0.89280  1.0000 0.1324850937
H   H40       1.0  0.00440  0.74620  0.60720  1.0000 0.1324850937
H   H41       1.0  0.60720  0.00440  0.74620  1.0000 0.1324850937
H   H42       1.0  0.74620  0.60720  0.00440  1.0000 0.1324850937
H   H43       1.0  0.50440  0.10720  0.24620  1.0000 0.1324850937
H   H44       1.0  0.10720  0.24620  0.50440  1.0000 0.1324850937
H   H45       1.0  0.24620  0.50440  0.10720  1.0000 0.1324850937
H   H46       1.0  0.99560  0.25380  0.39280  1.0000 0.1324850937
H   H47       1.0  0.39280  0.99560  0.25380  1.0000 0.1324850937
H   H48       1.0  0.25380  0.39280  0.99560  1.0000 0.1324850937
H   H49       1.0  0.47720  0.78270  0.68490  1.0000 0.1324850937
H   H50       1.0  0.78270  0.68490  0.47720  1.0000 0.1324850937
H   H51       1.0  0.68490  0.47720  0.78270  1.0000 0.1324850937
H   H52       1.0  0.02280  0.81510  0.71730  1.0000 0.1324850937
H   H53       1.0  0.71730  0.02280  0.81510  1.0000 0.1324850937
H   H54       1.0  0.81510  0.71730  0.02280  1.0000 0.1324850937
H   H55       1.0  0.52280  0.21730  0.31510  1.0000 0.1324850937
H   H56       1.0  0.21730  0.31510  0.52280  1.0000 0.1324850937
H   H57       1.0  0.31510  0.52280  0.21730  1.0000 0.1324850937
H   H58       1.0  0.97720  0.18490  0.28270  1.0000 0.1324850937
H   H59       1.0  0.28270  0.97720  0.18490  1.0000 0.1324850937
H   H60       1.0  0.18490  0.28270  0.97720  1.0000 0.1324850937
H   H61       1.0  0.64130  0.86870  0.95260  1.0000 0.1324850937
H   H62       1.0  0.86870  0.95260  0.64130  1.0000 0.1324850937
H   H63       1.0  0.95260  0.64130  0.86870  1.0000 0.1324850937
H   H64       1.0  0.85870  0.54740  0.63130  1.0000 0.1324850937
H   H65       1.0  0.63130  0.85870  0.54740  1.0000 0.1324850937
H   H66       1.0  0.54740  0.63130  0.85870  1.0000 0.1324850937
H   H67       1.0  0.35870  0.13130  0.04740  1.0000 0.1324850937
H   H68       1.0  0.13130  0.04740  0.35870  1.0000 0.1324850937
H   H69       1.0  0.04740  0.35870  0.13130  1.0000 0.1324850937
H   H70       1.0  0.14130  0.45260  0.36870  1.0000 0.1324850937
H   H71       1.0  0.36870  0.14130  0.45260  1.0000 0.1324850937
H   H72       1.0  0.45260  0.36870  0.14130  1.0000 0.1324850937
H   H73       1.0  0.64790  0.84540  0.85230  1.0000 0.1324850937
H   H74       1.0  0.84540  0.85230  0.64790  1.0000 0.1324850937
H   H75       1.0  0.85230  0.64790  0.84540  1.0000 0.1324850937
H   H76       1.0  0.85210  0.64770  0.65460  1.0000 0.1324850937
H   H77       1.0  0.65460  0.85210  0.64770  1.0000 0.1324850937
H   H78       1.0  0.64770  0.65460  0.85210  1.0000 0.1324850937
H   H79       1.0  0.35210  0.15460  0.14770  1.0000 0.1324850937
H   H80       1.0  0.15460  0.14770  0.35210  1.0000 0.1324850937
H   H81       1.0  0.14770  0.35210  0.15460  1.0000 0.1324850937
H   H82       1.0  0.14790  0.35230  0.34540  1.0000 0.1324850937
H   H83       1.0  0.34540  0.14790  0.35230  1.0000 0.1324850937
H   H84       1.0  0.35230  0.34540  0.14790  1.0000 0.1324850937
H   H85       1.0  0.65080  0.94780  0.91500  1.0000 0.139278643
H   H86       1.0  0.94780  0.91500  0.65080  1.0000 0.139278643
H   H87       1.0  0.91500  0.65080  0.94780  1.0000 0.139278643
H   H88       1.0  0.84920  0.58500  0.55220  1.0000 0.139278643
H   H89       1.0  0.55220  0.84920  0.58500  1.0000 0.139278643
H   H90       1.0  0.58500  0.55220  0.84920  1.0000 0.139278643
H   H91       1.0  0.34920  0.05220  0.08500  1.0000 0.139278643
H   H92       1.0  0.05220  0.08500  0.34920  1.0000 0.139278643
H   H93       1.0  0.08500  0.34920  0.05220  1.0000 0.139278643
H   H94       1.0  0.15080  0.41500  0.44780  1.0000 0.139278643
H   H95       1.0  0.44780  0.15080  0.41500  1.0000 0.139278643
H   H96       1.0  0.41500  0.44780  0.15080  1.0000 0.139278643
C   C1        1.0  0.42333  0.51987  0.96131  1.0000 -0.0847184589
C   C2        1.0  0.51987  0.96131  0.42333  1.0000 -0.0847184589
C   C3        1.0  0.96131  0.42333  0.51987  1.0000 -0.0847184589
C   C4        1.0  0.07667  0.53869  0.98013  1.0000 -0.0847184589
C   C5        1.0  0.98013  0.07667  0.53869  1.0000 -0.0847184589
C   C6        1.0  0.53869  0.98013  0.07667  1.0000 -0.0847184589
C   C7        1.0  0.57667  0.48013  0.03869  1.0000 -0.0847184589
C   C8        1.0  0.48013  0.03869  0.57667  1.0000 -0.0847184589
C   C9        1.0  0.03869  0.57667  0.48013  1.0000 -0.0847184589
C   C10       1.0  0.92333  0.46131  0.01987  1.0000 -0.0847184589
C   C11       1.0  0.01987  0.92333  0.46131  1.0000 -0.0847184589
C   C12       1.0  0.46131  0.01987  0.92333  1.0000 -0.0847184589
C   C13       1.0  0.33796  0.53471  0.91055  1.0000 0.5846828224
C   C14       1.0  0.53471  0.91055  0.33796  1.0000 0.5846828224
C   C15       1.0  0.91055  0.33796  0.53471  1.0000 0.5846828224
C   C16       1.0  0.16204  0.58945  0.96529  1.0000 0.5846828224
C   C17       1.0  0.96529  0.16204  0.58945  1.0000 0.5846828224
C   C18       1.0  0.58945  0.96529  0.16204  1.0000 0.5846828224
C   C19       1.0  0.66204  0.46529  0.08945  1.0000 0.5846828224
C   C20       1.0  0.46529  0.08945  0.66204  1.0000 0.5846828224
C   C21       1.0  0.08945  0.66204  0.46529  1.0000 0.5846828224
C   C22       1.0  0.83796  0.41055  0.03471  1.0000 0.5846828224
C   C23       1.0  0.03471  0.83796  0.41055  1.0000 0.5846828224
C   C24       1.0  0.41055  0.03471  0.83796  1.0000 0.5846828224
C   C25       1.0  0.43105  0.44613  0.89467  1.0000 -0.1647386773
C   C26       1.0  0.44613  0.89467  0.43105  1.0000 -0.1647386773
C   C27       1.0  0.89467  0.43105  0.44613  1.0000 -0.1647386773
C   C28       1.0  0.06895  0.60533  0.05387  1.0000 -0.1647386773
C   C29       1.0  0.05387  0.06895  0.60533  1.0000 -0.1647386773
C   C30       1.0  0.60533  0.05387  0.06895  1.0000 -0.1647386773
C   C31       1.0  0.56895  0.55387  0.10533  1.0000 -0.1647386773
C   C32       1.0  0.55387  0.10533  0.56895  1.0000 -0.1647386773
C   C33       1.0  0.10533  0.56895  0.55387  1.0000 -0.1647386773
C   C34       1.0  0.93105  0.39467  0.94613  1.0000 -0.1647386773
C   C35       1.0  0.94613  0.93105  0.39467  1.0000 -0.1647386773
C   C36       1.0  0.39467  0.94613  0.93105  1.0000 -0.1647386773
C   C37       1.0  0.49274  0.57522  0.06932  1.0000 0.0877909736
C   C38       1.0  0.57522  0.06932  0.49274  1.0000 0.0877909736
C   C39       1.0  0.06932  0.49274  0.57522  1.0000 0.0877909736
C   C40       1.0  0.00726  0.43068  0.92478  1.0000 0.0877909736
C   C41       1.0  0.92478  0.00726  0.43068  1.0000 0.0877909736
C   C42       1.0  0.43068  0.92478  0.00726  1.0000 0.0877909736
C   C43       1.0  0.50726  0.42478  0.93068  1.0000 0.0877909736
C   C44       1.0  0.42478  0.93068  0.50726  1.0000 0.0877909736
C   C45       1.0  0.93068  0.50726  0.42478  1.0000 0.0877909736
C   C46       1.0  0.99274  0.56932  0.07522  1.0000 0.0877909736
C   C47       1.0  0.07522  0.99274  0.56932  1.0000 0.0877909736
C   C48       1.0  0.56932  0.07522  0.99274  1.0000 0.0877909736
C   C49       1.0  0.45031  0.77217  0.85537  1.0000 0.282420844
C   C50       1.0  0.77217  0.85537  0.45031  1.0000 0.282420844
C   C51       1.0  0.85537  0.45031  0.77217  1.0000 0.282420844
C   C52       1.0  0.04969  0.64463  0.72783  1.0000 0.282420844
C   C53       1.0  0.72783  0.04969  0.64463  1.0000 0.282420844
C   C54       1.0  0.64463  0.72783  0.04969  1.0000 0.282420844
C   C55       1.0  0.54969  0.22783  0.14463  1.0000 0.282420844
C   C56       1.0  0.22783  0.14463  0.54969  1.0000 0.282420844
C   C57       1.0  0.14463  0.54969  0.22783  1.0000 0.282420844
C   C58       1.0  0.95031  0.35537  0.27217  1.0000 0.282420844
C   C59       1.0  0.27217  0.95031  0.35537  1.0000 0.282420844
C   C60       1.0  0.35537  0.27217  0.95031  1.0000 0.282420844
C   C61       1.0  0.46430  0.82067  0.73513  1.0000 -0.3318385183
C   C62       1.0  0.82067  0.73513  0.46430  1.0000 -0.3318385183
C   C63       1.0  0.73513  0.46430  0.82067  1.0000 -0.3318385183
C   C64       1.0  0.03570  0.76487  0.67933  1.0000 -0.3318385183
C   C65       1.0  0.67933  0.03570  0.76487  1.0000 -0.3318385183
C   C66       1.0  0.76487  0.67933  0.03570  1.0000 -0.3318385183
C   C67       1.0  0.53570  0.17933  0.26487  1.0000 -0.3318385183
C   C68       1.0  0.17933  0.26487  0.53570  1.0000 -0.3318385183
C   C69       1.0  0.26487  0.53570  0.17933  1.0000 -0.3318385183
C   C70       1.0  0.96430  0.23513  0.32067  1.0000 -0.3318385183
C   C71       1.0  0.32067  0.96430  0.23513  1.0000 -0.3318385183
C   C72       1.0  0.23513  0.32067  0.96430  1.0000 -0.3318385183
C   C73       1.0  0.62137  0.87455  0.89198  1.0000 -0.3495791702
C   C74       1.0  0.87455  0.89198  0.62137  1.0000 -0.3495791702
C   C75       1.0  0.89198  0.62137  0.87455  1.0000 -0.3495791702
C   C76       1.0  0.87863  0.60802  0.62545  1.0000 -0.3495791702
C   C77       1.0  0.62545  0.87863  0.60802  1.0000 -0.3495791702
C   C78       1.0  0.60802  0.62545  0.87863  1.0000 -0.3495791702
C   C79       1.0  0.37863  0.12545  0.10802  1.0000 -0.3495791702
C   C80       1.0  0.12545  0.10802  0.37863  1.0000 -0.3495791702
C   C81       1.0  0.10802  0.37863  0.12545  1.0000 -0.3495791702
C   C82       1.0  0.12137  0.39198  0.37455  1.0000 -0.3495791702
C   C83       1.0  0.37455  0.12137  0.39198  1.0000 -0.3495791702
C   C84       1.0  0.39198  0.37455  0.12137  1.0000 -0.3495791702
S   S1        1.0  0.48572  0.66456  0.16172  1.0000 -0.4290391056
S   S2        1.0  0.66456  0.16172  0.48572  1.0000 -0.4290391056
S   S3        1.0  0.16172  0.48572  0.66456  1.0000 -0.4290391056
S   S4        1.0  0.01428  0.33828  0.83544  1.0000 -0.4290391056
S   S5        1.0  0.83544  0.01428  0.33828  1.0000 -0.4290391056
S   S6        1.0  0.33828  0.83544  0.01428  1.0000 -0.4290391056
S   S7        1.0  0.51428  0.33544  0.83828  1.0000 -0.4290391056
S   S8        1.0  0.33544  0.83828  0.51428  1.0000 -0.4290391056
S   S9        1.0  0.83828  0.51428  0.33544  1.0000 -0.4290391056
S   S10       1.0  0.98572  0.66172  0.16456  1.0000 -0.4290391056
S   S11       1.0  0.16456  0.98572  0.66172  1.0000 -0.4290391056
S   S12       1.0  0.66172  0.16456  0.98572  1.0000 -0.4290391056
N   N1        1.0  0.50979  0.81839  0.82734  1.0000 0.0323656649
N   N2        1.0  0.81839  0.82734  0.50979  1.0000 0.0323656649
N   N3        1.0  0.82734  0.50979  0.81839  1.0000 0.0323656649
N   N4        1.0  0.99021  0.67266  0.68161  1.0000 0.0323656649
N   N5        1.0  0.68161  0.99021  0.67266  1.0000 0.0323656649
N   N6        1.0  0.67266  0.68161  0.99021  1.0000 0.0323656649
N   N7        1.0  0.49021  0.18161  0.17266  1.0000 0.0323656649
N   N8        1.0  0.18161  0.17266  0.49021  1.0000 0.0323656649
N   N9        1.0  0.17266  0.49021  0.18161  1.0000 0.0323656649
N   N10       1.0  0.00979  0.32734  0.31839  1.0000 0.0323656649
N   N11       1.0  0.31839  0.00979  0.32734  1.0000 0.0323656649
N   N12       1.0  0.32734  0.31839  0.00979  1.0000 0.0323656649
O   O1        1.0  0.36084  0.62677  0.93424  1.0000 -0.5831144451
O   O2        1.0  0.62677  0.93424  0.36084  1.0000 -0.5831144451
O   O3        1.0  0.93424  0.36084  0.62677  1.0000 -0.5831144451
O   O4        1.0  0.13916  0.56576  0.87323  1.0000 -0.5831144451
O   O5        1.0  0.87323  0.13916  0.56576  1.0000 -0.5831144451
O   O6        1.0  0.56576  0.87323  0.13916  1.0000 -0.5831144451
O   O7        1.0  0.63916  0.37323  0.06576  1.0000 -0.5831144451
O   O8        1.0  0.37323  0.06576  0.63916  1.0000 -0.5831144451
O   O9        1.0  0.06576  0.63916  0.37323  1.0000 -0.5831144451
O   O10       1.0  0.86084  0.43424  0.12677  1.0000 -0.5831144451
O   O11       1.0  0.12677  0.86084  0.43424  1.0000 -0.5831144451
O   O12       1.0  0.43424  0.12677  0.86084  1.0000 -0.5831144451
O   O13       1.0  0.24992  0.45470  0.84457  1.0000 -0.4994342623
O   O14       1.0  0.45470  0.84457  0.24992  1.0000 -0.4994342623
O   O15       1.0  0.84457  0.24992  0.45470  1.0000 -0.4994342623
O   O16       1.0  0.25008  0.65543  0.04530  1.0000 -0.4994342623
O   O17       1.0  0.04530  0.25008  0.65543  1.0000 -0.4994342623
O   O18       1.0  0.65543  0.04530  0.25008  1.0000 -0.4994342623
O   O19       1.0  0.75008  0.54530  0.15543  1.0000 -0.4994342623
O   O20       1.0  0.54530  0.15543  0.75008  1.0000 -0.4994342623
O   O21       1.0  0.15543  0.75008  0.54530  1.0000 -0.4994342623
O   O22       1.0  0.74992  0.34457  0.95470  1.0000 -0.4994342623
O   O23       1.0  0.95470  0.74992  0.34457  1.0000 -0.4994342623
O   O24       1.0  0.34457  0.95470  0.74992  1.0000 -0.4994342623
O   O25       1.0  0.35569  0.72463  0.80379  1.0000 -0.4197854994
O   O26       1.0  0.72463  0.80379  0.35569  1.0000 -0.4197854994
O   O27       1.0  0.80379  0.35569  0.72463  1.0000 -0.4197854994
O   O28       1.0  0.14431  0.69621  0.77537  1.0000 -0.4197854994
O   O29       1.0  0.77537  0.14431  0.69621  1.0000 -0.4197854994
O   O30       1.0  0.69621  0.77537  0.14431  1.0000 -0.4197854994
O   O31       1.0  0.64431  0.27537  0.19621  1.0000 -0.4197854994
O   O32       1.0  0.27537  0.19621  0.64431  1.0000 -0.4197854994
O   O33       1.0  0.19621  0.64431  0.27537  1.0000 -0.4197854994
O   O34       1.0  0.85569  0.30379  0.22463  1.0000 -0.4197854994
O   O35       1.0  0.22463  0.85569  0.30379  1.0000 -0.4197854994
O   O36       1.0  0.30379  0.22463  0.85569  1.0000 -0.4197854994
