# DDEC6 charges by PACMAN v1.1 (https://github.com/mtap-research/PACMAN-charge/)
data_2013[Co][nan]3[FSR]4
_chemical_formula_sum              "Co12 H126 C150 N18 O54"
_cell_length_a       15.9363
_cell_length_b       15.9363
_cell_length_c       21.338
_cell_angle_alpha    90
_cell_angle_beta     90
_cell_angle_gamma    120

_symmetry_space_group_name_H-M    "P 1"
_symmetry_Int_Tables_number       1

loop_
  _symmetry_equiv_pos_as_xyz
  'x, y, z'

loop_
  _atom_site_type_symbol
  _atom_site_label
  _atom_site_symmetry_multiplicity
  _atom_site_fract_x
  _atom_site_fract_y
  _atom_site_fract_z
  _atom_site_occupancy
  _atom_site_charge
Co  Co1       1.0  0.44665  0.29302  0.08815  1.0000 1.0057967734
Co  Co2       1.0  0.70698  0.15363  0.42148  1.0000 1.0057967734
Co  Co3       1.0  0.84637  0.55335  0.75482  1.0000 1.0057967734
Co  Co4       1.0  0.55335  0.70698  0.58815  1.0000 1.0057967734
Co  Co5       1.0  0.29302  0.84637  0.92148  1.0000 1.0057967734
Co  Co6       1.0  0.15363  0.44665  0.25482  1.0000 1.0057967734
Co  Co7       1.0  0.51712  0.48611  0.19393  1.0000 0.8469784092
Co  Co8       1.0  0.51389  0.03101  0.52726  1.0000 0.8469784092
Co  Co9       1.0  0.96899  0.48288  0.86060  1.0000 0.8469784092
Co  Co10      1.0  0.48288  0.51389  0.69393  1.0000 0.8469784092
Co  Co11      1.0  0.48611  0.96899  0.02726  1.0000 0.8469784092
Co  Co12      1.0  0.03101  0.51712  0.36060  1.0000 0.8469784092
H   H1        1.0  0.52760  0.33380  0.55500  1.0000 0.1291763822
H   H2        1.0  0.66620  0.19380  0.88833  1.0000 0.1291763822
H   H3        1.0  0.80620  0.47240  0.22167  1.0000 0.1291763822
H   H4        1.0  0.47240  0.66620  0.05500  1.0000 0.1291763822
H   H5        1.0  0.33380  0.80620  0.38833  1.0000 0.1291763822
H   H6        1.0  0.19380  0.52760  0.72167  1.0000 0.1291763822
H   H7        1.0  0.55380  0.54080  0.43620  1.0000 0.1207782856
H   H8        1.0  0.45920  0.01300  0.76953  1.0000 0.1207782856
H   H9        1.0  0.98700  0.44620  0.10287  1.0000 0.1207782856
H   H10       1.0  0.44620  0.45920  0.93620  1.0000 0.1207782856
H   H11       1.0  0.54080  0.98700  0.26953  1.0000 0.1207782856
H   H12       1.0  0.01300  0.55380  0.60287  1.0000 0.1207782856
H   H13       1.0  0.60000  0.33120  0.37560  1.0000 0.1291763822
H   H14       1.0  0.66880  0.26880  0.70893  1.0000 0.1291763822
H   H15       1.0  0.73120  0.40000  0.04227  1.0000 0.1291763822
H   H16       1.0  0.40000  0.66880  0.87560  1.0000 0.1291763822
H   H17       1.0  0.33120  0.73120  0.20893  1.0000 0.1291763822
H   H18       1.0  0.26880  0.60000  0.54227  1.0000 0.1291763822
H   H19       1.0  0.61520  0.54790  0.32900  1.0000 0.1044618767
H   H20       1.0  0.45210  0.06730  0.66233  1.0000 0.1044618767
H   H21       1.0  0.93270  0.38480  0.99567  1.0000 0.1044618767
H   H22       1.0  0.38480  0.45210  0.82900  1.0000 0.1044618767
H   H23       1.0  0.54790  0.93270  0.16233  1.0000 0.1044618767
H   H24       1.0  0.06730  0.61520  0.49567  1.0000 0.1044618767
H   H25       1.0  0.63130  0.46370  0.30600  1.0000 0.1207782856
H   H26       1.0  0.53630  0.16760  0.63933  1.0000 0.1207782856
H   H27       1.0  0.83240  0.36870  0.97267  1.0000 0.1207782856
H   H28       1.0  0.36870  0.53630  0.80600  1.0000 0.1207782856
H   H29       1.0  0.46370  0.83240  0.13933  1.0000 0.1207782856
H   H30       1.0  0.16760  0.63130  0.47267  1.0000 0.1207782856
H   H31       1.0  0.40610  0.30060  0.32350  1.0000 0.139091614
H   H32       1.0  0.69940  0.10550  0.65683  1.0000 0.139091614
H   H33       1.0  0.89450  0.59390  0.99017  1.0000 0.139091614
H   H34       1.0  0.59390  0.69940  0.82350  1.0000 0.139091614
H   H35       1.0  0.30060  0.89450  0.15683  1.0000 0.139091614
H   H36       1.0  0.10550  0.40610  0.49017  1.0000 0.139091614
H   H37       1.0  0.49790  0.31160  0.28910  1.0000 0.139091614
H   H38       1.0  0.68840  0.18630  0.62243  1.0000 0.139091614
H   H39       1.0  0.81370  0.50210  0.95577  1.0000 0.139091614
H   H40       1.0  0.50210  0.68840  0.78910  1.0000 0.139091614
H   H41       1.0  0.31160  0.81370  0.12243  1.0000 0.139091614
H   H42       1.0  0.18630  0.49790  0.45577  1.0000 0.139091614
H   H43       1.0  0.46370  0.52840  0.33880  1.0000 0.1291763822
H   H44       1.0  0.47160  0.93530  0.67213  1.0000 0.1291763822
H   H45       1.0  0.06470  0.53630  0.00547  1.0000 0.1291763822
H   H46       1.0  0.53630  0.47160  0.83880  1.0000 0.1291763822
H   H47       1.0  0.52840  0.06470  0.17213  1.0000 0.1291763822
H   H48       1.0  0.93530  0.46370  0.50547  1.0000 0.1291763822
H   H49       1.0  0.39160  0.41930  0.35510  1.0000 0.1462989878
H   H50       1.0  0.58070  0.97230  0.68843  1.0000 0.1462989878
H   H51       1.0  0.02770  0.60840  0.02177  1.0000 0.1462989878
H   H52       1.0  0.60840  0.58070  0.85510  1.0000 0.1462989878
H   H53       1.0  0.41930  0.02770  0.18843  1.0000 0.1462989878
H   H54       1.0  0.97230  0.39160  0.52177  1.0000 0.1462989878
H   H55       1.0  0.29410  0.34630  0.09090  1.0000 0.1113125539
H   H56       1.0  0.65370  0.94780  0.42423  1.0000 0.1113125539
H   H57       1.0  0.05220  0.70590  0.75757  1.0000 0.1113125539
H   H58       1.0  0.70590  0.65370  0.59090  1.0000 0.1113125539
H   H59       1.0  0.34630  0.05220  0.92423  1.0000 0.1113125539
H   H60       1.0  0.94780  0.29410  0.25757  1.0000 0.1113125539
H   H61       1.0  0.12840  0.28270  0.08420  1.0000 0.1291763822
H   H62       1.0  0.71730  0.84570  0.41753  1.0000 0.1291763822
H   H63       1.0  0.15430  0.87160  0.75087  1.0000 0.1291763822
H   H64       1.0  0.87160  0.71730  0.58420  1.0000 0.1291763822
H   H65       1.0  0.28270  0.15430  0.91753  1.0000 0.1291763822
H   H66       1.0  0.84570  0.12840  0.25087  1.0000 0.1291763822
H   H67       1.0  0.10200  0.02340  0.04640  1.0000 0.139091614
H   H68       1.0  0.97660  0.07860  0.37973  1.0000 0.139091614
H   H69       1.0  0.92140  0.89800  0.71307  1.0000 0.139091614
H   H70       1.0  0.89800  0.97660  0.54640  1.0000 0.139091614
H   H71       1.0  0.02340  0.92140  0.87973  1.0000 0.139091614
H   H72       1.0  0.07860  0.10200  0.21307  1.0000 0.139091614
H   H73       1.0  0.26350  0.09170  0.05620  1.0000 0.1207782856
H   H74       1.0  0.90830  0.17180  0.38953  1.0000 0.1207782856
H   H75       1.0  0.82820  0.73650  0.72287  1.0000 0.1207782856
H   H76       1.0  0.73650  0.90830  0.55620  1.0000 0.1207782856
H   H77       1.0  0.09170  0.82820  0.88953  1.0000 0.1207782856
H   H78       1.0  0.17180  0.26350  0.22287  1.0000 0.1207782856
H   H79       1.0  0.95550  0.03790  0.04750  1.0000 0.1207782856
H   H80       1.0  0.96210  0.91760  0.38083  1.0000 0.1207782856
H   H81       1.0  0.08240  0.04450  0.71417  1.0000 0.1207782856
H   H82       1.0  0.04450  0.96210  0.54750  1.0000 0.1207782856
H   H83       1.0  0.03790  0.08240  0.88083  1.0000 0.1207782856
H   H84       1.0  0.91760  0.95550  0.21417  1.0000 0.1207782856
H   H85       1.0  0.97550  0.20980  0.07980  1.0000 0.1291763822
H   H86       1.0  0.79020  0.76570  0.41313  1.0000 0.1291763822
H   H87       1.0  0.23430  0.02450  0.74647  1.0000 0.1291763822
H   H88       1.0  0.02450  0.79020  0.57980  1.0000 0.1291763822
H   H89       1.0  0.20980  0.23430  0.91313  1.0000 0.1291763822
H   H90       1.0  0.76570  0.97550  0.24647  1.0000 0.1291763822
H   H91       1.0  0.82950  0.22510  0.06870  1.0000 0.139091614
H   H92       1.0  0.77490  0.60440  0.40203  1.0000 0.139091614
H   H93       1.0  0.39560  0.17050  0.73537  1.0000 0.139091614
H   H94       1.0  0.17050  0.77490  0.56870  1.0000 0.139091614
H   H95       1.0  0.22510  0.39560  0.90203  1.0000 0.139091614
H   H96       1.0  0.60440  0.82950  0.23537  1.0000 0.139091614
H   H97       1.0  0.66840  0.16110  0.05410  1.0000 0.1113125539
H   H98       1.0  0.83890  0.50730  0.38743  1.0000 0.1113125539
H   H99       1.0  0.49270  0.33160  0.72077  1.0000 0.1113125539
H   H100      1.0  0.33160  0.83890  0.55410  1.0000 0.1113125539
H   H101      1.0  0.16110  0.49270  0.88743  1.0000 0.1113125539
H   H102      1.0  0.50730  0.66840  0.22077  1.0000 0.1113125539
H   H103      1.0  0.63490  0.90210  0.05460  1.0000 0.1113125539
H   H104      1.0  0.09790  0.73280  0.38793  1.0000 0.1113125539
H   H105      1.0  0.26720  0.36510  0.72127  1.0000 0.1113125539
H   H106      1.0  0.36510  0.09790  0.55460  1.0000 0.1113125539
H   H107      1.0  0.90210  0.26720  0.88793  1.0000 0.1113125539
H   H108      1.0  0.73280  0.63490  0.22127  1.0000 0.1113125539
H   H109      1.0  0.79370  0.95950  0.06670  1.0000 0.1291763822
H   H110      1.0  0.04050  0.83420  0.40003  1.0000 0.1291763822
H   H111      1.0  0.16580  0.20630  0.73337  1.0000 0.1291763822
H   H112      1.0  0.20630  0.04050  0.56670  1.0000 0.1291763822
H   H113      1.0  0.95950  0.16580  0.90003  1.0000 0.1291763822
H   H114      1.0  0.83420  0.79370  0.23337  1.0000 0.1291763822
H   H115      1.0  0.51330  0.29210  0.97760  1.0000 0.3095302414
H   H116      1.0  0.70790  0.22120  0.31093  1.0000 0.3095302414
H   H117      1.0  0.77880  0.48670  0.64427  1.0000 0.3095302414
H   H118      1.0  0.48670  0.70790  0.47760  1.0000 0.3095302414
H   H119      1.0  0.29210  0.77880  0.81093  1.0000 0.3095302414
H   H120      1.0  0.22120  0.51330  0.14427  1.0000 0.3095302414
H   H121      1.0  0.47960  0.20090  0.99580  1.0000 0.344827516
H   H122      1.0  0.79910  0.27870  0.32913  1.0000 0.344827516
H   H123      1.0  0.72130  0.52040  0.66247  1.0000 0.345279796
H   H124      1.0  0.52040  0.79910  0.49580  1.0000 0.345279796
H   H125      1.0  0.20090  0.72130  0.82913  1.0000 0.345279796
H   H126      1.0  0.27870  0.47960  0.16247  1.0000 0.345279796
C   C1        1.0  0.56840  0.32070  0.46780  1.0000 -0.0077275654
C   C2        1.0  0.67930  0.24770  0.80113  1.0000 -0.0077275654
C   C3        1.0  0.75230  0.43160  0.13447  1.0000 -0.0077275654
C   C4        1.0  0.43160  0.67930  0.96780  1.0000 -0.0077275654
C   C5        1.0  0.32070  0.75230  0.30113  1.0000 -0.0077275654
C   C6        1.0  0.24770  0.56840  0.63447  1.0000 -0.0077275654
C   C7        1.0  0.54290  0.36240  0.51550  1.0000 -0.1434835244
C   C8        1.0  0.63760  0.18050  0.84883  1.0000 -0.1434835244
C   C9        1.0  0.81950  0.45710  0.18217  1.0000 -0.1434835244
C   C10       1.0  0.45710  0.63760  0.01550  1.0000 -0.1434835244
C   C11       1.0  0.36240  0.81950  0.34883  1.0000 -0.1455207188
C   C12       1.0  0.18050  0.54290  0.68217  1.0000 -0.1455207188
C   C13       1.0  0.54000  0.44680  0.50460  1.0000 -0.0033457234
C   C14       1.0  0.55320  0.09320  0.83793  1.0000 -0.0033457234
C   C15       1.0  0.90680  0.46000  0.17127  1.0000 -0.0033457234
C   C16       1.0  0.46000  0.55320  0.00460  1.0000 -0.0033457234
C   C17       1.0  0.44680  0.90680  0.33793  1.0000 -0.0033457234
C   C18       1.0  0.09320  0.54000  0.67127  1.0000 -0.0033457234
C   C19       1.0  0.55650  0.48470  0.44370  1.0000 -0.189190032
C   C20       1.0  0.51530  0.07180  0.77703  1.0000 -0.189190032
C   C21       1.0  0.92820  0.44350  0.11037  1.0000 -0.189190032
C   C22       1.0  0.44350  0.51530  0.94370  1.0000 -0.189190032
C   C23       1.0  0.48470  0.92820  0.27703  1.0000 -0.189190032
C   C24       1.0  0.07180  0.55650  0.61037  1.0000 -0.189190032
C   C25       1.0  0.57640  0.44150  0.39510  1.0000 0.0928820576
C   C26       1.0  0.55850  0.13490  0.72843  1.0000 0.0928820576
C   C27       1.0  0.86510  0.42360  0.06177  1.0000 0.0928820576
C   C28       1.0  0.42360  0.55850  0.89510  1.0000 0.0928820576
C   C29       1.0  0.44150  0.86510  0.22843  1.0000 0.0928820576
C   C30       1.0  0.13490  0.57640  0.56177  1.0000 0.0928820576
C   C31       1.0  0.58410  0.36000  0.40790  1.0000 -0.1739404071
C   C32       1.0  0.64000  0.22410  0.74123  1.0000 -0.1739404071
C   C33       1.0  0.77590  0.41590  0.07457  1.0000 -0.1739404071
C   C34       1.0  0.41590  0.64000  0.90790  1.0000 -0.1739404071
C   C35       1.0  0.36000  0.77590  0.24123  1.0000 -0.1739404071
C   C36       1.0  0.22410  0.58410  0.57457  1.0000 -0.1739404071
C   C37       1.0  0.58670  0.47800  0.32810  1.0000 -0.189190032
C   C38       1.0  0.52200  0.10870  0.66143  1.0000 -0.189190032
C   C39       1.0  0.89130  0.41330  0.99477  1.0000 -0.189190032
C   C40       1.0  0.41330  0.52200  0.82810  1.0000 -0.189190032
C   C41       1.0  0.47800  0.89130  0.16143  1.0000 -0.189190032
C   C42       1.0  0.10870  0.58670  0.49477  1.0000 -0.189190032
C   C43       1.0  0.44800  0.32950  0.28750  1.0000 -0.2745703329
C   C44       1.0  0.67050  0.11850  0.62083  1.0000 -0.2745703329
C   C45       1.0  0.88150  0.55200  0.95417  1.0000 -0.2745703329
C   C46       1.0  0.55200  0.67050  0.78750  1.0000 -0.2745703329
C   C47       1.0  0.32950  0.88150  0.12083  1.0000 -0.2745703329
C   C48       1.0  0.11850  0.44800  0.45417  1.0000 -0.2745703329
C   C49       1.0  0.38830  0.28750  0.22770  1.0000 0.6173112821
C   C50       1.0  0.71250  0.10080  0.56103  1.0000 0.6173112821
C   C51       1.0  0.89920  0.61170  0.89437  1.0000 0.6173112821
C   C52       1.0  0.61170  0.71250  0.72770  1.0000 0.6173112821
C   C53       1.0  0.28750  0.89920  0.06103  1.0000 0.6173112821
C   C54       1.0  0.10080  0.38830  0.39437  1.0000 0.6173112821
C   C55       1.0  0.42690  0.46380  0.32120  1.0000 -0.2792881795
C   C56       1.0  0.53620  0.96310  0.65453  1.0000 -0.2792881795
C   C57       1.0  0.03690  0.57310  0.98787  1.0000 -0.2792881795
C   C58       1.0  0.57310  0.53620  0.82120  1.0000 -0.2792881795
C   C59       1.0  0.46380  0.03690  0.15453  1.0000 -0.2792881795
C   C60       1.0  0.96310  0.42690  0.48787  1.0000 -0.2792881795
C   C61       1.0  0.35500  0.46170  0.27280  1.0000 0.6113117766
C   C62       1.0  0.53830  0.89330  0.60613  1.0000 0.6113117766
C   C63       1.0  0.10670  0.64500  0.93947  1.0000 0.6113117766
C   C64       1.0  0.64500  0.53830  0.77280  1.0000 0.6113117766
C   C65       1.0  0.46170  0.10670  0.10613  1.0000 0.6113117766
C   C66       1.0  0.89330  0.35500  0.43947  1.0000 0.6113117766
C   C67       1.0  0.57950  0.23230  0.47560  1.0000 0.5916536084
C   C68       1.0  0.76770  0.34720  0.80893  1.0000 0.5916536084
C   C69       1.0  0.65280  0.42050  0.14227  1.0000 0.5916536084
C   C70       1.0  0.42050  0.76770  0.97560  1.0000 0.5916536084
C   C71       1.0  0.23230  0.65280  0.30893  1.0000 0.5916536084
C   C72       1.0  0.34720  0.57950  0.64227  1.0000 0.5916536084
C   C73       1.0  0.52140  0.50120  0.55590  1.0000 0.5729216765
C   C74       1.0  0.49880  0.02020  0.88923  1.0000 0.5729216765
C   C75       1.0  0.97980  0.47860  0.22257  1.0000 0.5729216765
C   C76       1.0  0.47860  0.49880  0.05590  1.0000 0.5729216765
C   C77       1.0  0.50120  0.97980  0.38923  1.0000 0.5729216765
C   C78       1.0  0.02020  0.52140  0.72257  1.0000 0.5729216765
C   C79       1.0  0.25470  0.28070  0.08230  1.0000 0.1044618767
C   C80       1.0  0.71930  0.97400  0.41563  1.0000 0.1044618767
C   C81       1.0  0.02600  0.74530  0.74897  1.0000 0.1044618767
C   C82       1.0  0.74530  0.71930  0.58230  1.0000 0.1044618767
C   C83       1.0  0.28070  0.02600  0.91563  1.0000 0.1044618767
C   C84       1.0  0.97400  0.25470  0.24897  1.0000 0.1044618767
C   C85       1.0  0.15520  0.24320  0.07780  1.0000 -0.201426339
C   C86       1.0  0.75680  0.91200  0.41113  1.0000 -0.201426339
C   C87       1.0  0.08800  0.84480  0.74447  1.0000 -0.201426339
C   C88       1.0  0.84480  0.75680  0.57780  1.0000 -0.201426339
C   C89       1.0  0.24320  0.08800  0.91113  1.0000 -0.201426339
C   C90       1.0  0.91200  0.15520  0.24447  1.0000 -0.201426339
C   C91       1.0  0.09560  0.14440  0.06330  1.0000 0.139091614
C   C92       1.0  0.85560  0.95120  0.39663  1.0000 0.139091614
C   C93       1.0  0.04880  0.90440  0.72997  1.0000 0.139091614
C   C94       1.0  0.90440  0.85560  0.56330  1.0000 0.139091614
C   C95       1.0  0.14440  0.04880  0.89663  1.0000 0.139091614
C   C96       1.0  0.95120  0.09560  0.22997  1.0000 0.139091614
C   C97       1.0  0.13920  0.08900  0.05560  1.0000 -0.189190032
C   C98       1.0  0.91100  0.05020  0.38893  1.0000 -0.189190032
C   C99       1.0  0.94980  0.86080  0.72227  1.0000 -0.189190032
C   C100      1.0  0.86080  0.91100  0.55560  1.0000 -0.189190032
C   C101      1.0  0.08900  0.94980  0.88893  1.0000 -0.189190032
C   C102      1.0  0.05020  0.13920  0.22227  1.0000 -0.189190032
C   C103      1.0  0.23590  0.13060  0.06150  1.0000 0.080052205
C   C104      1.0  0.86940  0.10530  0.39483  1.0000 0.080052205
C   C105      1.0  0.89470  0.76410  0.72817  1.0000 0.080052205
C   C106      1.0  0.76410  0.86940  0.56150  1.0000 0.080052205
C   C107      1.0  0.13060  0.89470  0.89483  1.0000 0.080052205
C   C108      1.0  0.10530  0.23590  0.22817  1.0000 0.080052205
C   C109      1.0  0.99050  0.10280  0.05890  1.0000 -0.1434835244
C   C110      1.0  0.89720  0.88770  0.39223  1.0000 -0.1434835244
C   C111      1.0  0.11230  0.00950  0.72557  1.0000 -0.1434835244
C   C112      1.0  0.00950  0.89720  0.55890  1.0000 -0.1434835244
C   C113      1.0  0.10280  0.11230  0.89223  1.0000 -0.1434835244
C   C114      1.0  0.88770  0.99050  0.22557  1.0000 -0.1434835244
C   C115      1.0  0.94050  0.14470  0.06870  1.0000 -0.1455207188
C   C116      1.0  0.85530  0.79580  0.40203  1.0000 -0.1455207188
C   C117      1.0  0.20420  0.05950  0.73537  1.0000 -0.1455207188
C   C118      1.0  0.05950  0.85530  0.56870  1.0000 -0.1455207188
C   C119      1.0  0.14470  0.20420  0.90203  1.0000 -0.1455207188
C   C120      1.0  0.79580  0.94050  0.23537  1.0000 -0.1455207188
C   C121      1.0  0.83490  0.10240  0.06460  1.0000 0.1573845278
C   C122      1.0  0.89760  0.73250  0.39793  1.0000 0.1573845278
C   C123      1.0  0.26750  0.16510  0.73127  1.0000 0.1573845278
C   C124      1.0  0.16510  0.89760  0.56460  1.0000 0.1573845278
C   C125      1.0  0.10240  0.26750  0.89793  1.0000 0.1573845278
C   C126      1.0  0.73250  0.83490  0.23127  1.0000 0.1573845278
C   C127      1.0  0.79100  0.15840  0.06380  1.0000 -0.2118917226
C   C128      1.0  0.84160  0.63260  0.39713  1.0000 -0.2118917226
C   C129      1.0  0.36740  0.20900  0.73047  1.0000 -0.2118917226
C   C130      1.0  0.20900  0.84160  0.56380  1.0000 -0.2118917226
C   C131      1.0  0.15840  0.36740  0.89713  1.0000 -0.2118917226
C   C132      1.0  0.63260  0.79100  0.23047  1.0000 -0.2118917226
C   C133      1.0  0.69400  0.12010  0.05620  1.0000 0.0928820576
C   C134      1.0  0.87990  0.57390  0.38953  1.0000 0.0928820576
C   C135      1.0  0.42610  0.30600  0.72287  1.0000 0.0928820576
C   C136      1.0  0.30600  0.87990  0.55620  1.0000 0.0928820576
C   C137      1.0  0.12010  0.42610  0.88953  1.0000 0.0928820576
C   C138      1.0  0.57390  0.69400  0.22287  1.0000 0.0928820576
C   C139      1.0  0.67560  0.96890  0.05620  1.0000 0.080052205
C   C140      1.0  0.03110  0.70670  0.38953  1.0000 0.080052205
C   C141      1.0  0.29330  0.32440  0.72287  1.0000 0.080052205
C   C142      1.0  0.32440  0.03110  0.55620  1.0000 0.080052205
C   C143      1.0  0.96890  0.29330  0.88953  1.0000 0.080052205
C   C144      1.0  0.70670  0.67560  0.22287  1.0000 0.080052205
C   C145      1.0  0.77050  0.00250  0.06300  1.0000 -0.201426339
C   C146      1.0  0.99750  0.76800  0.39633  1.0000 -0.201426339
C   C147      1.0  0.23200  0.22950  0.72967  1.0000 -0.201426339
C   C148      1.0  0.22950  0.99750  0.56300  1.0000 -0.201426339
C   C149      1.0  0.00250  0.23200  0.89633  1.0000 -0.201426339
C   C150      1.0  0.76800  0.77050  0.22967  1.0000 -0.201426339
N   N1        1.0  0.49440  0.43590  0.29230  1.0000 -0.0541996037
N   N2        1.0  0.56410  0.05850  0.62563  1.0000 -0.0541996037
N   N3        1.0  0.94150  0.50560  0.95897  1.0000 -0.0541996037
N   N4        1.0  0.50560  0.56410  0.79230  1.0000 -0.0541996037
N   N5        1.0  0.43590  0.94150  0.12563  1.0000 -0.0541996037
N   N6        1.0  0.05850  0.49440  0.45897  1.0000 -0.0541996037
N   N7        1.0  0.29610  0.22610  0.07470  1.0000 -0.2642189134
N   N8        1.0  0.77390  0.07000  0.40803  1.0000 -0.2642189134
N   N9        1.0  0.93000  0.70390  0.74137  1.0000 -0.2642189134
N   N10       1.0  0.70390  0.77390  0.57470  1.0000 -0.2642189134
N   N11       1.0  0.22610  0.93000  0.90803  1.0000 -0.2642189134
N   N12       1.0  0.07000  0.29610  0.24137  1.0000 -0.2642189134
N   N13       1.0  0.63510  0.02470  0.05150  1.0000 -0.2381229569
N   N14       1.0  0.97530  0.61040  0.38483  1.0000 -0.2381229569
N   N15       1.0  0.38960  0.36490  0.71817  1.0000 -0.2381229569
N   N16       1.0  0.36490  0.97530  0.55150  1.0000 -0.2381229569
N   N17       1.0  0.02470  0.38960  0.88483  1.0000 -0.2381229569
N   N18       1.0  0.61040  0.63510  0.21817  1.0000 -0.2381229569
O   O1        1.0  0.42600  0.33860  0.17716  1.0000 -0.6204900909
O   O2        1.0  0.66140  0.08740  0.51049  1.0000 -0.6204900909
O   O3        1.0  0.91260  0.57400  0.84383  1.0000 -0.6204900909
O   O4        1.0  0.57400  0.66140  0.67716  1.0000 -0.6204900909
O   O5        1.0  0.33860  0.91260  0.01049  1.0000 -0.6204900909
O   O6        1.0  0.08740  0.42600  0.34383  1.0000 -0.6204900909
O   O7        1.0  0.31420  0.20900  0.22940  1.0000 -0.5045923639
O   O8        1.0  0.79100  0.10520  0.56273  1.0000 -0.5045923639
O   O9        1.0  0.89480  0.68580  0.89607  1.0000 -0.505287068
O   O10       1.0  0.68580  0.79100  0.72940  1.0000 -0.5045923639
O   O11       1.0  0.20900  0.89480  0.06273  1.0000 -0.5045923639
O   O12       1.0  0.10520  0.31420  0.39607  1.0000 -0.5045923639
O   O13       1.0  0.38340  0.48530  0.21740  1.0000 -0.5534264017
O   O14       1.0  0.51470  0.89810  0.55073  1.0000 -0.5534264017
O   O15       1.0  0.10190  0.61660  0.88407  1.0000 -0.5534264017
O   O16       1.0  0.61660  0.51470  0.71740  1.0000 -0.5534264017
O   O17       1.0  0.48530  0.10190  0.05073  1.0000 -0.5534264017
O   O18       1.0  0.89810  0.38340  0.38407  1.0000 -0.5534264017
O   O19       1.0  0.27360  0.43990  0.29300  1.0000 -0.5388228763
O   O20       1.0  0.56010  0.83370  0.62633  1.0000 -0.5388228763
O   O21       1.0  0.16630  0.72640  0.95967  1.0000 -0.5388228763
O   O22       1.0  0.72640  0.56010  0.79300  1.0000 -0.5388228763
O   O23       1.0  0.43990  0.16630  0.12633  1.0000 -0.5388228763
O   O24       1.0  0.83370  0.27360  0.45967  1.0000 -0.5388228763
O   O25       1.0  0.63910  0.22890  0.43890  1.0000 -0.560291009
O   O26       1.0  0.77110  0.41020  0.77223  1.0000 -0.560291009
O   O27       1.0  0.58980  0.36090  0.10557  1.0000 -0.560291009
O   O28       1.0  0.36090  0.77110  0.93890  1.0000 -0.560291009
O   O29       1.0  0.22890  0.58980  0.27223  1.0000 -0.560291009
O   O30       1.0  0.41020  0.63910  0.60557  1.0000 -0.560291009
O   O31       1.0  0.53030  0.17020  0.51680  1.0000 -0.5720823774
O   O32       1.0  0.82980  0.36010  0.85013  1.0000 -0.5720823774
O   O33       1.0  0.63990  0.46970  0.18347  1.0000 -0.5720823774
O   O34       1.0  0.46970  0.82980  0.01680  1.0000 -0.5720823774
O   O35       1.0  0.17020  0.63990  0.35013  1.0000 -0.5720823774
O   O36       1.0  0.36010  0.53030  0.68347  1.0000 -0.5720823774
O   O37       1.0  0.48870  0.45860  0.60680  1.0000 -0.5388228763
O   O38       1.0  0.54140  0.03010  0.94013  1.0000 -0.5388228763
O   O39       1.0  0.96990  0.51130  0.27347  1.0000 -0.5388228763
O   O40       1.0  0.51130  0.54140  0.10680  1.0000 -0.5388228763
O   O41       1.0  0.45860  0.96990  0.44013  1.0000 -0.5388228763
O   O42       1.0  0.03010  0.48870  0.77347  1.0000 -0.5388228763
O   O43       1.0  0.54040  0.58510  0.54330  1.0000 -0.5758148003
O   O44       1.0  0.41490  0.95530  0.87663  1.0000 -0.5758148003
O   O45       1.0  0.04470  0.45960  0.20997  1.0000 -0.5758148003
O   O46       1.0  0.45960  0.41490  0.04330  1.0000 -0.5758148003
O   O47       1.0  0.58510  0.04470  0.37663  1.0000 -0.5758148003
O   O48       1.0  0.95530  0.54040  0.70997  1.0000 -0.5758148003
O   O49       1.0  0.46750  0.24700  0.99850  1.0000 -0.6713221738
O   O50       1.0  0.75300  0.22050  0.33183  1.0000 -0.6713221738
O   O51       1.0  0.77950  0.53250  0.66517  1.0000 -0.6713221738
O   O52       1.0  0.53250  0.75300  0.49850  1.0000 -0.6713221738
O   O53       1.0  0.24700  0.77950  0.83183  1.0000 -0.6713221738
O   O54       1.0  0.22050  0.46750  0.16517  1.0000 -0.6713221738
