# DDEC6 charges by PACMAN v1.1 (https://github.com/mtap-research/PACMAN-charge/)
data_2013[Zn][nan]3[FSR]13
_chemical_formula_sum              "Zn8 H32 C56 N8 O36"
_cell_length_a       11.5641
_cell_length_b       12.0913
_cell_length_c       17.234
_cell_angle_alpha    90
_cell_angle_beta     113.842
_cell_angle_gamma    90

_symmetry_space_group_name_H-M    "P 1"
_symmetry_Int_Tables_number       1

loop_
  _symmetry_equiv_pos_as_xyz
  'x, y, z'

loop_
  _atom_site_type_symbol
  _atom_site_label
  _atom_site_symmetry_multiplicity
  _atom_site_fract_x
  _atom_site_fract_y
  _atom_site_fract_z
  _atom_site_occupancy
  _atom_site_charge
Zn  Zn1       1.0  0.78200  0.50150  0.19370  1.0000 0.8582122266
Zn  Zn2       1.0  0.21800  0.00150  0.30630  1.0000 0.8582122266
Zn  Zn3       1.0  0.21800  0.49850  0.80630  1.0000 0.8582122266
Zn  Zn4       1.0  0.78200  0.99850  0.69370  1.0000 0.8582122266
Zn  Zn5       1.0  0.85199  0.73570  0.09969  1.0000 0.8952704608
Zn  Zn6       1.0  0.14801  0.23570  0.40031  1.0000 0.8952704608
Zn  Zn7       1.0  0.14801  0.26430  0.90031  1.0000 0.8952704608
Zn  Zn8       1.0  0.85199  0.76430  0.59969  1.0000 0.8952704608
H   H1        1.0  0.77740  0.09380  0.21930  1.0000 0.1318104039
H   H2        1.0  0.22260  0.59380  0.28070  1.0000 0.1318104039
H   H3        1.0  0.22260  0.90620  0.78070  1.0000 0.1318104039
H   H4        1.0  0.77740  0.40620  0.71930  1.0000 0.1318104039
H   H5        1.0  0.58450  0.05640  0.10840  1.0000 0.1318104039
H   H6        1.0  0.41550  0.55640  0.39160  1.0000 0.1318104039
H   H7        1.0  0.41550  0.94360  0.89160  1.0000 0.1318104039
H   H8        1.0  0.58450  0.44360  0.60840  1.0000 0.1318104039
H   H9        1.0  0.53720  0.37970  0.06280  1.0000 0.1193055236
H   H10       1.0  0.46280  0.87970  0.43720  1.0000 0.1193055236
H   H11       1.0  0.46280  0.62030  0.93720  1.0000 0.1193055236
H   H12       1.0  0.53720  0.12030  0.56280  1.0000 0.1193055236
H   H13       1.0  0.83590  0.45890  0.88550  1.0000 0.1318104039
H   H14       1.0  0.16410  0.95890  0.61450  1.0000 0.1318104039
H   H15       1.0  0.16410  0.54110  0.11450  1.0000 0.1318104039
H   H16       1.0  0.83590  0.04110  0.38550  1.0000 0.1318104039
H   H17       1.0  0.83020  0.57600  0.77710  1.0000 0.1318104039
H   H18       1.0  0.16980  0.07600  0.72290  1.0000 0.1318104039
H   H19       1.0  0.16980  0.42400  0.22290  1.0000 0.1318104039
H   H20       1.0  0.83020  0.92400  0.27710  1.0000 0.1318104039
H   H21       1.0  0.84570  0.83230  0.92640  1.0000 0.1193055236
H   H22       1.0  0.15430  0.33230  0.57360  1.0000 0.1193055236
H   H23       1.0  0.15430  0.16770  0.07360  1.0000 0.1193055236
H   H24       1.0  0.84570  0.66770  0.42640  1.0000 0.1193055236
H   H25       1.0  0.78550  0.95900  0.05020  1.0000 0.3622137929
H   H26       1.0  0.21450  0.45900  0.44980  1.0000 0.3622137929
H   H27       1.0  0.21450  0.04100  0.94980  1.0000 0.3622137929
H   H28       1.0  0.78550  0.54100  0.55020  1.0000 0.3622137929
H   H29       1.0  0.90800  0.96440  0.10200  1.0000 0.3656330347
H   H30       1.0  0.09200  0.46440  0.39800  1.0000 0.3622137929
H   H31       1.0  0.09200  0.03560  0.89800  1.0000 0.3622137929
H   H32       1.0  0.90800  0.53560  0.60200  1.0000 0.3622137929
C   C1        1.0  0.76930  0.25850  0.20010  1.0000 0.0992040592
C   C2        1.0  0.23070  0.75850  0.29990  1.0000 0.0992040592
C   C3        1.0  0.23070  0.74150  0.79990  1.0000 0.0992040592
C   C4        1.0  0.76930  0.24150  0.70010  1.0000 0.0992040592
C   C5        1.0  0.72840  0.15080  0.18570  1.0000 -0.1399927572
C   C6        1.0  0.27160  0.65080  0.31430  1.0000 -0.1399927572
C   C7        1.0  0.27160  0.84920  0.81430  1.0000 -0.1399927572
C   C8        1.0  0.72840  0.34920  0.68570  1.0000 -0.1399927572
C   C9        1.0  0.61320  0.12890  0.12030  1.0000 -0.0499946721
C   C10       1.0  0.38680  0.62890  0.37970  1.0000 -0.0499946721
C   C11       1.0  0.38680  0.87110  0.87970  1.0000 -0.0499946721
C   C12       1.0  0.61320  0.37110  0.62030  1.0000 -0.0499946721
C   C13       1.0  0.54120  0.21430  0.07290  1.0000 -0.0568762681
C   C14       1.0  0.45880  0.71430  0.42710  1.0000 -0.0568762681
C   C15       1.0  0.45880  0.78570  0.92710  1.0000 -0.0499946721
C   C16       1.0  0.54120  0.28570  0.57290  1.0000 -0.0499946721
C   C17       1.0  0.58730  0.32120  0.09330  1.0000 0.0802299823
C   C18       1.0  0.41270  0.82120  0.40670  1.0000 0.0802299823
C   C19       1.0  0.41270  0.67880  0.90670  1.0000 0.0802299823
C   C20       1.0  0.58730  0.17880  0.59330  1.0000 0.0802299823
C   C21       1.0  0.41550  0.19600  0.00030  1.0000 0.5680806577
C   C22       1.0  0.58450  0.69600  0.49970  1.0000 0.5680806577
C   C23       1.0  0.58450  0.80400  0.99970  1.0000 0.5680806577
C   C24       1.0  0.41550  0.30400  0.50030  1.0000 0.5680806577
C   C25       1.0  0.89190  0.29110  0.27050  1.0000 0.5459497511
C   C26       1.0  0.10810  0.79110  0.22950  1.0000 0.5459497511
C   C27       1.0  0.10810  0.70890  0.72950  1.0000 0.5459497511
C   C28       1.0  0.89190  0.20890  0.77050  1.0000 0.5459497511
C   C29       1.0  0.84390  0.57960  0.96690  1.0000 0.1096190173
C   C30       1.0  0.15610  0.07960  0.53310  1.0000 0.1096190173
C   C31       1.0  0.15610  0.42040  0.03310  1.0000 0.1096190173
C   C32       1.0  0.84390  0.92040  0.46690  1.0000 0.1096190173
C   C33       1.0  0.83750  0.53520  0.89250  1.0000 -0.1294178408
C   C34       1.0  0.16250  0.03520  0.60750  1.0000 -0.1294178408
C   C35       1.0  0.16250  0.46480  0.10750  1.0000 -0.1294178408
C   C36       1.0  0.83750  0.96480  0.39250  1.0000 -0.1294178408
C   C37       1.0  0.82990  0.71770  0.83890  1.0000 -0.0568762681
C   C38       1.0  0.17010  0.21770  0.66110  1.0000 -0.0568762681
C   C39       1.0  0.17010  0.28230  0.16110  1.0000 -0.0568762681
C   C40       1.0  0.82990  0.78230  0.33890  1.0000 -0.0568762681
C   C41       1.0  0.83200  0.60480  0.82760  1.0000 -0.0441334345
C   C42       1.0  0.16800  0.10480  0.67240  1.0000 -0.0441334345
C   C43       1.0  0.16800  0.39520  0.17240  1.0000 -0.0441334345
C   C44       1.0  0.83200  0.89520  0.32760  1.0000 -0.0441334345
C   C45       1.0  0.84220  0.75640  0.91730  1.0000 0.0802299823
C   C46       1.0  0.15780  0.25640  0.58270  1.0000 0.0802299823
C   C47       1.0  0.15780  0.24360  0.08270  1.0000 0.0802299823
C   C48       1.0  0.84220  0.74360  0.41730  1.0000 0.0802299823
C   C49       1.0  0.82340  0.79840  0.77080  1.0000 0.589419806
C   C50       1.0  0.17660  0.29840  0.72920  1.0000 0.589419806
C   C51       1.0  0.17660  0.20160  0.22920  1.0000 0.589419806
C   C52       1.0  0.82340  0.70160  0.27080  1.0000 0.589419806
C   C53       1.0  0.84570  0.50970  0.04010  1.0000 0.5298384368
C   C54       1.0  0.15430  0.00970  0.45990  1.0000 0.5298384368
C   C55       1.0  0.15430  0.49030  0.95990  1.0000 0.5298384368
C   C56       1.0  0.84570  0.99030  0.54010  1.0000 0.5298384368
N   N1        1.0  0.69980  0.34320  0.15480  1.0000 -0.2633904651
N   N2        1.0  0.30020  0.84320  0.34520  1.0000 -0.2633904651
N   N3        1.0  0.30020  0.65680  0.84520  1.0000 -0.2633904651
N   N4        1.0  0.69980  0.15680  0.65480  1.0000 -0.2633904651
N   N5        1.0  0.84890  0.68870  0.98070  1.0000 -0.2544246823
N   N6        1.0  0.15110  0.18870  0.51930  1.0000 -0.2544246823
N   N7        1.0  0.15110  0.31130  0.01930  1.0000 -0.2544246823
N   N8        1.0  0.84890  0.81130  0.48070  1.0000 -0.2544246823
O   O1        1.0  0.91450  0.39390  0.27920  1.0000 -0.5159825743
O   O2        1.0  0.08550  0.89390  0.22080  1.0000 -0.5159825743
O   O3        1.0  0.08550  0.60610  0.72080  1.0000 -0.5147958458
O   O4        1.0  0.91450  0.10610  0.77920  1.0000 -0.5159825743
O   O5        1.0  0.96000  0.21830  0.31730  1.0000 -0.4921744824
O   O6        1.0  0.04000  0.71830  0.18270  1.0000 -0.4921744824
O   O7        1.0  0.04000  0.78170  0.68270  1.0000 -0.4921744824
O   O8        1.0  0.96000  0.28170  0.81730  1.0000 -0.4921744824
O   O9        1.0  0.37300  0.10030  0.98450  1.0000 -0.5419678748
O   O10       1.0  0.62700  0.60030  0.51550  1.0000 -0.5419678748
O   O11       1.0  0.62700  0.89970  0.01550  1.0000 -0.5419678748
O   O12       1.0  0.37300  0.39970  0.48450  1.0000 -0.5419678748
O   O13       1.0  0.36100  0.28220  0.96370  1.0000 -0.5594654144
O   O14       1.0  0.63900  0.78220  0.53630  1.0000 -0.5594654144
O   O15       1.0  0.63900  0.71780  0.03630  1.0000 -0.5594654144
O   O16       1.0  0.36100  0.21780  0.46370  1.0000 -0.5594654144
O   O17       1.0  0.85190  0.56260  0.10510  1.0000 -0.5309217632
O   O18       1.0  0.14810  0.06260  0.39490  1.0000 -0.5309217632
O   O19       1.0  0.14810  0.43740  0.89490  1.0000 -0.5309217632
O   O20       1.0  0.85190  0.93740  0.60510  1.0000 -0.5309217632
O   O21       1.0  0.84340  0.40830  0.03320  1.0000 -0.4921744824
O   O22       1.0  0.15660  0.90830  0.46680  1.0000 -0.4921744824
O   O23       1.0  0.15660  0.59170  0.96680  1.0000 -0.4921744824
O   O24       1.0  0.84340  0.09170  0.53320  1.0000 -0.4921744824
O   O25       1.0  0.81680  0.76240  0.70170  1.0000 -0.5309217632
O   O26       1.0  0.18320  0.26240  0.79830  1.0000 -0.5309217632
O   O27       1.0  0.18320  0.23760  0.29830  1.0000 -0.5309217632
O   O28       1.0  0.81680  0.73760  0.20170  1.0000 -0.5309217632
O   O29       1.0  0.82600  0.89840  0.79130  1.0000 -0.5309217632
O   O30       1.0  0.17400  0.39840  0.70870  1.0000 -0.5309217632
O   O31       1.0  0.17400  0.10160  0.20870  1.0000 -0.5309217632
O   O32       1.0  0.82600  0.60160  0.29130  1.0000 -0.5309217632
O   O33       1.0  0.85030  0.91850  0.07400  1.0000 -0.6612904132
O   O34       1.0  0.14970  0.41850  0.42600  1.0000 -0.6612904132
O   O35       1.0  0.14970  0.08150  0.92600  1.0000 -0.6612904132
O   O36       1.0  0.85030  0.58150  0.57400  1.0000 -0.6612904132
