# DDEC6 charges by PACMAN v1.1 (https://github.com/mtap-research/PACMAN-charge/)
data_2013[Mg][acs]3[FSR]5
_chemical_formula_sum              "Mg2 H6 C6 O12"
_cell_length_a       7.268
_cell_length_b       7.268
_cell_length_c       8.2104
_cell_angle_alpha    90
_cell_angle_beta     90
_cell_angle_gamma    120

_symmetry_space_group_name_H-M    "P 1"
_symmetry_Int_Tables_number       1

loop_
  _symmetry_equiv_pos_as_xyz
  'x, y, z'

loop_
  _atom_site_type_symbol
  _atom_site_label
  _atom_site_symmetry_multiplicity
  _atom_site_fract_x
  _atom_site_fract_y
  _atom_site_fract_z
  _atom_site_occupancy
  _atom_site_charge
Mg  Mg1       1.0  0.66667  0.33333  0.75000  1.0000 1.2775255413
Mg  Mg2       1.0  0.33333  0.66667  0.25000  1.0000 1.2775255413
H   H1        1.0  0.00000  0.56790  0.00000  1.0000 0.1060172613
H   H2        1.0  0.43210  0.43210  0.00000  1.0000 0.1060172613
H   H3        1.0  0.56790  0.00000  0.00000  1.0000 0.1060172613
H   H4        1.0  0.00000  0.43210  0.50000  1.0000 0.1060172613
H   H5        1.0  0.56790  0.56790  0.50000  1.0000 0.1060172613
H   H6        1.0  0.43210  0.00000  0.50000  1.0000 0.1060172613
C   C1        1.0  0.00000  0.43990  0.00000  1.0000 0.5198043556
C   C2        1.0  0.56010  0.56010  0.00000  1.0000 0.5198043556
C   C3        1.0  0.43990  0.00000  0.00000  1.0000 0.5198043556
C   C4        1.0  0.00000  0.56010  0.50000  1.0000 0.5198043556
C   C5        1.0  0.43990  0.43990  0.50000  1.0000 0.5198043556
C   C6        1.0  0.56010  0.00000  0.50000  1.0000 0.5198043556
O   O1        1.0  0.89065  0.31022  0.89405  1.0000 -0.525831732
O   O2        1.0  0.68978  0.58043  0.89405  1.0000 -0.525831732
O   O3        1.0  0.41957  0.10935  0.89405  1.0000 -0.525831732
O   O4        1.0  0.10935  0.68978  0.39405  1.0000 -0.525831732
O   O5        1.0  0.31022  0.41957  0.39405  1.0000 -0.525831732
O   O6        1.0  0.58043  0.89065  0.39405  1.0000 -0.525831732
O   O7        1.0  0.31022  0.89065  0.10595  1.0000 -0.525831732
O   O8        1.0  0.58043  0.68978  0.10595  1.0000 -0.525831732
O   O9        1.0  0.10935  0.41957  0.10595  1.0000 -0.525831732
O   O10       1.0  0.68978  0.10935  0.60595  1.0000 -0.525831732
O   O11       1.0  0.41957  0.31022  0.60595  1.0000 -0.525831732
O   O12       1.0  0.89065  0.58043  0.60595  1.0000 -0.525831732
