# DDEC6 charges by PACMAN v1.1 (https://github.com/mtap-research/PACMAN-charge/)
data_2013[Cd][nan]3[FSR]13
_chemical_formula_sum              "Cd4 H100 C104 N36 O16"
_cell_length_a       12.2538
_cell_length_b       12.2538
_cell_length_c       23.0775
_cell_angle_alpha    86.8991
_cell_angle_beta     93.1009
_cell_angle_gamma    113.488

_symmetry_space_group_name_H-M    "P 1"
_symmetry_Int_Tables_number       1

loop_
  _symmetry_equiv_pos_as_xyz
  'x, y, z'

loop_
  _atom_site_type_symbol
  _atom_site_label
  _atom_site_symmetry_multiplicity
  _atom_site_fract_x
  _atom_site_fract_y
  _atom_site_fract_z
  _atom_site_occupancy
  _atom_site_charge
Cd  Cd1       1.0  0.94675  0.52469  0.73217  1.0000 0.8385537458
Cd  Cd2       1.0  0.52469  0.94675  0.76783  1.0000 0.8385537458
Cd  Cd3       1.0  0.05325  0.47531  0.26783  1.0000 0.8385537458
Cd  Cd4       1.0  0.47531  0.05325  0.23217  1.0000 0.8385537458
H   H1        1.0  0.64360  0.53940  0.85890  1.0000 0.1118498887
H   H2        1.0  0.53940  0.64360  0.64110  1.0000 0.1118498887
H   H3        1.0  0.35640  0.46060  0.14110  1.0000 0.1118498887
H   H4        1.0  0.46060  0.35640  0.35890  1.0000 0.1118498887
H   H5        1.0  0.54540  0.49960  0.94440  1.0000 0.1118498887
H   H6        1.0  0.49960  0.54540  0.55560  1.0000 0.1118498887
H   H7        1.0  0.45460  0.50040  0.05560  1.0000 0.1118498887
H   H8        1.0  0.50040  0.45460  0.44440  1.0000 0.1118498887
H   H9        1.0  0.45570  0.30630  0.98170  1.0000 0.1118498887
H   H10       1.0  0.30630  0.45570  0.51830  1.0000 0.1118498887
H   H11       1.0  0.54430  0.69370  0.01830  1.0000 0.1118498887
H   H12       1.0  0.69370  0.54430  0.48170  1.0000 0.1118498887
H   H13       1.0  0.46700  0.15160  0.93250  1.0000 0.1189575211
H   H14       1.0  0.15160  0.46700  0.56750  1.0000 0.1189575211
H   H15       1.0  0.53300  0.84840  0.06750  1.0000 0.1189575211
H   H16       1.0  0.84840  0.53300  0.43250  1.0000 0.1189575211
H   H17       1.0  0.86470  0.65470  0.84220  1.0000 0.1189575211
H   H18       1.0  0.65470  0.86470  0.65780  1.0000 0.1189575211
H   H19       1.0  0.13530  0.34530  0.15780  1.0000 0.1189575211
H   H20       1.0  0.34530  0.13530  0.34220  1.0000 0.1189575211
H   H21       1.0  0.18410  0.75590  0.79200  1.0000 0.1297048873
H   H22       1.0  0.75590  0.18410  0.70800  1.0000 0.1297048873
H   H23       1.0  0.81590  0.24410  0.20800  1.0000 0.1297048873
H   H24       1.0  0.24410  0.81590  0.29200  1.0000 0.1297048873
H   H25       1.0  0.28650  0.93710  0.86050  1.0000 0.1189575211
H   H26       1.0  0.93710  0.28650  0.63950  1.0000 0.1189575211
H   H27       1.0  0.71350  0.06290  0.13950  1.0000 0.1189575211
H   H28       1.0  0.06290  0.71350  0.36050  1.0000 0.1189575211
H   H29       1.0  0.24960  0.85820  0.91760  1.0000 0.1189575211
H   H30       1.0  0.85820  0.24960  0.58240  1.0000 0.1189575211
H   H31       1.0  0.75040  0.14180  0.08240  1.0000 0.1189575211
H   H32       1.0  0.14180  0.75040  0.41760  1.0000 0.1189575211
H   H33       1.0  0.30290  0.12310  0.80950  1.0000 0.1380180647
H   H34       1.0  0.12310  0.30290  0.69050  1.0000 0.1380180647
H   H35       1.0  0.69710  0.87690  0.19050  1.0000 0.1380180647
H   H36       1.0  0.87690  0.69710  0.30950  1.0000 0.1380180647
H   H37       1.0  0.19290  0.15670  0.79740  1.0000 0.1297048873
H   H38       1.0  0.15670  0.19290  0.70260  1.0000 0.1297048873
H   H39       1.0  0.80710  0.84330  0.20260  1.0000 0.1297048873
H   H40       1.0  0.84330  0.80710  0.29740  1.0000 0.1297048873
H   H41       1.0  0.17520  0.02260  0.80120  1.0000 0.1297048873
H   H42       1.0  0.02260  0.17520  0.69880  1.0000 0.1297048873
H   H43       1.0  0.82480  0.97740  0.19880  1.0000 0.1297048873
H   H44       1.0  0.97740  0.82480  0.30120  1.0000 0.1297048873
H   H45       1.0  0.25110  0.89190  0.02150  1.0000 0.1380180647
H   H46       1.0  0.89190  0.25110  0.47850  1.0000 0.1380180647
H   H47       1.0  0.74890  0.10810  0.97850  1.0000 0.1380180647
H   H48       1.0  0.10810  0.74890  0.52150  1.0000 0.1380180647
H   H49       1.0  0.13440  0.81160  0.98780  1.0000 0.1380180647
H   H50       1.0  0.81160  0.13440  0.51220  1.0000 0.1380180647
H   H51       1.0  0.86560  0.18840  0.01220  1.0000 0.1380180647
H   H52       1.0  0.18840  0.86560  0.48780  1.0000 0.1380180647
H   H53       1.0  0.12650  0.87450  0.04390  1.0000 0.1297048873
H   H54       1.0  0.87450  0.12650  0.45610  1.0000 0.1297048873
H   H55       1.0  0.87350  0.12550  0.95610  1.0000 0.1297048873
H   H56       1.0  0.12550  0.87350  0.54390  1.0000 0.1297048873
H   H57       1.0  0.23650  0.34830  0.00180  1.0000 0.1297048873
H   H58       1.0  0.34830  0.23650  0.49820  1.0000 0.1297048873
H   H59       1.0  0.76350  0.65170  0.99820  1.0000 0.1297048873
H   H60       1.0  0.65170  0.76350  0.50180  1.0000 0.1297048873
H   H61       1.0  0.11320  0.26420  0.02650  1.0000 0.1297048873
H   H62       1.0  0.26420  0.11320  0.47350  1.0000 0.1297048873
H   H63       1.0  0.88680  0.73580  0.97350  1.0000 0.1297048873
H   H64       1.0  0.73580  0.88680  0.52650  1.0000 0.1297048873
H   H65       1.0  0.11900  0.32580  0.96470  1.0000 0.1297048873
H   H66       1.0  0.32580  0.11900  0.53530  1.0000 0.1297048873
H   H67       1.0  0.88100  0.67420  0.03530  1.0000 0.1297048873
H   H68       1.0  0.67420  0.88100  0.46470  1.0000 0.1297048873
H   H69       1.0  0.25790  0.37390  0.89820  1.0000 0.1189575211
H   H70       1.0  0.37390  0.25790  0.60180  1.0000 0.1189575211
H   H71       1.0  0.74210  0.62610  0.10180  1.0000 0.1189575211
H   H72       1.0  0.62610  0.74210  0.39820  1.0000 0.1189575211
H   H73       1.0  0.27840  0.31600  0.84320  1.0000 0.1297048873
H   H74       1.0  0.31600  0.27840  0.65680  1.0000 0.1297048873
H   H75       1.0  0.72160  0.68400  0.15680  1.0000 0.1297048873
H   H76       1.0  0.68400  0.72160  0.34320  1.0000 0.1297048873
H   H77       1.0  0.85750  0.26610  0.81850  1.0000 0.1189575211
H   H78       1.0  0.26610  0.85750  0.68150  1.0000 0.1189575211
H   H79       1.0  0.14250  0.73390  0.18150  1.0000 0.1189575211
H   H80       1.0  0.73390  0.14250  0.31850  1.0000 0.1189575211
H   H81       1.0  0.18570  0.46210  0.78940  1.0000 0.1297048873
H   H82       1.0  0.46210  0.18570  0.71060  1.0000 0.1297048873
H   H83       1.0  0.81430  0.53790  0.21060  1.0000 0.1297048873
H   H84       1.0  0.53790  0.81430  0.28940  1.0000 0.1297048873
H   H85       1.0  0.07570  0.11730  0.06560  1.0000 0.1118498887
H   H86       1.0  0.11730  0.07570  0.43440  1.0000 0.1118498887
H   H87       1.0  0.92430  0.88270  0.93440  1.0000 0.1118498887
H   H88       1.0  0.88270  0.92430  0.56560  1.0000 0.1118498887
H   H89       1.0  0.07330  0.98830  0.07010  1.0000 0.1189575211
H   H90       1.0  0.98830  0.07330  0.42990  1.0000 0.1189575211
H   H91       1.0  0.92670  0.01170  0.92990  1.0000 0.1189575211
H   H92       1.0  0.01170  0.92670  0.57010  1.0000 0.1189575211
H   H93       1.0  0.22800  0.96580  0.14560  1.0000 0.1297048873
H   H94       1.0  0.96580  0.22800  0.35440  1.0000 0.1297048873
H   H95       1.0  0.77200  0.03420  0.85440  1.0000 0.1297048873
H   H96       1.0  0.03420  0.77200  0.64560  1.0000 0.1297048873
H   H97       1.0  0.43810  0.29330  0.16020  1.0000 0.1297048873
H   H98       1.0  0.29330  0.43810  0.33980  1.0000 0.1297048873
H   H99       1.0  0.56190  0.70670  0.83980  1.0000 0.1297048873
H   H100      1.0  0.70670  0.56190  0.66020  1.0000 0.1297048873
C   C1        1.0  0.67550  0.39950  0.78560  1.0000 0.5867729228
C   C2        1.0  0.39950  0.67550  0.71440  1.0000 0.5867729228
C   C3        1.0  0.32450  0.60050  0.21440  1.0000 0.5867729228
C   C4        1.0  0.60050  0.32450  0.28560  1.0000 0.5867729228
C   C5        1.0  0.61310  0.36790  0.84240  1.0000 -0.007441063
C   C6        1.0  0.36790  0.61310  0.65760  1.0000 -0.007441063
C   C7        1.0  0.38690  0.63210  0.15760  1.0000 -0.007441063
C   C8        1.0  0.63210  0.38690  0.34240  1.0000 -0.007441063
C   C9        1.0  0.60770  0.46130  0.87330  1.0000 -0.1334420401
C   C10       1.0  0.46130  0.60770  0.62670  1.0000 -0.1334420401
C   C11       1.0  0.39230  0.53870  0.12670  1.0000 -0.1334420401
C   C12       1.0  0.53870  0.39230  0.37330  1.0000 -0.1334420401
C   C13       1.0  0.54920  0.43740  0.92450  1.0000 -0.0948615088
C   C14       1.0  0.43740  0.54920  0.57550  1.0000 -0.0948615088
C   C15       1.0  0.45080  0.56260  0.07550  1.0000 -0.0948615088
C   C16       1.0  0.56260  0.45080  0.42450  1.0000 -0.0948615088
C   C17       1.0  0.49560  0.32160  0.94710  1.0000 -0.1137582693
C   C18       1.0  0.32160  0.49560  0.55290  1.0000 -0.1137582693
C   C19       1.0  0.50440  0.67840  0.05290  1.0000 -0.1137582693
C   C20       1.0  0.67840  0.50440  0.44710  1.0000 -0.1137582693
C   C21       1.0  0.50250  0.22910  0.91740  1.0000 -0.1012413758
C   C22       1.0  0.22910  0.50250  0.58260  1.0000 -0.1012413758
C   C23       1.0  0.49750  0.77090  0.08260  1.0000 -0.1012413758
C   C24       1.0  0.77090  0.49750  0.41740  1.0000 -0.1012413758
C   C25       1.0  0.56160  0.25000  0.86520  1.0000 -0.0545134652
C   C26       1.0  0.25000  0.56160  0.63480  1.0000 -0.0545134652
C   C27       1.0  0.43840  0.75000  0.13480  1.0000 -0.0545134652
C   C28       1.0  0.75000  0.43840  0.36520  1.0000 -0.0545134652
C   C29       1.0  0.56470  0.14730  0.83340  1.0000 0.5357055259
C   C30       1.0  0.14730  0.56470  0.66667  1.0000 0.5357055259
C   C31       1.0  0.43530  0.85270  0.16660  1.0000 0.5357055259
C   C32       1.0  0.85270  0.43530  0.33340  1.0000 0.5357055259
C   C33       1.0  0.94660  0.69580  0.83970  1.0000 0.149269734
C   C34       1.0  0.69580  0.94660  0.66030  1.0000 0.149269734
C   C35       1.0  0.05340  0.30420  0.16030  1.0000 0.149269734
C   C36       1.0  0.30420  0.05340  0.33970  1.0000 0.149269734
C   C37       1.0  0.11710  0.74870  0.81160  1.0000 0.0877579241
C   C38       1.0  0.74870  0.11710  0.68840  1.0000 0.0877579241
C   C39       1.0  0.88290  0.25130  0.18840  1.0000 0.0877579241
C   C40       1.0  0.25130  0.88290  0.31160  1.0000 0.0877579241
C   C41       1.0  0.22250  0.90030  0.88730  1.0000 -0.1710865978
C   C42       1.0  0.90030  0.22250  0.61270  1.0000 -0.1710865978
C   C43       1.0  0.77750  0.09970  0.11270  1.0000 -0.1710865978
C   C44       1.0  0.09970  0.77750  0.38730  1.0000 -0.1710865978
C   C45       1.0  0.19690  0.99730  0.91440  1.0000 -0.0285290173
C   C46       1.0  0.99730  0.19690  0.58560  1.0000 -0.0285290173
C   C47       1.0  0.80310  0.00270  0.08560  1.0000 -0.0285290173
C   C48       1.0  0.00270  0.80310  0.41440  1.0000 -0.0285290173
C   C49       1.0  0.20290  0.09590  0.88020  1.0000 0.0768575487
C   C50       1.0  0.09590  0.20290  0.61980  1.0000 0.0768575487
C   C51       1.0  0.79710  0.90410  0.11980  1.0000 0.0768575487
C   C52       1.0  0.90410  0.79710  0.38020  1.0000 0.0768575487
C   C53       1.0  0.22000  0.10000  0.81640  1.0000 -0.4664499569
C   C54       1.0  0.10000  0.22000  0.68360  1.0000 -0.4664499569
C   C55       1.0  0.78000  0.90000  0.18360  1.0000 -0.4664499569
C   C56       1.0  0.90000  0.78000  0.31640  1.0000 -0.4664499569
C   C57       1.0  0.19350  0.19230  0.90660  1.0000 -0.0285290173
C   C58       1.0  0.19230  0.19350  0.59340  1.0000 -0.0285290173
C   C59       1.0  0.80650  0.80770  0.09340  1.0000 -0.0285290173
C   C60       1.0  0.80770  0.80650  0.40660  1.0000 -0.0285290173
C   C61       1.0  0.16880  0.18540  0.96520  1.0000 0.0712658069
C   C62       1.0  0.18540  0.16880  0.53480  1.0000 0.0712658069
C   C63       1.0  0.83120  0.81460  0.03480  1.0000 0.0712658069
C   C64       1.0  0.81460  0.83120  0.46520  1.0000 0.0712658069
C   C65       1.0  0.15660  0.08240  0.99880  1.0000 -0.0374518219
C   C66       1.0  0.08240  0.15660  0.50120  1.0000 -0.0374518219
C   C67       1.0  0.84340  0.91760  0.00120  1.0000 -0.0374518219
C   C68       1.0  0.91760  0.84340  0.49880  1.0000 -0.0374518219
C   C69       1.0  0.17450  0.98970  0.97300  1.0000 0.0712658069
C   C70       1.0  0.98970  0.17450  0.52700  1.0000 0.0712658069
C   C71       1.0  0.82550  0.01030  0.02700  1.0000 0.0712658069
C   C72       1.0  0.01030  0.82550  0.47300  1.0000 0.0712658069
C   C73       1.0  0.17130  0.88210  0.00990  1.0000 -0.4589092455
C   C74       1.0  0.88210  0.17130  0.49010  1.0000 -0.4589092455
C   C75       1.0  0.82870  0.11790  0.99010  1.0000 -0.4589092455
C   C76       1.0  0.11790  0.82870  0.50990  1.0000 -0.4589092455
C   C77       1.0  0.15850  0.29050  0.99200  1.0000 -0.4589092455
C   C78       1.0  0.29050  0.15850  0.50800  1.0000 -0.4545821655
C   C79       1.0  0.84150  0.70950  0.00800  1.0000 -0.4589092455
C   C80       1.0  0.70950  0.84150  0.49200  1.0000 -0.4589092455
C   C81       1.0  0.22090  0.30870  0.87200  1.0000 -0.1817851509
C   C82       1.0  0.30870  0.22090  0.62800  1.0000 -0.1817851509
C   C83       1.0  0.77910  0.69130  0.12800  1.0000 -0.1817851509
C   C84       1.0  0.69130  0.77910  0.37200  1.0000 -0.1817851509
C   C85       1.0  0.94030  0.29670  0.82010  1.0000 0.1380180647
C   C86       1.0  0.29670  0.94030  0.67990  1.0000 0.1380180647
C   C87       1.0  0.05970  0.70330  0.17990  1.0000 0.1380180647
C   C88       1.0  0.70330  0.05970  0.32010  1.0000 0.1380180647
C   C89       1.0  0.11690  0.40350  0.80420  1.0000 0.1010215194
C   C90       1.0  0.40350  0.11690  0.69580  1.0000 0.1010215194
C   C91       1.0  0.88310  0.59650  0.19580  1.0000 0.1010215194
C   C92       1.0  0.59650  0.88310  0.30420  1.0000 0.1010215194
C   C93       1.0  0.12280  0.07100  0.06090  1.0000 -0.1817851509
C   C94       1.0  0.07100  0.12280  0.43910  1.0000 -0.1817851509
C   C95       1.0  0.87720  0.92900  0.93910  1.0000 -0.1817851509
C   C96       1.0  0.92900  0.87720  0.56090  1.0000 -0.1817851509
C   C97       1.0  0.26330  0.04810  0.14050  1.0000 0.0877579241
C   C98       1.0  0.04810  0.26330  0.35950  1.0000 0.0877579241
C   C99       1.0  0.73670  0.95190  0.85950  1.0000 0.0877579241
C   C100      1.0  0.95190  0.73670  0.64050  1.0000 0.0877579241
C   C101      1.0  0.37530  0.22490  0.14770  1.0000 0.1380180647
C   C102      1.0  0.22490  0.37530  0.35230  1.0000 0.1380180647
C   C103      1.0  0.62470  0.77510  0.85230  1.0000 0.1380180647
C   C104      1.0  0.77510  0.62470  0.64770  1.0000 0.1380180647
N   N1        1.0  0.00930  0.67290  0.79880  1.0000 -0.3228934775
N   N2        1.0  0.67290  0.00930  0.70120  1.0000 -0.3228934775
N   N3        1.0  0.99070  0.32710  0.20120  1.0000 -0.3228934775
N   N4        1.0  0.32710  0.99070  0.29880  1.0000 -0.3228934775
N   N5        1.0  0.00860  0.77920  0.87520  1.0000 -0.2408236447
N   N6        1.0  0.77920  0.00860  0.62480  1.0000 -0.2408236447
N   N7        1.0  0.99140  0.22080  0.12480  1.0000 -0.2408236447
N   N8        1.0  0.22080  0.99140  0.37520  1.0000 -0.2408236447
N   N9        1.0  0.11960  0.81400  0.85600  1.0000 0.1735579134
N   N10       1.0  0.81400  0.11960  0.64400  1.0000 0.1735579134
N   N11       1.0  0.88040  0.18600  0.14400  1.0000 0.1735579134
N   N12       1.0  0.18600  0.88040  0.35600  1.0000 0.1735579134
N   N13       1.0  0.00850  0.39390  0.78890  1.0000 -0.3228934775
N   N14       1.0  0.39390  0.00850  0.71110  1.0000 -0.3228934775
N   N15       1.0  0.99150  0.60610  0.21110  1.0000 -0.3228934775
N   N16       1.0  0.60610  0.99150  0.28890  1.0000 -0.3228934775
N   N17       1.0  0.00250  0.24890  0.85310  1.0000 -0.263300817
N   N18       1.0  0.24890  0.00250  0.64690  1.0000 -0.263300817
N   N19       1.0  0.99750  0.75110  0.14690  1.0000 -0.263300817
N   N20       1.0  0.75110  0.99750  0.35310  1.0000 -0.263300817
N   N21       1.0  0.11660  0.32200  0.84210  1.0000 0.1735579134
N   N22       1.0  0.32200  0.11660  0.65790  1.0000 0.1735579134
N   N23       1.0  0.88340  0.67800  0.15790  1.0000 0.1735579134
N   N24       1.0  0.67800  0.88340  0.34210  1.0000 0.1735579134
N   N25       1.0  0.22430  0.11050  0.10200  1.0000 0.1758294445
N   N26       1.0  0.11050  0.22430  0.39800  1.0000 0.1758294445
N   N27       1.0  0.77570  0.88950  0.89800  1.0000 0.1758294445
N   N28       1.0  0.88950  0.77570  0.60200  1.0000 0.1758294445
N   N29       1.0  0.29650  0.22770  0.10600  1.0000 -0.2493275176
N   N30       1.0  0.22770  0.29650  0.39400  1.0000 -0.2493275176
N   N31       1.0  0.70350  0.77230  0.89400  1.0000 -0.2493275176
N   N32       1.0  0.77230  0.70350  0.60600  1.0000 -0.2493275176
N   N33       1.0  0.35690  0.11650  0.17000  1.0000 -0.3135160017
N   N34       1.0  0.11650  0.35690  0.33000  1.0000 -0.3135160017
N   N35       1.0  0.64310  0.88350  0.83000  1.0000 -0.3135160017
N   N36       1.0  0.88350  0.64310  0.67000  1.0000 -0.3135160017
O   O1        1.0  0.78690  0.44610  0.79040  1.0000 -0.5875412035
O   O2        1.0  0.44610  0.78690  0.70960  1.0000 -0.5875412035
O   O3        1.0  0.21310  0.55390  0.20960  1.0000 -0.5875412035
O   O4        1.0  0.55390  0.21310  0.29040  1.0000 -0.5875412035
O   O5        1.0  0.61300  0.38360  0.73920  1.0000 -0.6039200979
O   O6        1.0  0.38360  0.61300  0.76080  1.0000 -0.6039200979
O   O7        1.0  0.38700  0.61640  0.26080  1.0000 -0.6039200979
O   O8        1.0  0.61640  0.38700  0.23920  1.0000 -0.6039200979
O   O9        1.0  0.63710  0.16530  0.79490  1.0000 -0.5442603636
O   O10       1.0  0.16530  0.63710  0.70510  1.0000 -0.5442603636
O   O11       1.0  0.36290  0.83470  0.20510  1.0000 -0.5442603636
O   O12       1.0  0.83470  0.36290  0.29490  1.0000 -0.5442603636
O   O13       1.0  0.49010  0.04410  0.84630  1.0000 -0.5600322592
O   O14       1.0  0.04410  0.49010  0.65370  1.0000 -0.5600322592
O   O15       1.0  0.50990  0.95590  0.15370  1.0000 -0.5600322592
O   O16       1.0  0.95590  0.50990  0.34630  1.0000 -0.5600322592
