# DDEC6 charges by PACMAN v1.1 (https://github.com/mtap-research/PACMAN-charge/)
data_2013[Mn][nan]3[FSR]6
_chemical_formula_sum              "Mn12 H64 C96 N48 Cl10"
_cell_length_a       17.1919
_cell_length_b       17.1919
_cell_length_c       17.1919
_cell_angle_alpha    103.393
_cell_angle_beta     103.393
_cell_angle_gamma    122.463

_symmetry_space_group_name_H-M    "P 1"
_symmetry_Int_Tables_number       1

loop_
  _symmetry_equiv_pos_as_xyz
  'x, y, z'

loop_
  _atom_site_type_symbol
  _atom_site_label
  _atom_site_symmetry_multiplicity
  _atom_site_fract_x
  _atom_site_fract_y
  _atom_site_fract_z
  _atom_site_occupancy
  _atom_site_charge
Mn  Mn1       1.0  0.98869  0.10413  0.13400  1.0000 0.6448821802
Mn  Mn2       1.0  0.14531  0.01131  0.11544  1.0000 0.6448821802
Mn  Mn3       1.0  0.97013  0.85469  0.86600  1.0000 0.6455331225
Mn  Mn4       1.0  0.89587  0.02987  0.88456  1.0000 0.6448821802
Mn  Mn5       1.0  0.27987  0.64587  0.38456  1.0000 0.6448821802
Mn  Mn6       1.0  0.10469  0.72013  0.36600  1.0000 0.6448821802
Mn  Mn7       1.0  0.26131  0.89531  0.61544  1.0000 0.6448821802
Mn  Mn8       1.0  0.35413  0.73869  0.63400  1.0000 0.6448821802
Mn  Mn9       1.0  0.14395  0.37500  0.26895  1.0000 0.6618519951
Mn  Mn10      1.0  0.12500  0.85605  0.23105  1.0000 0.6618519951
Mn  Mn11      1.0  0.10605  0.87500  0.73105  1.0000 0.6618519951
Mn  Mn12      1.0  0.62500  0.89395  0.76895  1.0000 0.6618519951
H   H1        1.0  0.89730  0.87660  0.42410  1.0000 0.1124572311
H   H2        1.0  0.52680  0.10270  0.97930  1.0000 0.1124572311
H   H3        1.0  0.45250  0.47320  0.57590  1.0000 0.1124572311
H   H4        1.0  0.12340  0.54750  0.02070  1.0000 0.1124572311
H   H5        1.0  0.79750  0.87340  0.52070  1.0000 0.1124572311
H   H6        1.0  0.72320  0.20250  0.07590  1.0000 0.1124572311
H   H7        1.0  0.35270  0.27680  0.47930  1.0000 0.1124572311
H   H8        1.0  0.12660  0.64730  0.92410  1.0000 0.1124572311
H   H9        1.0  0.84010  0.96440  0.38510  1.0000 0.120009893
H   H10       1.0  0.54500  0.15990  0.12430  1.0000 0.120009893
H   H11       1.0  0.57930  0.45500  0.61490  1.0000 0.120009893
H   H12       1.0  0.03560  0.42070  0.87570  1.0000 0.120009893
H   H13       1.0  0.67070  0.78560  0.37570  1.0000 0.120009893
H   H14       1.0  0.70500  0.32930  0.11490  1.0000 0.120009893
H   H15       1.0  0.40990  0.29500  0.62430  1.0000 0.120009893
H   H16       1.0  0.21440  0.59010  0.88510  1.0000 0.120009893
H   H17       1.0  0.99000  0.84920  0.35780  1.0000 0.1314671341
H   H18       1.0  0.36780  0.01000  0.85920  1.0000 0.1314671341
H   H19       1.0  0.49140  0.63220  0.64220  1.0000 0.1314671341
H   H20       1.0  0.15080  0.50860  0.14080  1.0000 0.1314671341
H   H21       1.0  0.75860  0.90080  0.64080  1.0000 0.1314671341
H   H22       1.0  0.88220  0.24140  0.14220  1.0000 0.1314671341
H   H23       1.0  0.26000  0.11780  0.35920  1.0000 0.1314671341
H   H24       1.0  0.09920  0.74000  0.85780  1.0000 0.1314671341
H   H25       1.0  0.39950  0.48400  0.39550  1.0000 0.1373842685
H   H26       1.0  0.99600  0.60050  0.08450  1.0000 0.1373842685
H   H27       1.0  0.08850  0.00400  0.60450  1.0000 0.1373842685
H   H28       1.0  0.51600  0.91150  0.91550  1.0000 0.1373842685
H   H29       1.0  0.16150  0.26600  0.41550  1.0000 0.1373842685
H   H30       1.0  0.25400  0.83850  0.10450  1.0000 0.1373842685
H   H31       1.0  0.85050  0.74600  0.58450  1.0000 0.1373842685
H   H32       1.0  0.73400  0.14950  0.89550  1.0000 0.1373842685
H   H33       1.0  0.54910  0.50470  0.45300  1.0000 0.120009893
H   H34       1.0  0.90390  0.45090  0.95560  1.0000 0.120009893
H   H35       1.0  0.05170  0.09610  0.54700  1.0000 0.120009893
H   H36       1.0  0.49530  0.94830  0.04440  1.0000 0.120009893
H   H37       1.0  0.19830  0.24530  0.54440  1.0000 0.120009893
H   H38       1.0  0.34610  0.80170  0.04700  1.0000 0.120009893
H   H39       1.0  0.70090  0.65390  0.45560  1.0000 0.120009893
H   H40       1.0  0.75470  0.29910  0.95300  1.0000 0.120009893
H   H41       1.0  0.55880  0.37740  0.38640  1.0000 0.120009893
H   H42       1.0  0.82760  0.44120  0.81860  1.0000 0.120009893
H   H43       1.0  0.99100  0.17240  0.61360  1.0000 0.120009893
H   H44       1.0  0.62260  0.00900  0.18140  1.0000 0.120009893
H   H45       1.0  0.25900  0.37260  0.68140  1.0000 0.120009893
H   H46       1.0  0.42240  0.74100  0.11360  1.0000 0.120009893
H   H47       1.0  0.69120  0.57760  0.31860  1.0000 0.120009893
H   H48       1.0  0.62740  0.30880  0.88640  1.0000 0.120009893
H   H49       1.0  0.87080  0.02450  0.27870  1.0000 0.1314671341
H   H50       1.0  0.40790  0.12920  0.15370  1.0000 0.1314671341
H   H51       1.0  0.74580  0.59210  0.72130  1.0000 0.1314671341
H   H52       1.0  0.97550  0.25420  0.84630  1.0000 0.1314671341
H   H53       1.0  0.50420  0.72550  0.34630  1.0000 0.1314671341
H   H54       1.0  0.84210  0.49580  0.22130  1.0000 0.1314671341
H   H55       1.0  0.37920  0.15790  0.65370  1.0000 0.1314671341
H   H56       1.0  0.27450  0.62080  0.77870  1.0000 0.1314671341
H   H57       1.0  0.41430  0.21820  0.27150  1.0000 0.1314671341
H   H58       1.0  0.85720  0.58570  0.80390  1.0000 0.1314671341
H   H59       1.0  0.94670  0.14280  0.72850  1.0000 0.1314671341
H   H60       1.0  0.78180  0.05330  0.19610  1.0000 0.1314671341
H   H61       1.0  0.30330  0.53180  0.69610  1.0000 0.1314671341
H   H62       1.0  0.39280  0.69670  0.22850  1.0000 0.1314671341
H   H63       1.0  0.83570  0.60720  0.30390  1.0000 0.1314671341
H   H64       1.0  0.46820  0.16430  0.77150  1.0000 0.1314671341
C   C1        1.0  0.91190  0.90100  0.38230  1.0000 -0.107729375
C   C2        1.0  0.47040  0.08810  0.98910  1.0000 -0.107729375
C   C3        1.0  0.51870  0.52960  0.61770  1.0000 -0.107729375
C   C4        1.0  0.09900  0.48130  0.01090  1.0000 -0.107729375
C   C5        1.0  0.73130  0.84900  0.51090  1.0000 -0.107729375
C   C6        1.0  0.77960  0.26870  0.11770  1.0000 -0.107729375
C   C7        1.0  0.33810  0.22040  0.48910  1.0000 -0.107729375
C   C8        1.0  0.15100  0.66190  0.88230  1.0000 -0.107729375
C   C9        1.0  0.87690  0.95420  0.35810  1.0000 -0.1017322835
C   C10       1.0  0.48120  0.12310  0.07730  1.0000 -0.1017322835
C   C11       1.0  0.59610  0.51880  0.64190  1.0000 -0.1017322835
C   C12       1.0  0.04580  0.40390  0.92270  1.0000 -0.1017322835
C   C13       1.0  0.65390  0.79580  0.42270  1.0000 -0.1017322835
C   C14       1.0  0.76880  0.34610  0.14190  1.0000 -0.1017322835
C   C15       1.0  0.37310  0.23120  0.57730  1.0000 -0.1017322835
C   C16       1.0  0.20420  0.62690  0.85810  1.0000 -0.1017322835
C   C17       1.0  0.96800  0.88530  0.34370  1.0000 -0.1583172219
C   C18       1.0  0.37570  0.03200  0.91730  1.0000 -0.1583172219
C   C19       1.0  0.54160  0.62430  0.65630  1.0000 -0.1583172219
C   C20       1.0  0.11470  0.45840  0.08270  1.0000 -0.1583172219
C   C21       1.0  0.70840  0.86470  0.58270  1.0000 -0.1583172219
C   C22       1.0  0.87430  0.29160  0.15630  1.0000 -0.1583172219
C   C23       1.0  0.28200  0.12570  0.41730  1.0000 -0.1583172219
C   C24       1.0  0.13530  0.71800  0.84370  1.0000 -0.1583172219
C   C25       1.0  0.40210  0.43140  0.37250  1.0000 -0.1583172219
C   C26       1.0  0.97040  0.59790  0.02930  1.0000 -0.1583172219
C   C27       1.0  0.05890  0.02960  0.62750  1.0000 -0.1583172219
C   C28       1.0  0.56860  0.94110  0.97070  1.0000 -0.1583172219
C   C29       1.0  0.19110  0.31860  0.47070  1.0000 -0.1583172219
C   C30       1.0  0.27960  0.80890  0.12750  1.0000 -0.1583172219
C   C31       1.0  0.84790  0.72040  0.52930  1.0000 -0.1583172219
C   C32       1.0  0.68140  0.15210  0.87250  1.0000 -0.1583172219
C   C33       1.0  0.95420  0.97730  0.25790  1.0000 0.1373842685
C   C34       1.0  0.30370  0.04580  0.02310  1.0000 0.1373842685
C   C35       1.0  0.71940  0.69630  0.74210  1.0000 0.1373842685
C   C36       1.0  0.02270  0.28060  0.97690  1.0000 0.1373842685
C   C37       1.0  0.53060  0.77270  0.47690  1.0000 0.1373842685
C   C38       1.0  0.94630  0.46940  0.24210  1.0000 0.1373842685
C   C39       1.0  0.29580  0.05370  0.52310  1.0000 0.1373842685
C   C40       1.0  0.22730  0.70420  0.75790  1.0000 0.1373842685
C   C41       1.0  0.49150  0.44400  0.40490  1.0000 -0.1017322835
C   C42       1.0  0.91340  0.50850  0.95250  1.0000 -0.1017322835
C   C43       1.0  0.03910  0.08660  0.59510  1.0000 -0.1017322835
C   C44       1.0  0.55600  0.96090  0.04750  1.0000 -0.1017322835
C   C45       1.0  0.21090  0.30600  0.54750  1.0000 -0.1017322835
C   C46       1.0  0.33660  0.78910  0.09510  1.0000 -0.1017322835
C   C47       1.0  0.75850  0.66340  0.45250  1.0000 -0.1017322835
C   C48       1.0  0.69400  0.24150  0.90490  1.0000 -0.1017322835
C   C49       1.0  0.49650  0.36520  0.36550  1.0000 -0.1017322835
C   C50       1.0  0.86900  0.50350  0.86870  1.0000 -0.1017322835
C   C51       1.0  0.99970  0.13100  0.63450  1.0000 -0.1017322835
C   C52       1.0  0.63480  0.00030  0.13130  1.0000 -0.1017322835
C   C53       1.0  0.25030  0.38480  0.63130  1.0000 -0.1017322835
C   C54       1.0  0.38100  0.74970  0.13450  1.0000 -0.1017322835
C   C55       1.0  0.75350  0.61900  0.36870  1.0000 -0.1017322835
C   C56       1.0  0.61520  0.24650  0.86550  1.0000 -0.1017322835
C   C57       1.0  0.89580  0.99160  0.29520  1.0000 -0.1675070446
C   C58       1.0  0.39940  0.10420  0.09580  1.0000 -0.1675070446
C   C59       1.0  0.69640  0.60060  0.70480  1.0000 -0.1675070446
C   C60       1.0  0.00840  0.30360  0.90420  1.0000 -0.1675070446
C   C61       1.0  0.55360  0.75840  0.40420  1.0000 -0.1675070446
C   C62       1.0  0.85060  0.44640  0.20480  1.0000 -0.1675070446
C   C63       1.0  0.35420  0.14940  0.59580  1.0000 -0.1675070446
C   C64       1.0  0.24160  0.64580  0.79520  1.0000 -0.1675070446
C   C65       1.0  0.31570  0.33620  0.30350  1.0000 0.1373842685
C   C66       1.0  0.98780  0.68430  0.02050  1.0000 0.1373842685
C   C67       1.0  0.03270  0.01220  0.69650  1.0000 0.1373842685
C   C68       1.0  0.66380  0.96730  0.97950  1.0000 0.1373842685
C   C69       1.0  0.21730  0.41380  0.47950  1.0000 0.1373842685
C   C70       1.0  0.26220  0.78270  0.19650  1.0000 0.1373842685
C   C71       1.0  0.93430  0.73780  0.52050  1.0000 0.1373842685
C   C72       1.0  0.58620  0.06570  0.80350  1.0000 0.1373842685
C   C73       1.0  0.99030  0.92630  0.28220  1.0000 0.1314671341
C   C74       1.0  0.29190  0.00970  0.93600  1.0000 0.1314671341
C   C75       1.0  0.64410  0.70810  0.71780  1.0000 0.1314671341
C   C76       1.0  0.07370  0.35590  0.06400  1.0000 0.1314671341
C   C77       1.0  0.60590  0.82370  0.56400  1.0000 0.1314671341
C   C78       1.0  0.95810  0.39410  0.21780  1.0000 0.1314671341
C   C79       1.0  0.25970  0.04190  0.43600  1.0000 0.1314671341
C   C80       1.0  0.17630  0.74030  0.78220  1.0000 0.1314671341
C   C81       1.0  0.31870  0.25730  0.26680  1.0000 0.120009893
C   C82       1.0  0.94810  0.68130  0.93860  1.0000 0.120009893
C   C83       1.0  0.99050  0.05190  0.73320  1.0000 0.120009893
C   C84       1.0  0.74270  0.00950  0.06140  1.0000 0.120009893
C   C85       1.0  0.25950  0.49270  0.56140  1.0000 0.120009893
C   C86       1.0  0.30190  0.74050  0.23320  1.0000 0.120009893
C   C87       1.0  0.93130  0.69810  0.43860  1.0000 0.120009893
C   C88       1.0  0.50730  0.06870  0.76680  1.0000 0.120009893
C   C89       1.0  0.41110  0.27000  0.29650  1.0000 -0.1675070446
C   C90       1.0  0.88540  0.58890  0.85890  1.0000 -0.1675070446
C   C91       1.0  0.97350  0.11460  0.70350  1.0000 -0.1675070446
C   C92       1.0  0.73000  0.02650  0.14110  1.0000 -0.1675070446
C   C93       1.0  0.27650  0.48000  0.64110  1.0000 -0.1675070446
C   C94       1.0  0.36460  0.72350  0.20350  1.0000 -0.1675070446
C   C95       1.0  0.83890  0.63540  0.35890  1.0000 -0.1675070446
C   C96       1.0  0.52000  0.16110  0.79650  1.0000 -0.1675070446
N   N1        1.0  0.22270  0.17460  0.20190  1.0000 -0.2205253696
N   N2        1.0  0.97920  0.77730  0.95190  1.0000 -0.2205253696
N   N3        1.0  0.97270  0.02080  0.79810  1.0000 -0.2205253696
N   N4        1.0  0.82540  0.02730  0.04810  1.0000 -0.2205253696
N   N5        1.0  0.27730  0.57540  0.54810  1.0000 -0.2205253696
N   N6        1.0  0.27080  0.72270  0.29810  1.0000 -0.2205253696
N   N7        1.0  0.02730  0.72920  0.45190  1.0000 -0.2205253696
N   N8        1.0  0.42460  0.97270  0.70190  1.0000 -0.2205253696
N   N9        1.0  0.16440  0.20420  0.20180  1.0000 -0.0094876784
N   N10       1.0  0.03740  0.83560  0.03980  1.0000 -0.0094876784
N   N11       1.0  0.00240  0.96260  0.79820  1.0000 -0.0094876784
N   N12       1.0  0.79580  0.99760  0.96020  1.0000 -0.0094876784
N   N13       1.0  0.24760  0.54580  0.46020  1.0000 -0.0094876784
N   N14       1.0  0.21260  0.75240  0.29820  1.0000 -0.0094876784
N   N15       1.0  0.08560  0.78740  0.53980  1.0000 -0.0094876784
N   N16       1.0  0.45420  0.91440  0.70180  1.0000 -0.0094876784
N   N17       1.0  0.21840  0.30090  0.26310  1.0000 -0.2096569982
N   N18       1.0  0.04470  0.78160  0.08250  1.0000 -0.2096569982
N   N19       1.0  0.03780  0.95530  0.73690  1.0000 -0.2096569982
N   N20       1.0  0.69910  0.96220  0.91750  1.0000 -0.2096569982
N   N21       1.0  0.21220  0.44910  0.41750  1.0000 -0.2096569982
N   N22       1.0  0.20530  0.78780  0.23690  1.0000 -0.2096569982
N   N23       1.0  0.03160  0.79470  0.58250  1.0000 -0.2096569982
N   N24       1.0  0.55090  0.96840  0.76310  1.0000 -0.2096569982
N   N25       1.0  0.98970  0.00810  0.19800  1.0000 -0.2205253696
N   N26       1.0  0.20830  0.01030  0.01840  1.0000 -0.2205253696
N   N27       1.0  0.81010  0.79170  0.80200  1.0000 -0.2205253696
N   N28       1.0  0.99190  0.18990  0.98160  1.0000 -0.2205253696
N   N29       1.0  0.43990  0.74190  0.48160  1.0000 -0.2205253696
N   N30       1.0  0.04170  0.56010  0.30200  1.0000 -0.2205253696
N   N31       1.0  0.26030  0.95830  0.51840  1.0000 -0.2205253696
N   N32       1.0  0.25810  0.73970  0.69800  1.0000 -0.2205253696
N   N33       1.0  0.04390  0.97480  0.18750  1.0000 -0.0021781152
N   N34       1.0  0.14360  0.95610  0.93090  1.0000 -0.0021781152
N   N35       1.0  0.78730  0.85640  0.81250  1.0000 -0.0021781152
N   N36       1.0  0.02520  0.21270  0.06910  1.0000 -0.0021781152
N   N37       1.0  0.46270  0.77520  0.56910  1.0000 -0.0021781152
N   N38       1.0  0.10640  0.53730  0.31250  1.0000 -0.0021781152
N   N39       1.0  0.20610  0.89360  0.43090  1.0000 -0.0021781152
N   N40       1.0  0.22480  0.79390  0.68750  1.0000 -0.0021781152
N   N41       1.0  0.04580  0.92570  0.23650  1.0000 -0.203571038
N   N42       1.0  0.19070  0.95420  0.87990  1.0000 -0.203571038
N   N43       1.0  0.68920  0.80930  0.76350  1.0000 -0.203571038
N   N44       1.0  0.07430  0.31080  0.12010  1.0000 -0.203571038
N   N45       1.0  0.56080  0.82430  0.62010  1.0000 -0.203571038
N   N46       1.0  0.05930  0.43920  0.26350  1.0000 -0.203571038
N   N47       1.0  0.20420  0.94070  0.37990  1.0000 -0.203571038
N   N48       1.0  0.17570  0.79580  0.73650  1.0000 -0.203571038
Cl  Cl1       1.0  0.00000  0.00000  0.00000  1.0000 -0.4438671988
Cl  Cl2       1.0  0.25000  0.75000  0.50000  1.0000 -0.4438671988
Cl  Cl3       1.0  0.99491  0.21264  0.26229  1.0000 -0.4625367444
Cl  Cl4       1.0  0.26738  0.00509  0.21773  1.0000 -0.465262252
Cl  Cl5       1.0  0.95035  0.73262  0.73771  1.0000 -0.465262252
Cl  Cl6       1.0  0.78736  0.04965  0.78227  1.0000 -0.465262252
Cl  Cl7       1.0  0.29965  0.53736  0.28227  1.0000 -0.465262252
Cl  Cl8       1.0  0.98262  0.70035  0.23771  1.0000 -0.465262252
Cl  Cl9       1.0  0.25509  0.01738  0.71773  1.0000 -0.465262252
Cl  Cl10      1.0  0.46264  0.74491  0.76229  1.0000 -0.465262252
