# DDEC6 charges by PACMAN v1.1 (https://github.com/mtap-research/PACMAN-charge/)
data_2013[Cu][nan]3[FSR]3
_chemical_formula_sum              "Cu10 H32 C40 N20 O44"
_cell_length_a       13.287
_cell_length_b       11.024
_cell_length_c       14.745
_cell_angle_alpha    90
_cell_angle_beta     97.27
_cell_angle_gamma    90

_symmetry_space_group_name_H-M    "P 1"
_symmetry_Int_Tables_number       1

loop_
  _symmetry_equiv_pos_as_xyz
  'x, y, z'

loop_
  _atom_site_type_symbol
  _atom_site_label
  _atom_site_symmetry_multiplicity
  _atom_site_fract_x
  _atom_site_fract_y
  _atom_site_fract_z
  _atom_site_occupancy
  _atom_site_charge
Cu  Cu1       1.0  0.76686  0.71258  0.98530  1.0000 0.8611834576
Cu  Cu2       1.0  0.73314  0.21258  0.01470  1.0000 0.8611834576
Cu  Cu3       1.0  0.23314  0.28742  0.01470  1.0000 0.8611834576
Cu  Cu4       1.0  0.26686  0.78742  0.98530  1.0000 0.8611834576
Cu  Cu5       1.0  0.76348  0.80270  0.68559  1.0000 0.7329800506
Cu  Cu6       1.0  0.73652  0.30270  0.31441  1.0000 0.7329800506
Cu  Cu7       1.0  0.23652  0.19730  0.31441  1.0000 0.7329800506
Cu  Cu8       1.0  0.26348  0.69730  0.68559  1.0000 0.7329800506
Cu  Cu9       1.0  0.00000  0.50000  0.50000  1.0000 0.8986505201
Cu  Cu10      1.0  0.50000  0.00000  0.50000  1.0000 0.8986505201
H   H1        1.0  0.71270  0.22540  0.80160  1.0000 0.1461812561
H   H2        1.0  0.78730  0.72540  0.19840  1.0000 0.1461812561
H   H3        1.0  0.28730  0.77460  0.19840  1.0000 0.1461812561
H   H4        1.0  0.21270  0.27460  0.80160  1.0000 0.1461812561
H   H5        1.0  0.73130  0.08370  0.68780  1.0000 0.114431866
H   H6        1.0  0.76870  0.58370  0.31220  1.0000 0.114431866
H   H7        1.0  0.26870  0.91630  0.31220  1.0000 0.114431866
H   H8        1.0  0.23130  0.41630  0.68780  1.0000 0.114431866
H   H9        1.0  0.96790  0.91950  0.78230  1.0000 0.1338873138
H   H10       1.0  0.53210  0.41950  0.21770  1.0000 0.1338873138
H   H11       1.0  0.03210  0.08050  0.21770  1.0000 0.1338873138
H   H12       1.0  0.46790  0.58050  0.78230  1.0000 0.1338873138
H   H13       1.0  0.13810  0.87700  0.77830  1.0000 0.1461812561
H   H14       1.0  0.36190  0.37700  0.22170  1.0000 0.1461812561
H   H15       1.0  0.86190  0.12300  0.22170  1.0000 0.1461812561
H   H16       1.0  0.63810  0.62300  0.77830  1.0000 0.1461812561
H   H17       1.0  0.74400  0.95200  0.53600  1.0000 0.283592992
H   H18       1.0  0.75600  0.45200  0.46400  1.0000 0.283592992
H   H19       1.0  0.25600  0.04800  0.46400  1.0000 0.283592992
H   H20       1.0  0.24400  0.54800  0.53600  1.0000 0.283592992
H   H21       1.0  0.99900  0.30700  0.62400  1.0000 0.3074542661
H   H22       1.0  0.50100  0.80700  0.37600  1.0000 0.3074542661
H   H23       1.0  0.00100  0.69300  0.37600  1.0000 0.3074542661
H   H24       1.0  0.49900  0.19300  0.62400  1.0000 0.3074542661
H   H25       1.0  0.83100  0.96600  0.56500  1.0000 0.2596911942
H   H26       1.0  0.66900  0.46600  0.43500  1.0000 0.2596911942
H   H27       1.0  0.16900  0.03400  0.43500  1.0000 0.2596911942
H   H28       1.0  0.33100  0.53400  0.56500  1.0000 0.2596911942
H   H29       1.0  0.07900  0.29200  0.58000  1.0000 0.3007770484
H   H30       1.0  0.42100  0.79200  0.42000  1.0000 0.3007770484
H   H31       1.0  0.92100  0.70800  0.42000  1.0000 0.3007770484
H   H32       1.0  0.57900  0.20800  0.58000  1.0000 0.3007770484
C   C1        1.0  0.76610  0.90390  0.85900  1.0000 0.405735903
C   C2        1.0  0.73390  0.40390  0.14100  1.0000 0.405735903
C   C3        1.0  0.23390  0.09610  0.14100  1.0000 0.405735903
C   C4        1.0  0.26610  0.59610  0.85900  1.0000 0.405735903
C   C5        1.0  0.75720  0.99310  0.92680  1.0000 -0.034030763
C   C6        1.0  0.74280  0.49310  0.07320  1.0000 -0.034030763
C   C7        1.0  0.24280  0.00690  0.07320  1.0000 -0.034030763
C   C8        1.0  0.25720  0.50690  0.92680  1.0000 -0.034030763
C   C9        1.0  0.76910  0.96650  0.02690  1.0000 0.575750642
C   C10       1.0  0.73090  0.46650  0.97310  1.0000 0.575750642
C   C11       1.0  0.23090  0.03350  0.97310  1.0000 0.575750642
C   C12       1.0  0.26910  0.53350  0.02690  1.0000 0.575750642
C   C13       1.0  0.72740  0.14320  0.81750  1.0000 0.0187767563
C   C14       1.0  0.77260  0.64320  0.18250  1.0000 0.0187767563
C   C15       1.0  0.27260  0.85680  0.18250  1.0000 0.0187767563
C   C16       1.0  0.22740  0.35680  0.81750  1.0000 0.0187767563
C   C17       1.0  0.73820  0.05850  0.74990  1.0000 0.0515953382
C   C18       1.0  0.76180  0.55850  0.25010  1.0000 0.0515953382
C   C19       1.0  0.26180  0.94150  0.25010  1.0000 0.0515953382
C   C20       1.0  0.23820  0.44150  0.74990  1.0000 0.0515953382
C   C21       1.0  0.04770  0.66420  0.64620  1.0000 0.4202798982
C   C22       1.0  0.45230  0.16420  0.35380  1.0000 0.4202798982
C   C23       1.0  0.95230  0.33580  0.35380  1.0000 0.4202798982
C   C24       1.0  0.54770  0.83580  0.64620  1.0000 0.4202798982
C   C25       1.0  0.94340  0.69190  0.64950  1.0000 -0.0700466405
C   C26       1.0  0.55660  0.19190  0.35050  1.0000 -0.0700466405
C   C27       1.0  0.05660  0.30810  0.35050  1.0000 -0.0700466405
C   C28       1.0  0.44340  0.80810  0.64950  1.0000 -0.0700466405
C   C29       1.0  0.85690  0.62120  0.60080  1.0000 0.562247329
C   C30       1.0  0.64310  0.12120  0.39920  1.0000 0.562247329
C   C31       1.0  0.14310  0.37880  0.39920  1.0000 0.562247329
C   C32       1.0  0.35690  0.87880  0.60080  1.0000 0.562247329
C   C33       1.0  0.98710  0.85350  0.74680  1.0000 -0.0087702807
C   C34       1.0  0.51290  0.35350  0.25320  1.0000 -0.0087702807
C   C35       1.0  0.01290  0.14650  0.25320  1.0000 -0.0087702807
C   C36       1.0  0.48710  0.64650  0.74680  1.0000 -0.0087702807
C   C37       1.0  0.08820  0.82780  0.74420  1.0000 0.0976819327
C   C38       1.0  0.41180  0.32780  0.25580  1.0000 0.0976819327
C   C39       1.0  0.91180  0.17220  0.25580  1.0000 0.0976819327
C   C40       1.0  0.58820  0.67220  0.74420  1.0000 0.0976819327
N   N1        1.0  0.75800  0.94220  0.77020  1.0000 -0.3008406232
N   N2        1.0  0.74200  0.44220  0.22980  1.0000 -0.3008406232
N   N3        1.0  0.24200  0.05780  0.22980  1.0000 -0.3008406232
N   N4        1.0  0.25800  0.55780  0.77020  1.0000 -0.3008406232
N   N5        1.0  0.73780  0.10870  0.90510  1.0000 -0.1483041974
N   N6        1.0  0.76220  0.60870  0.09490  1.0000 -0.1483041974
N   N7        1.0  0.26220  0.89130  0.09490  1.0000 -0.1483041974
N   N8        1.0  0.23780  0.39130  0.90510  1.0000 -0.1483041974
N   N9        1.0  0.53010  0.81270  0.96560  1.0000 0.7245761683
N   N10       1.0  0.96990  0.31270  0.03440  1.0000 0.7245761683
N   N11       1.0  0.46990  0.18730  0.03440  1.0000 0.7245761683
N   N12       1.0  0.03010  0.68730  0.96560  1.0000 0.7245761683
N   N13       1.0  0.91640  0.78500  0.69900  1.0000 -0.1774901817
N   N14       1.0  0.58360  0.28500  0.30100  1.0000 -0.1774901817
N   N15       1.0  0.08360  0.21500  0.30100  1.0000 -0.1774901817
N   N16       1.0  0.41640  0.71500  0.69900  1.0000 -0.1774901817
N   N17       1.0  0.11820  0.73550  0.69510  1.0000 -0.2817494194
N   N18       1.0  0.38180  0.23550  0.30490  1.0000 -0.2817494194
N   N19       1.0  0.88180  0.26450  0.30490  1.0000 -0.2817494194
N   N20       1.0  0.61820  0.76450  0.69510  1.0000 -0.2817494194
O   O1        1.0  0.78810  0.86130  0.05700  1.0000 -0.4859319808
O   O2        1.0  0.71190  0.36130  0.94300  1.0000 -0.4859319808
O   O3        1.0  0.21190  0.13870  0.94300  1.0000 -0.4859319808
O   O4        1.0  0.28810  0.63870  0.05700  1.0000 -0.4859319808
O   O5        1.0  0.76080  0.05670  0.07909  1.0000 -0.4638035466
O   O6        1.0  0.73920  0.55670  0.92091  1.0000 -0.4638035466
O   O7        1.0  0.23920  0.94330  0.92091  1.0000 -0.4638035466
O   O8        1.0  0.26080  0.44330  0.07909  1.0000 -0.4638035466
O   O9        1.0  0.78010  0.79030  0.87210  1.0000 -0.5035786102
O   O10       1.0  0.71990  0.29030  0.12790  1.0000 -0.5035786102
O   O11       1.0  0.21990  0.20970  0.12790  1.0000 -0.5035786102
O   O12       1.0  0.28010  0.70970  0.87210  1.0000 -0.5035786102
O   O13       1.0  0.58690  0.72710  0.99840  1.0000 -0.4859319808
O   O14       1.0  0.91310  0.22710  0.00160  1.0000 -0.4859319808
O   O15       1.0  0.41310  0.27290  0.00160  1.0000 -0.4859319808
O   O16       1.0  0.08690  0.77290  0.99840  1.0000 -0.4859319808
O   O17       1.0  0.55570  0.87250  0.90030  1.0000 -0.4342261324
O   O18       1.0  0.94430  0.37250  0.09970  1.0000 -0.4342261324
O   O19       1.0  0.44430  0.12750  0.09970  1.0000 -0.4342261324
O   O20       1.0  0.05570  0.62750  0.90030  1.0000 -0.4342261324
O   O21       1.0  0.45100  0.83650  0.99860  1.0000 -0.440169997
O   O22       1.0  0.04900  0.33650  0.00140  1.0000 -0.440169997
O   O23       1.0  0.54900  0.16350  0.00140  1.0000 -0.440169997
O   O24       1.0  0.95100  0.66350  0.99860  1.0000 -0.440169997
O   O25       1.0  0.78620  0.91830  0.56140  1.0000 -0.5960073541
O   O26       1.0  0.71380  0.41830  0.43860  1.0000 -0.5960073541
O   O27       1.0  0.21380  0.08170  0.43860  1.0000 -0.5960073541
O   O28       1.0  0.28620  0.58170  0.56140  1.0000 -0.5960073541
O   O29       1.0  0.76920  0.65390  0.61380  1.0000 -0.4657384972
O   O30       1.0  0.73080  0.15390  0.38620  1.0000 -0.4638035466
O   O31       1.0  0.23080  0.34610  0.38620  1.0000 -0.4638035466
O   O32       1.0  0.26920  0.84610  0.61380  1.0000 -0.4657384972
O   O33       1.0  0.87270  0.53410  0.54980  1.0000 -0.5155262719
O   O34       1.0  0.62730  0.03410  0.45020  1.0000 -0.5155262719
O   O35       1.0  0.12730  0.46590  0.45020  1.0000 -0.5155262719
O   O36       1.0  0.37270  0.96590  0.54980  1.0000 -0.5155262719
O   O37       1.0  0.08020  0.57750  0.60110  1.0000 -0.5342811863
O   O38       1.0  0.41980  0.07750  0.39890  1.0000 -0.5342811863
O   O39       1.0  0.91980  0.42250  0.39890  1.0000 -0.5342811863
O   O40       1.0  0.58020  0.92250  0.60110  1.0000 -0.5342811863
O   O41       1.0  0.01780  0.30180  0.57390  1.0000 -0.6468697409
O   O42       1.0  0.48220  0.80180  0.42610  1.0000 -0.6468697409
O   O43       1.0  0.98220  0.69820  0.42610  1.0000 -0.6468697409
O   O44       1.0  0.51780  0.19820  0.57390  1.0000 -0.6468697409
