# DDEC6 charges by PACMAN v1.1 (https://github.com/mtap-research/PACMAN-charge/)
data_2013[Eu][nan]3[FSR]4
_chemical_formula_sum              "Eu4 H108 C84 N24 O28"
_cell_length_a       8.0794
_cell_length_b       26.8003
_cell_length_c       16.6042
_cell_angle_alpha    90
_cell_angle_beta     101.191
_cell_angle_gamma    90

_symmetry_space_group_name_H-M    "P 1"
_symmetry_Int_Tables_number       1

loop_
  _symmetry_equiv_pos_as_xyz
  'x, y, z'

loop_
  _atom_site_type_symbol
  _atom_site_label
  _atom_site_symmetry_multiplicity
  _atom_site_fract_x
  _atom_site_fract_y
  _atom_site_fract_z
  _atom_site_occupancy
  _atom_site_charge
Eu  Eu1       1.0  0.78500  0.25567  0.77266  1.0000 2.1053559304
Eu  Eu2       1.0  0.71500  0.75567  0.22734  1.0000 2.1053559304
Eu  Eu3       1.0  0.21500  0.74433  0.22734  1.0000 2.1053559304
Eu  Eu4       1.0  0.28500  0.24433  0.77266  1.0000 2.1053559304
H   H1        1.0  0.64000  0.08800  0.68400  1.0000 0.1088356489
H   H2        1.0  0.86000  0.58800  0.31600  1.0000 0.1088356489
H   H3        1.0  0.36000  0.91200  0.31600  1.0000 0.1088356489
H   H4        1.0  0.14000  0.41200  0.68400  1.0000 0.1088356489
H   H5        1.0  0.64080  0.07950  0.82470  1.0000 0.1265561104
H   H6        1.0  0.85920  0.57950  0.17530  1.0000 0.1265561104
H   H7        1.0  0.35920  0.92050  0.17530  1.0000 0.1265561104
H   H8        1.0  0.14080  0.42050  0.82470  1.0000 0.1265561104
H   H9        1.0  0.44280  0.07810  0.80670  1.0000 0.1212497258
H   H10       1.0  0.05720  0.57810  0.19330  1.0000 0.1212497258
H   H11       1.0  0.55720  0.92190  0.19330  1.0000 0.1212497258
H   H12       1.0  0.94280  0.42190  0.80670  1.0000 0.1212497258
H   H13       1.0  0.65170  0.00390  0.75740  1.0000 0.1010178434
H   H14       1.0  0.84830  0.50390  0.24260  1.0000 0.1010178434
H   H15       1.0  0.34830  0.99610  0.24260  1.0000 0.1010178434
H   H16       1.0  0.15170  0.49610  0.75740  1.0000 0.1010178434
H   H17       1.0  0.53990  0.99660  0.82400  1.0000 0.1088356489
H   H18       1.0  0.96010  0.49660  0.17600  1.0000 0.1088356489
H   H19       1.0  0.46010  0.00340  0.17600  1.0000 0.1088356489
H   H20       1.0  0.03990  0.50340  0.82400  1.0000 0.1088356489
H   H21       1.0  0.28990  0.01240  0.59320  1.0000 0.1010178434
H   H22       1.0  0.21010  0.51240  0.40680  1.0000 0.1010178434
H   H23       1.0  0.71010  0.98760  0.40680  1.0000 0.1010178434
H   H24       1.0  0.78990  0.48760  0.59320  1.0000 0.1010178434
H   H25       1.0  0.48740  0.01460  0.60590  1.0000 0.1010178434
H   H26       1.0  0.01260  0.51460  0.39410  1.0000 0.1010178434
H   H27       1.0  0.51260  0.98540  0.39410  1.0000 0.1010178434
H   H28       1.0  0.98740  0.48540  0.60590  1.0000 0.1010178434
H   H29       1.0  0.28330  0.08840  0.66000  1.0000 0.1212497258
H   H30       1.0  0.21670  0.58840  0.34000  1.0000 0.1212497258
H   H31       1.0  0.71670  0.91160  0.34000  1.0000 0.1212497258
H   H32       1.0  0.78330  0.41160  0.66000  1.0000 0.1212497258
H   H33       1.0  0.38500  0.09580  0.58930  1.0000 0.1088356489
H   H34       1.0  0.11500  0.59580  0.41070  1.0000 0.1088356489
H   H35       1.0  0.61500  0.90420  0.41070  1.0000 0.1088356489
H   H36       1.0  0.88500  0.40420  0.58930  1.0000 0.1088356489
H   H37       1.0  0.09320  0.92690  0.51110  1.0000 0.1088356489
H   H38       1.0  0.40680  0.42690  0.48890  1.0000 0.1088356489
H   H39       1.0  0.90680  0.07310  0.48890  1.0000 0.1088356489
H   H40       1.0  0.59320  0.57310  0.51110  1.0000 0.1088356489
H   H41       1.0  0.91740  0.89980  0.49230  1.0000 0.1010178434
H   H42       1.0  0.58260  0.39980  0.50770  1.0000 0.1010178434
H   H43       1.0  0.08260  0.10020  0.50770  1.0000 0.1010178434
H   H44       1.0  0.41740  0.60020  0.49230  1.0000 0.1010178434
H   H45       1.0  0.21530  0.86400  0.44770  1.0000 0.1212497258
H   H46       1.0  0.28470  0.36400  0.55230  1.0000 0.1212497258
H   H47       1.0  0.78470  0.13600  0.55230  1.0000 0.1212497258
H   H48       1.0  0.71530  0.63600  0.44770  1.0000 0.1212497258
H   H49       1.0  0.05570  0.88310  0.38590  1.0000 0.1265561104
H   H50       1.0  0.44430  0.38310  0.61410  1.0000 0.1265561104
H   H51       1.0  0.94430  0.11690  0.61410  1.0000 0.1265561104
H   H52       1.0  0.55570  0.61690  0.38590  1.0000 0.1265561104
H   H53       1.0  0.18900  0.78190  0.52650  1.0000 0.1212497258
H   H54       1.0  0.31100  0.28190  0.47350  1.0000 0.1212497258
H   H55       1.0  0.81100  0.21810  0.47350  1.0000 0.1212497258
H   H56       1.0  0.68900  0.71810  0.52650  1.0000 0.1212497258
H   H57       1.0  0.01420  0.75440  0.50990  1.0000 0.1212497258
H   H58       1.0  0.48580  0.25440  0.49010  1.0000 0.1212497258
H   H59       1.0  0.98580  0.24560  0.49010  1.0000 0.1212497258
H   H60       1.0  0.51420  0.74560  0.50990  1.0000 0.1212497258
H   H61       1.0  0.89040  0.81920  0.57060  1.0000 0.1088356489
H   H62       1.0  0.60960  0.31920  0.42940  1.0000 0.1088356489
H   H63       1.0  0.10960  0.18080  0.42940  1.0000 0.1088356489
H   H64       1.0  0.39040  0.68080  0.57060  1.0000 0.1088356489
H   H65       1.0  0.05090  0.80130  0.63320  1.0000 0.1088356489
H   H66       1.0  0.44910  0.30130  0.36680  1.0000 0.1088356489
H   H67       1.0  0.94910  0.19870  0.36680  1.0000 0.1088356489
H   H68       1.0  0.55090  0.69870  0.63320  1.0000 0.1088356489
H   H69       1.0  0.89800  0.81510  0.41600  1.0000 0.1212497258
H   H70       1.0  0.60200  0.31510  0.58400  1.0000 0.1212497258
H   H71       1.0  0.10200  0.18490  0.58400  1.0000 0.1212497258
H   H72       1.0  0.39800  0.68490  0.41600  1.0000 0.1212497258
H   H73       1.0  0.42770  0.78100  0.84610  1.0000 0.1010178434
H   H74       1.0  0.07230  0.28100  0.15390  1.0000 0.1010178434
H   H75       1.0  0.57230  0.21900  0.15390  1.0000 0.1010178434
H   H76       1.0  0.92770  0.71900  0.84610  1.0000 0.1010178434
H   H77       1.0  0.23870  0.79020  0.80430  1.0000 0.1088356489
H   H78       1.0  0.26130  0.29020  0.19570  1.0000 0.1088356489
H   H79       1.0  0.76130  0.20980  0.19570  1.0000 0.1088356489
H   H80       1.0  0.73870  0.70980  0.80430  1.0000 0.1088356489
H   H81       1.0  0.26120  0.74680  0.93000  1.0000 0.1212497258
H   H82       1.0  0.23880  0.24680  0.07000  1.0000 0.1212497258
H   H83       1.0  0.73880  0.25320  0.07000  1.0000 0.1212497258
H   H84       1.0  0.76120  0.75320  0.93000  1.0000 0.1212497258
H   H85       1.0  0.15980  0.79670  0.93000  1.0000 0.1212497258
H   H86       1.0  0.34020  0.29670  0.07000  1.0000 0.1212497258
H   H87       1.0  0.84020  0.20330  0.07000  1.0000 0.1212497258
H   H88       1.0  0.65980  0.70330  0.93000  1.0000 0.1212497258
H   H89       1.0  0.30970  0.87300  0.00360  1.0000 0.1088356489
H   H90       1.0  0.19030  0.37300  0.99640  1.0000 0.1088356489
H   H91       1.0  0.69030  0.12700  0.99640  1.0000 0.1088356489
H   H92       1.0  0.80970  0.62700  0.00360  1.0000 0.1088356489
H   H93       1.0  0.49870  0.86760  0.04820  1.0000 0.1212497258
H   H94       1.0  0.00130  0.36760  0.95180  1.0000 0.1212497258
H   H95       1.0  0.50130  0.13240  0.95180  1.0000 0.1212497258
H   H96       1.0  0.99870  0.63240  0.04820  1.0000 0.1212497258
H   H97       1.0  0.47810  0.90720  0.92020  1.0000 0.1010178434
H   H98       1.0  0.02190  0.40720  0.07980  1.0000 0.1010178434
H   H99       1.0  0.52190  0.09280  0.07980  1.0000 0.1010178434
H   H100      1.0  0.97810  0.59280  0.92020  1.0000 0.1010178434
H   H101      1.0  0.58450  0.85800  0.92430  1.0000 0.1010178434
H   H102      1.0  0.91550  0.35800  0.07570  1.0000 0.1010178434
H   H103      1.0  0.41550  0.14200  0.07570  1.0000 0.1010178434
H   H104      1.0  0.08450  0.64200  0.92430  1.0000 0.1010178434
H   H105      1.0  0.50200  0.78410  0.00600  1.0000 0.1212497258
H   H106      1.0  0.99800  0.28410  0.99400  1.0000 0.1212497258
H   H107      1.0  0.49800  0.21590  0.99400  1.0000 0.1212497258
H   H108      1.0  0.00200  0.71590  0.00600  1.0000 0.1212497258
C   C1        1.0  0.54290  0.15301  0.71980  1.0000 0.6353250862
C   C2        1.0  0.95710  0.65301  0.28020  1.0000 0.6353250862
C   C3        1.0  0.45710  0.84699  0.28020  1.0000 0.6353250862
C   C4        1.0  0.04290  0.34699  0.71980  1.0000 0.6353250862
C   C5        1.0  0.53850  0.09704  0.70410  1.0000 -0.1114161928
C   C6        1.0  0.96150  0.59704  0.29590  1.0000 -0.1114161928
C   C7        1.0  0.46150  0.90296  0.29590  1.0000 -0.1114161928
C   C8        1.0  0.03850  0.40296  0.70410  1.0000 -0.1114161928
C   C9        1.0  0.54200  0.06930  0.78500  1.0000 -0.1970239356
C   C10       1.0  0.95800  0.56930  0.21500  1.0000 -0.1970239356
C   C11       1.0  0.45800  0.93070  0.21500  1.0000 -0.1970239356
C   C12       1.0  0.04200  0.43070  0.78500  1.0000 -0.1970239356
C   C13       1.0  0.54620  0.01329  0.77290  1.0000 -0.0897870803
C   C14       1.0  0.95380  0.51329  0.22710  1.0000 -0.0897870803
C   C15       1.0  0.45380  0.98671  0.22710  1.0000 -0.0897870803
C   C16       1.0  0.04620  0.48671  0.77290  1.0000 -0.0897870803
C   C17       1.0  0.39140  0.02321  0.63030  1.0000 -0.0897870803
C   C18       1.0  0.10860  0.52321  0.36970  1.0000 -0.0897870803
C   C19       1.0  0.60860  0.97679  0.36970  1.0000 -0.0897870803
C   C20       1.0  0.89140  0.47679  0.63030  1.0000 -0.0897870803
C   C21       1.0  0.38600  0.07938  0.64150  1.0000 -0.1970239356
C   C22       1.0  0.11400  0.57938  0.35850  1.0000 -0.1970239356
C   C23       1.0  0.61400  0.92062  0.35850  1.0000 -0.1970239356
C   C24       1.0  0.88600  0.42062  0.64150  1.0000 -0.1970239356
C   C25       1.0  0.34050  0.95034  0.71190  1.0000 0.4570842655
C   C26       1.0  0.15950  0.45034  0.28810  1.0000 0.4570842655
C   C27       1.0  0.65950  0.04966  0.28810  1.0000 0.4570842655
C   C28       1.0  0.84050  0.54966  0.71190  1.0000 0.4570842655
C   C29       1.0  0.31890  0.87934  0.78120  1.0000 0.4570842655
C   C30       1.0  0.18110  0.37934  0.21880  1.0000 0.4570842655
C   C31       1.0  0.68110  0.12066  0.21880  1.0000 0.4570842655
C   C32       1.0  0.81890  0.62066  0.78120  1.0000 0.4570842655
C   C33       1.0  0.18170  0.88700  0.65060  1.0000 0.4570842655
C   C34       1.0  0.31830  0.38700  0.34940  1.0000 0.4570842655
C   C35       1.0  0.81830  0.11300  0.34940  1.0000 0.4570842655
C   C36       1.0  0.68170  0.61300  0.65060  1.0000 0.4570842655
C   C37       1.0  0.03840  0.89450  0.50560  1.0000 -0.0897870803
C   C38       1.0  0.46160  0.39450  0.49440  1.0000 -0.0897870803
C   C39       1.0  0.96160  0.10550  0.49440  1.0000 -0.0897870803
C   C40       1.0  0.53840  0.60550  0.50560  1.0000 -0.0897870803
C   C41       1.0  0.09310  0.86568  0.43750  1.0000 -0.1970239356
C   C42       1.0  0.40690  0.36568  0.56250  1.0000 -0.1970239356
C   C43       1.0  0.90690  0.13432  0.56250  1.0000 -0.1970239356
C   C44       1.0  0.59310  0.63432  0.43750  1.0000 -0.1970239356
C   C45       1.0  0.06790  0.78688  0.51310  1.0000 -0.1970239356
C   C46       1.0  0.43210  0.28688  0.48690  1.0000 -0.1929285
C   C47       1.0  0.93210  0.21312  0.48690  1.0000 -0.1929285
C   C48       1.0  0.56790  0.71312  0.51310  1.0000 -0.1929285
C   C49       1.0  0.01260  0.81741  0.58050  1.0000 -0.0847509085
C   C50       1.0  0.48740  0.31741  0.41950  1.0000 -0.0847509085
C   C51       1.0  0.98740  0.18259  0.41950  1.0000 -0.0847509085
C   C52       1.0  0.51260  0.68259  0.58050  1.0000 -0.0847509085
C   C53       1.0  0.33770  0.78440  0.08350  1.0000 0.611491871
C   C54       1.0  0.16230  0.28440  0.91650  1.0000 0.611491871
C   C55       1.0  0.66230  0.21560  0.91650  1.0000 0.611491871
C   C56       1.0  0.83770  0.71560  0.08350  1.0000 0.611491871
C   C57       1.0  0.02130  0.81283  0.43050  1.0000 -0.1222647458
C   C58       1.0  0.47870  0.31283  0.56950  1.0000 -0.1222647458
C   C59       1.0  0.97870  0.18717  0.56950  1.0000 -0.1222647458
C   C60       1.0  0.52130  0.68717  0.43050  1.0000 -0.1222647458
C   C61       1.0  0.32570  0.79880  0.85120  1.0000 -0.0897870803
C   C62       1.0  0.17430  0.29880  0.14880  1.0000 -0.0897870803
C   C63       1.0  0.67430  0.20120  0.14880  1.0000 -0.0897870803
C   C64       1.0  0.82570  0.70120  0.85120  1.0000 -0.0897870803
C   C65       1.0  0.27050  0.78289  0.92940  1.0000 -0.1929285
C   C66       1.0  0.22950  0.28289  0.07060  1.0000 -0.1929285
C   C67       1.0  0.72950  0.21711  0.07060  1.0000 -0.1929285
C   C68       1.0  0.77050  0.71711  0.92940  1.0000 -0.1929285
C   C69       1.0  0.41560  0.85656  0.00130  1.0000 -0.1929285
C   C70       1.0  0.08440  0.35656  0.99870  1.0000 -0.1929285
C   C71       1.0  0.58440  0.14344  0.99870  1.0000 -0.1929285
C   C72       1.0  0.91560  0.64344  0.00130  1.0000 -0.1929285
C   C73       1.0  0.47230  0.87115  0.92340  1.0000 -0.0897870803
C   C74       1.0  0.02770  0.37115  0.07660  1.0000 -0.0897870803
C   C75       1.0  0.52770  0.12885  0.07660  1.0000 -0.0897870803
C   C76       1.0  0.97230  0.62885  0.92340  1.0000 -0.0897870803
C   C77       1.0  0.39250  0.79980  0.00590  1.0000 -0.1222647458
C   C78       1.0  0.10750  0.29980  0.99410  1.0000 -0.1222647458
C   C79       1.0  0.60750  0.20020  0.99410  1.0000 -0.1222647458
C   C80       1.0  0.89250  0.70020  0.00590  1.0000 -0.1222647458
C   C81       1.0  0.08290  0.78494  0.36380  1.0000 0.625513506
C   C82       1.0  0.41710  0.28494  0.63620  1.0000 0.625513506
C   C83       1.0  0.91710  0.21506  0.63620  1.0000 0.625513506
C   C84       1.0  0.58290  0.71506  0.36380  1.0000 0.625513506
N   N1        1.0  0.40480  0.99741  0.70900  1.0000 -0.1114161928
N   N2        1.0  0.09520  0.49741  0.29100  1.0000 -0.1114161928
N   N3        1.0  0.59520  0.00259  0.29100  1.0000 -0.1114161928
N   N4        1.0  0.90480  0.50259  0.70900  1.0000 -0.1114161928
N   N5        1.0  0.38610  0.92515  0.78260  1.0000 -0.530974391
N   N6        1.0  0.11390  0.42515  0.21740  1.0000 -0.530974391
N   N7        1.0  0.61390  0.07485  0.21740  1.0000 -0.530974391
N   N8        1.0  0.88610  0.57485  0.78260  1.0000 -0.530974391
N   N9        1.0  0.23650  0.93411  0.64420  1.0000 -0.5479263278
N   N10       1.0  0.26350  0.43411  0.35580  1.0000 -0.5479263278
N   N11       1.0  0.76350  0.06589  0.35580  1.0000 -0.5479263278
N   N12       1.0  0.73650  0.56589  0.64420  1.0000 -0.5479263278
N   N13       1.0  0.21790  0.85765  0.71680  1.0000 -0.5479263278
N   N14       1.0  0.28210  0.35765  0.28320  1.0000 -0.5479263278
N   N15       1.0  0.78210  0.14235  0.28320  1.0000 -0.5479263278
N   N16       1.0  0.71790  0.64235  0.71680  1.0000 -0.5479263278
N   N17       1.0  0.35730  0.85228  0.85110  1.0000 -0.0999465055
N   N18       1.0  0.14270  0.35228  0.14890  1.0000 -0.0999465055
N   N19       1.0  0.64270  0.14772  0.14890  1.0000 -0.0999465055
N   N20       1.0  0.85730  0.64772  0.85110  1.0000 -0.0999465055
N   N21       1.0  0.08200  0.86742  0.58270  1.0000 -0.0897870803
N   N22       1.0  0.41800  0.36742  0.41730  1.0000 -0.0897870803
N   N23       1.0  0.91800  0.13258  0.41730  1.0000 -0.0897870803
N   N24       1.0  0.58200  0.63258  0.58270  1.0000 -0.0897870803
O   O1        1.0  0.68830  0.17195  0.74320  1.0000 -0.6515622615
O   O2        1.0  0.81170  0.67195  0.25680  1.0000 -0.6515622615
O   O3        1.0  0.31170  0.82805  0.25680  1.0000 -0.6515622615
O   O4        1.0  0.18830  0.32805  0.74320  1.0000 -0.6515622615
O   O5        1.0  0.18650  0.78804  0.08950  1.0000 -0.5639087885
O   O6        1.0  0.31350  0.28804  0.91050  1.0000 -0.5639087885
O   O7        1.0  0.81350  0.21196  0.91050  1.0000 -0.5639087885
O   O8        1.0  0.68650  0.71196  0.08950  1.0000 -0.5639087885
O   O9        1.0  0.73390  0.33117  0.84960  1.0000 -0.5446300386
O   O10       1.0  0.76610  0.83117  0.15040  1.0000 -0.5479263278
O   O11       1.0  0.26610  0.66883  0.15040  1.0000 -0.5446300386
O   O12       1.0  0.23390  0.16883  0.84960  1.0000 -0.5446300386
O   O13       1.0  0.44250  0.76624  0.14355  1.0000 -0.6880738913
O   O14       1.0  0.05750  0.26624  0.85645  1.0000 -0.6880738913
O   O15       1.0  0.55750  0.23376  0.85645  1.0000 -0.6880738913
O   O16       1.0  0.94250  0.73376  0.14355  1.0000 -0.6880738913
O   O17       1.0  0.98890  0.78398  0.29112  1.0000 -0.742287892
O   O18       1.0  0.51110  0.28398  0.70888  1.0000 -0.742287892
O   O19       1.0  0.01110  0.21602  0.70888  1.0000 -0.742287892
O   O20       1.0  0.48890  0.71602  0.29112  1.0000 -0.742287892
O   O21       1.0  0.22420  0.76528  0.37608  1.0000 -0.5834831475
O   O22       1.0  0.27580  0.26528  0.62392  1.0000 -0.5834831475
O   O23       1.0  0.77580  0.23472  0.62392  1.0000 -0.5834831475
O   O24       1.0  0.72420  0.73472  0.37608  1.0000 -0.5834831475
O   O25       1.0  0.40650  0.17605  0.71335  1.0000 -0.6290986865
O   O26       1.0  0.09350  0.67605  0.28665  1.0000 -0.6290986865
O   O27       1.0  0.59350  0.82395  0.28665  1.0000 -0.6290986865
O   O28       1.0  0.90650  0.32395  0.71335  1.0000 -0.6290986865
