# DDEC6 charges by PACMAN v1.1 (https://github.com/mtap-research/PACMAN-charge/)
data_2013[Zn][pcu]3[FSR]15
_chemical_formula_sum              "Zn4 H64 C96 N4 O20"
_cell_length_a       14.2678
_cell_length_b       14.2678
_cell_length_c       15.8511
_cell_angle_alpha    78.9335
_cell_angle_beta     101.067
_cell_angle_gamma    64.3095

_symmetry_space_group_name_H-M    "P 1"
_symmetry_Int_Tables_number       1

loop_
  _symmetry_equiv_pos_as_xyz
  'x, y, z'

loop_
  _atom_site_type_symbol
  _atom_site_label
  _atom_site_symmetry_multiplicity
  _atom_site_fract_x
  _atom_site_fract_y
  _atom_site_fract_z
  _atom_site_occupancy
  _atom_site_charge
Zn  Zn1       1.0  0.93908  0.08624  0.63821  1.0000 0.8291483669
Zn  Zn2       1.0  0.08624  0.93908  0.86179  1.0000 0.8291483669
Zn  Zn3       1.0  0.06092  0.91376  0.36179  1.0000 0.8291483669
Zn  Zn4       1.0  0.91376  0.06092  0.13821  1.0000 0.8291483669
H   H1        1.0  0.00070  0.11830  0.46820  1.0000 0.1107630454
H   H2        1.0  0.11830  0.00070  0.03180  1.0000 0.1107630454
H   H3        1.0  0.99930  0.88170  0.53180  1.0000 0.1107630454
H   H4        1.0  0.88170  0.99930  0.96820  1.0000 0.1107630454
H   H5        1.0  0.92160  0.22080  0.31840  1.0000 0.1465227751
H   H6        1.0  0.22080  0.92160  0.18160  1.0000 0.1465227751
H   H7        1.0  0.07840  0.77920  0.68160  1.0000 0.1465227751
H   H8        1.0  0.77920  0.07840  0.81840  1.0000 0.1465227751
H   H9        1.0  0.64390  0.39230  0.37520  1.0000 0.1196827163
H   H10       1.0  0.39230  0.64390  0.12480  1.0000 0.1196827163
H   H11       1.0  0.35610  0.60770  0.62480  1.0000 0.1196827163
H   H12       1.0  0.60770  0.35610  0.87520  1.0000 0.1196827163
H   H13       1.0  0.73210  0.28730  0.52460  1.0000 0.1107630454
H   H14       1.0  0.28730  0.73210  0.97540  1.0000 0.1107630454
H   H15       1.0  0.26790  0.71270  0.47540  1.0000 0.1107630454
H   H16       1.0  0.71270  0.26790  0.02460  1.0000 0.1107630454
H   H17       1.0  0.75960  0.37720  0.19440  1.0000 0.1298342621
H   H18       1.0  0.37720  0.75960  0.30560  1.0000 0.1298342621
H   H19       1.0  0.24040  0.62280  0.80560  1.0000 0.1298342621
H   H20       1.0  0.62280  0.24040  0.69440  1.0000 0.1298342621
H   H21       1.0  0.56590  0.41130  0.22900  1.0000 0.1107630454
H   H22       1.0  0.41130  0.56590  0.27100  1.0000 0.1107630454
H   H23       1.0  0.43410  0.58870  0.77100  1.0000 0.1107630454
H   H24       1.0  0.58870  0.43410  0.72900  1.0000 0.1107630454
H   H25       1.0  0.42020  0.44280  0.09930  1.0000 0.1196827163
H   H26       1.0  0.44280  0.42020  0.40070  1.0000 0.1196827163
H   H27       1.0  0.57980  0.55720  0.90070  1.0000 0.1196827163
H   H28       1.0  0.55720  0.57980  0.59930  1.0000 0.1196827163
H   H29       1.0  0.66930  0.48830  0.05520  1.0000 0.1196827163
H   H30       1.0  0.48830  0.66930  0.44480  1.0000 0.1196827163
H   H31       1.0  0.33070  0.51170  0.94480  1.0000 0.1196827163
H   H32       1.0  0.51170  0.33070  0.55520  1.0000 0.1196827163
H   H33       1.0  0.61620  0.06120  0.66070  1.0000 0.1196827163
H   H34       1.0  0.06120  0.61620  0.83930  1.0000 0.1196827163
H   H35       1.0  0.38380  0.93880  0.33930  1.0000 0.1196827163
H   H36       1.0  0.93880  0.38380  0.16070  1.0000 0.1196827163
H   H37       1.0  0.52030  0.96370  0.66090  1.0000 0.1298342621
H   H38       1.0  0.96370  0.52030  0.83910  1.0000 0.1298342621
H   H39       1.0  0.47970  0.03630  0.33910  1.0000 0.1298342621
H   H40       1.0  0.03630  0.47970  0.16090  1.0000 0.1298342621
H   H41       1.0  0.76820  0.71800  0.61800  1.0000 0.1298342621
H   H42       1.0  0.71800  0.76820  0.88200  1.0000 0.1368088103
H   H43       1.0  0.23180  0.28200  0.38200  1.0000 0.1368088103
H   H44       1.0  0.28200  0.23180  0.11800  1.0000 0.1368088103
H   H45       1.0  0.86570  0.81290  0.62350  1.0000 0.1196827163
H   H46       1.0  0.81290  0.86570  0.87650  1.0000 0.1196827163
H   H47       1.0  0.13430  0.18710  0.37650  1.0000 0.1196827163
H   H48       1.0  0.18710  0.13430  0.12350  1.0000 0.1196827163
H   H49       1.0  0.38090  0.82010  0.81830  1.0000 0.1196827163
H   H50       1.0  0.82010  0.38090  0.68170  1.0000 0.1196827163
H   H51       1.0  0.61910  0.17990  0.18170  1.0000 0.1196827163
H   H52       1.0  0.17990  0.61910  0.31830  1.0000 0.1196827163
H   H53       1.0  0.54810  0.74570  0.78890  1.0000 0.1368088103
H   H54       1.0  0.74570  0.54810  0.71110  1.0000 0.1368088103
H   H55       1.0  0.45190  0.25430  0.21110  1.0000 0.1368088103
H   H56       1.0  0.25430  0.45190  0.28890  1.0000 0.1368088103
H   H57       1.0  0.39040  0.88420  0.52230  1.0000 0.1298342621
H   H58       1.0  0.88420  0.39040  0.97770  1.0000 0.1298342621
H   H59       1.0  0.60960  0.11580  0.47770  1.0000 0.1298342621
H   H60       1.0  0.11580  0.60960  0.02230  1.0000 0.1298342621
H   H61       1.0  0.22410  0.96030  0.55160  1.0000 0.1196827163
H   H62       1.0  0.96030  0.22410  0.94840  1.0000 0.1196827163
H   H63       1.0  0.77590  0.03970  0.44840  1.0000 0.1196827163
H   H64       1.0  0.03970  0.77590  0.05160  1.0000 0.1196827163
C   C1        1.0  0.92650  0.17450  0.44880  1.0000 0.0845188646
C   C2        1.0  0.17450  0.92650  0.05120  1.0000 0.0845188646
C   C3        1.0  0.07350  0.82550  0.55120  1.0000 0.0845188646
C   C4        1.0  0.82550  0.07350  0.94880  1.0000 0.0845188646
C   C5        1.0  0.88000  0.23440  0.35910  1.0000 -0.1710175427
C   C6        1.0  0.23440  0.88000  0.14090  1.0000 -0.1710175427
C   C7        1.0  0.12000  0.76560  0.64090  1.0000 -0.1710175427
C   C8        1.0  0.76560  0.12000  0.85910  1.0000 -0.1710175427
C   C9        1.0  0.77050  0.31610  0.32830  1.0000 0.1682596056
C   C10       1.0  0.31610  0.77050  0.17170  1.0000 0.1682596056
C   C11       1.0  0.22950  0.68390  0.67170  1.0000 0.1682596056
C   C12       1.0  0.68390  0.22950  0.82830  1.0000 0.1682596056
C   C13       1.0  0.71750  0.33530  0.39270  1.0000 -0.1919193865
C   C14       1.0  0.33530  0.71750  0.10730  1.0000 -0.1919193865
C   C15       1.0  0.28250  0.66470  0.60730  1.0000 -0.1919193865
C   C16       1.0  0.66470  0.28250  0.89270  1.0000 -0.1919193865
C   C17       1.0  0.77060  0.27220  0.48180  1.0000 0.0845188646
C   C18       1.0  0.27220  0.77060  0.01820  1.0000 0.0845188646
C   C19       1.0  0.22940  0.72780  0.51820  1.0000 0.0845188646
C   C20       1.0  0.72780  0.22940  0.98180  1.0000 0.0845188646
C   C21       1.0  0.71610  0.37070  0.23120  1.0000 -0.1293461176
C   C22       1.0  0.37070  0.71610  0.26880  1.0000 -0.1293461176
C   C23       1.0  0.28390  0.62930  0.76880  1.0000 -0.1293461176
C   C24       1.0  0.62930  0.28390  0.73120  1.0000 -0.1293461176
C   C25       1.0  0.60980  0.41180  0.19110  1.0000 -0.1412271375
C   C26       1.0  0.41180  0.60980  0.30890  1.0000 -0.1412271375
C   C27       1.0  0.39020  0.58820  0.80890  1.0000 -0.1412271375
C   C28       1.0  0.58820  0.39020  0.69110  1.0000 -0.1412271375
C   C29       1.0  0.55460  0.45780  0.09350  1.0000 0.1019233165
C   C30       1.0  0.45780  0.55460  0.40650  1.0000 0.1019233165
C   C31       1.0  0.44540  0.54220  0.90650  1.0000 0.1019233165
C   C32       1.0  0.54220  0.44540  0.59350  1.0000 0.1019233165
C   C33       1.0  0.45310  0.46590  0.05910  1.0000 -0.1550047698
C   C34       1.0  0.46590  0.45310  0.44090  1.0000 -0.1550047698
C   C35       1.0  0.54690  0.53410  0.94090  1.0000 -0.1550047698
C   C36       1.0  0.53410  0.54690  0.55910  1.0000 -0.1550047698
C   C37       1.0  0.60020  0.49280  0.03290  1.0000 -0.1412271375
C   C38       1.0  0.49280  0.60020  0.46710  1.0000 -0.1412271375
C   C39       1.0  0.39980  0.50720  0.96710  1.0000 -0.1412271375
C   C40       1.0  0.50720  0.39980  0.53290  1.0000 -0.1412271375
C   C41       1.0  0.81000  0.00900  0.64300  1.0000 0.5340853183
C   C42       1.0  0.00900  0.81000  0.85700  1.0000 0.5340853183
C   C43       1.0  0.19000  0.99100  0.35700  1.0000 0.5340853183
C   C44       1.0  0.99100  0.19000  0.14300  1.0000 0.5340853183
C   C45       1.0  0.75010  0.94610  0.64260  1.0000 -0.0543283058
C   C46       1.0  0.94610  0.75010  0.85740  1.0000 -0.0543283058
C   C47       1.0  0.24990  0.05390  0.35740  1.0000 -0.0543283058
C   C48       1.0  0.05390  0.24990  0.14260  1.0000 -0.0543283058
C   C49       1.0  0.64760  0.99100  0.65300  1.0000 -0.0865663916
C   C50       1.0  0.99100  0.64760  0.84700  1.0000 -0.0865663916
C   C51       1.0  0.35240  0.00900  0.34700  1.0000 -0.0865663916
C   C52       1.0  0.00900  0.35240  0.15300  1.0000 -0.0865663916
C   C53       1.0  0.59010  0.93370  0.65210  1.0000 -0.2236042174
C   C54       1.0  0.93370  0.59010  0.84790  1.0000 -0.2236042174
C   C55       1.0  0.40990  0.06630  0.34790  1.0000 -0.2236042174
C   C56       1.0  0.06630  0.40990  0.15210  1.0000 -0.2236042174
C   C57       1.0  0.63470  0.83330  0.63840  1.0000 0.2529969064
C   C58       1.0  0.83330  0.63470  0.86160  1.0000 0.2529969064
C   C59       1.0  0.36530  0.16670  0.36160  1.0000 0.2529969064
C   C60       1.0  0.16670  0.36530  0.13840  1.0000 0.2529969064
C   C61       1.0  0.73760  0.78740  0.62730  1.0000 -0.2016809324
C   C62       1.0  0.78740  0.73760  0.87270  1.0000 -0.2016809324
C   C63       1.0  0.26240  0.21260  0.37270  1.0000 -0.2016809324
C   C64       1.0  0.21260  0.26240  0.12730  1.0000 -0.2016809324
C   C65       1.0  0.79470  0.84410  0.63020  1.0000 -0.0822395647
C   C66       1.0  0.84410  0.79470  0.86980  1.0000 -0.0822395647
C   C67       1.0  0.20530  0.15590  0.36980  1.0000 -0.0822395647
C   C68       1.0  0.15590  0.20530  0.13020  1.0000 -0.0822395647
C   C69       1.0  0.18050  0.94910  0.70750  1.0000 0.5910129098
C   C70       1.0  0.94910  0.18050  0.79250  1.0000 0.5910129098
C   C71       1.0  0.81950  0.05090  0.29250  1.0000 0.5910129098
C   C72       1.0  0.05090  0.81950  0.20750  1.0000 0.5910129098
C   C73       1.0  0.28630  0.89910  0.68880  1.0000 -0.0543283058
C   C74       1.0  0.89910  0.28630  0.81120  1.0000 -0.0543283058
C   C75       1.0  0.71370  0.10090  0.31120  1.0000 -0.0543283058
C   C76       1.0  0.10090  0.71370  0.18880  1.0000 -0.0543283058
C   C77       1.0  0.38220  0.83460  0.75770  1.0000 -0.0822395647
C   C78       1.0  0.83460  0.38220  0.74230  1.0000 -0.0822395647
C   C79       1.0  0.61780  0.16540  0.24230  1.0000 -0.0822395647
C   C80       1.0  0.16540  0.61780  0.25770  1.0000 -0.0822395647
C   C81       1.0  0.48160  0.79020  0.74060  1.0000 -0.2016809324
C   C82       1.0  0.79020  0.48160  0.75940  1.0000 -0.2016809324
C   C83       1.0  0.51840  0.20980  0.25940  1.0000 -0.2016809324
C   C84       1.0  0.20980  0.51840  0.24060  1.0000 -0.2016809324
C   C85       1.0  0.48190  0.81190  0.65260  1.0000 0.2244771717
C   C86       1.0  0.81190  0.48190  0.84740  1.0000 0.2244771717
C   C87       1.0  0.51810  0.18810  0.34740  1.0000 0.2244771717
C   C88       1.0  0.18810  0.51810  0.15260  1.0000 0.2244771717
C   C89       1.0  0.38840  0.87240  0.58290  1.0000 -0.2016809324
C   C90       1.0  0.87240  0.38840  0.91710  1.0000 -0.2016809324
C   C91       1.0  0.61160  0.12760  0.41710  1.0000 -0.2016809324
C   C92       1.0  0.12760  0.61160  0.08290  1.0000 -0.2016809324
C   C93       1.0  0.29020  0.91680  0.60050  1.0000 -0.0865663916
C   C94       1.0  0.91680  0.29020  0.89950  1.0000 -0.0865663916
C   C95       1.0  0.70980  0.08320  0.39950  1.0000 -0.0865663916
C   C96       1.0  0.08320  0.70980  0.10050  1.0000 -0.0865663916
N   N1        1.0  0.87418  0.19018  0.51120  1.0000 -0.2444824429
N   N2        1.0  0.19018  0.87418  0.98880  1.0000 -0.2451248767
N   N3        1.0  0.12582  0.80982  0.48880  1.0000 -0.2451248767
N   N4        1.0  0.80982  0.12582  0.01120  1.0000 -0.2451248767
O   O1        1.0  0.76304  0.10584  0.64300  1.0000 -0.539653933
O   O2        1.0  0.10584  0.76304  0.85700  1.0000 -0.539653933
O   O3        1.0  0.23696  0.89416  0.35700  1.0000 -0.539653933
O   O4        1.0  0.89416  0.23696  0.14300  1.0000 -0.539653933
O   O5        1.0  0.90838  0.96318  0.64230  1.0000 -0.539653933
O   O6        1.0  0.96318  0.90838  0.85770  1.0000 -0.539653933
O   O7        1.0  0.09162  0.03682  0.35770  1.0000 -0.539653933
O   O8        1.0  0.03682  0.09162  0.14230  1.0000 -0.539653933
O   O9        1.0  0.58249  0.76929  0.63490  1.0000 -0.2444824429
O   O10       1.0  0.76929  0.58249  0.86510  1.0000 -0.2444824429
O   O11       1.0  0.41751  0.23071  0.36510  1.0000 -0.2444824429
O   O12       1.0  0.23071  0.41751  0.13490  1.0000 -0.2444824429
O   O13       1.0  0.18354  0.92354  0.78850  1.0000 -0.539653933
O   O14       1.0  0.92354  0.18354  0.71150  1.0000 -0.539653933
O   O15       1.0  0.81646  0.07646  0.21150  1.0000 -0.534572527
O   O16       1.0  0.07646  0.81646  0.28850  1.0000 -0.539653933
O   O17       1.0  0.09506  0.01406  0.64260  1.0000 -0.534572527
O   O18       1.0  0.01406  0.09506  0.85740  1.0000 -0.539653933
O   O19       1.0  0.90494  0.98594  0.35740  1.0000 -0.539653933
O   O20       1.0  0.98594  0.90494  0.14260  1.0000 -0.534572527
