# DDEC6 charges by PACMAN v1.1 (https://github.com/mtap-research/PACMAN-charge/)
data_2013[Zn][etb]3[FSR]1
_chemical_formula_sum              "Zn6 H108 C138 N6 O36"
_cell_length_a       18.8885
_cell_length_b       18.8885
_cell_length_c       18.8885
_cell_angle_alpha    115.019
_cell_angle_beta     115.019
_cell_angle_gamma    115.019

_symmetry_space_group_name_H-M    "P 1"
_symmetry_Int_Tables_number       1

loop_
  _symmetry_equiv_pos_as_xyz
  'x, y, z'

loop_
  _atom_site_type_symbol
  _atom_site_label
  _atom_site_symmetry_multiplicity
  _atom_site_fract_x
  _atom_site_fract_y
  _atom_site_fract_z
  _atom_site_occupancy
  _atom_site_charge
Zn  Zn1       1.0  0.09540  0.81959  0.49360  1.0000 0.8371776779
Zn  Zn2       1.0  0.81959  0.49360  0.09540  1.0000 0.8371776779
Zn  Zn3       1.0  0.49360  0.09540  0.81959  1.0000 0.8371776779
Zn  Zn4       1.0  0.90460  0.18041  0.50640  1.0000 0.8371776779
Zn  Zn5       1.0  0.18041  0.50640  0.90460  1.0000 0.8371776779
Zn  Zn6       1.0  0.50640  0.90460  0.18041  1.0000 0.8371776779
H   H1        1.0  0.16540  0.02730  0.68160  1.0000 0.1457572966
H   H2        1.0  0.02730  0.68160  0.16540  1.0000 0.1457572966
H   H3        1.0  0.68160  0.16540  0.02730  1.0000 0.1457572966
H   H4        1.0  0.83460  0.97270  0.31840  1.0000 0.1457572966
H   H5        1.0  0.97270  0.31840  0.83460  1.0000 0.1457572966
H   H6        1.0  0.31840  0.83460  0.97270  1.0000 0.1457572966
H   H7        1.0  0.36940  0.21470  0.90970  1.0000 0.1106471756
H   H8        1.0  0.21470  0.90970  0.36940  1.0000 0.1106471756
H   H9        1.0  0.90970  0.36940  0.21470  1.0000 0.1106471756
H   H10       1.0  0.63060  0.78530  0.09030  1.0000 0.1106471756
H   H11       1.0  0.78530  0.09030  0.63060  1.0000 0.1106471756
H   H12       1.0  0.09030  0.63060  0.78530  1.0000 0.1106471756
H   H13       1.0  0.03810  0.18180  0.76900  1.0000 0.1365472812
H   H14       1.0  0.18180  0.76900  0.03810  1.0000 0.1365472812
H   H15       1.0  0.76900  0.03810  0.18180  1.0000 0.1365472812
H   H16       1.0  0.96190  0.81820  0.23100  1.0000 0.1365472812
H   H17       1.0  0.81820  0.23100  0.96190  1.0000 0.1365472812
H   H18       1.0  0.23100  0.96190  0.81820  1.0000 0.1365472812
H   H19       1.0  0.16650  0.34930  0.96000  1.0000 0.1213566819
H   H20       1.0  0.34930  0.96000  0.16650  1.0000 0.1213566819
H   H21       1.0  0.96000  0.16650  0.34930  1.0000 0.1213566819
H   H22       1.0  0.83350  0.65070  0.04000  1.0000 0.1213566819
H   H23       1.0  0.65070  0.04000  0.83350  1.0000 0.1213566819
H   H24       1.0  0.04000  0.83350  0.65070  1.0000 0.1213566819
H   H25       1.0  0.34260  0.42740  0.09790  1.0000 0.1106471756
H   H26       1.0  0.42740  0.09790  0.34260  1.0000 0.1106471756
H   H27       1.0  0.09790  0.34260  0.42740  1.0000 0.1106471756
H   H28       1.0  0.65740  0.57260  0.90210  1.0000 0.1106471756
H   H29       1.0  0.57260  0.90210  0.65740  1.0000 0.1106471756
H   H30       1.0  0.90210  0.65740  0.57260  1.0000 0.1106471756
H   H31       1.0  0.39450  0.34350  0.04470  1.0000 0.1106471756
H   H32       1.0  0.34350  0.04470  0.39450  1.0000 0.1106471756
H   H33       1.0  0.04470  0.39450  0.34350  1.0000 0.1106471756
H   H34       1.0  0.60550  0.65650  0.95530  1.0000 0.1106471756
H   H35       1.0  0.65650  0.95530  0.60550  1.0000 0.1106471756
H   H36       1.0  0.95530  0.60550  0.65650  1.0000 0.1106471756
H   H37       1.0  0.86630  0.87860  0.40190  1.0000 0.1365472812
H   H38       1.0  0.87860  0.40190  0.86630  1.0000 0.1365472812
H   H39       1.0  0.40190  0.86630  0.87860  1.0000 0.1365472812
H   H40       1.0  0.13370  0.12140  0.59810  1.0000 0.1365472812
H   H41       1.0  0.12140  0.59810  0.13370  1.0000 0.1365472812
H   H42       1.0  0.59810  0.13370  0.12140  1.0000 0.1365472812
H   H43       1.0  0.80290  0.73980  0.42800  1.0000 0.1213566819
H   H44       1.0  0.73980  0.42800  0.80290  1.0000 0.1213566819
H   H45       1.0  0.42800  0.80290  0.73980  1.0000 0.1213566819
H   H46       1.0  0.19710  0.26020  0.57200  1.0000 0.1213566819
H   H47       1.0  0.26020  0.57200  0.19710  1.0000 0.1213566819
H   H48       1.0  0.57200  0.19710  0.26020  1.0000 0.1213566819
H   H49       1.0  0.47000  0.61890  0.31120  1.0000 0.1213566819
H   H50       1.0  0.61890  0.31120  0.47000  1.0000 0.1213566819
H   H51       1.0  0.31120  0.47000  0.61890  1.0000 0.1213566819
H   H52       1.0  0.53000  0.38110  0.68880  1.0000 0.1213566819
H   H53       1.0  0.38110  0.68880  0.53000  1.0000 0.1213566819
H   H54       1.0  0.68880  0.53000  0.38110  1.0000 0.1213566819
H   H55       1.0  0.48830  0.75930  0.33940  1.0000 0.1106471756
H   H56       1.0  0.75930  0.33940  0.48830  1.0000 0.1106471756
H   H57       1.0  0.33940  0.48830  0.75930  1.0000 0.1106471756
H   H58       1.0  0.51170  0.24070  0.66060  1.0000 0.1106471756
H   H59       1.0  0.24070  0.66060  0.51170  1.0000 0.1106471756
H   H60       1.0  0.66060  0.51170  0.24070  1.0000 0.1106471756
H   H61       1.0  0.64060  0.90570  0.39320  1.0000 0.1106471756
H   H62       1.0  0.90570  0.39320  0.64060  1.0000 0.1106471756
H   H63       1.0  0.39320  0.64060  0.90570  1.0000 0.1106471756
H   H64       1.0  0.35940  0.09430  0.60680  1.0000 0.1106471756
H   H65       1.0  0.09430  0.60680  0.35940  1.0000 0.1106471756
H   H66       1.0  0.60680  0.35940  0.09430  1.0000 0.1106471756
H   H67       1.0  0.78130  0.91860  0.43190  1.0000 0.1213566819
H   H68       1.0  0.91860  0.43190  0.78130  1.0000 0.1213566819
H   H69       1.0  0.43190  0.78130  0.91860  1.0000 0.1213566819
H   H70       1.0  0.21870  0.08140  0.56810  1.0000 0.1213566819
H   H71       1.0  0.08140  0.56810  0.21870  1.0000 0.1213566819
H   H72       1.0  0.56810  0.21870  0.08140  1.0000 0.1213566819
H   H73       1.0  0.21880  0.79900  0.63270  1.0000 0.1106471756
H   H74       1.0  0.79900  0.63270  0.21880  1.0000 0.1106471756
H   H75       1.0  0.63270  0.21880  0.79900  1.0000 0.1106471756
H   H76       1.0  0.78120  0.20100  0.36730  1.0000 0.1106471756
H   H77       1.0  0.20100  0.36730  0.78120  1.0000 0.1106471756
H   H78       1.0  0.36730  0.78120  0.20100  1.0000 0.1106471756
H   H79       1.0  0.18340  0.67440  0.64360  1.0000 0.128824295
H   H80       1.0  0.67440  0.64360  0.18340  1.0000 0.128824295
H   H81       1.0  0.64360  0.18340  0.67440  1.0000 0.128824295
H   H82       1.0  0.81660  0.32560  0.35640  1.0000 0.128824295
H   H83       1.0  0.32560  0.35640  0.81660  1.0000 0.128824295
H   H84       1.0  0.35640  0.81660  0.32560  1.0000 0.128824295
H   H85       1.0  0.85250  0.43920  0.34630  1.0000 0.128824295
H   H86       1.0  0.43920  0.34630  0.85250  1.0000 0.128824295
H   H87       1.0  0.34630  0.85250  0.43920  1.0000 0.128824295
H   H88       1.0  0.14750  0.56080  0.65370  1.0000 0.128824295
H   H89       1.0  0.56080  0.65370  0.14750  1.0000 0.128824295
H   H90       1.0  0.65370  0.14750  0.56080  1.0000 0.128824295
H   H91       1.0  0.89740  0.57120  0.34520  1.0000 0.1213566819
H   H92       1.0  0.57120  0.34520  0.89740  1.0000 0.1213566819
H   H93       1.0  0.34520  0.89740  0.57120  1.0000 0.1213566819
H   H94       1.0  0.10260  0.42880  0.65480  1.0000 0.1213566819
H   H95       1.0  0.42880  0.65480  0.10260  1.0000 0.1213566819
H   H96       1.0  0.65480  0.10260  0.42880  1.0000 0.1213566819
H   H97       1.0  0.02710  0.06670  0.63980  1.0000 0.3493691225
H   H98       1.0  0.06670  0.63980  0.02710  1.0000 0.3493691225
H   H99       1.0  0.63980  0.02710  0.06670  1.0000 0.3493691225
H   H100      1.0  0.97290  0.93330  0.36020  1.0000 0.3493691225
H   H101      1.0  0.93330  0.36020  0.97290  1.0000 0.3493691225
H   H102      1.0  0.36020  0.97290  0.93330  1.0000 0.3493691225
H   H103      1.0  0.55360  0.55970  0.32640  1.0000 0.3420216877
H   H104      1.0  0.55970  0.32640  0.55360  1.0000 0.3420216877
H   H105      1.0  0.32640  0.55360  0.55970  1.0000 0.3420216877
H   H106      1.0  0.44640  0.44030  0.67360  1.0000 0.3420216877
H   H107      1.0  0.44030  0.67360  0.44640  1.0000 0.3420216877
H   H108      1.0  0.67360  0.44640  0.44030  1.0000 0.3420216877
C   C1        1.0  0.30653  0.05559  0.73988  1.0000 0.6203656037
C   C2        1.0  0.05559  0.73988  0.30653  1.0000 0.6203656037
C   C3        1.0  0.73988  0.30653  0.05559  1.0000 0.6203656037
C   C4        1.0  0.69347  0.94441  0.26012  1.0000 0.6203656037
C   C5        1.0  0.94441  0.26012  0.69347  1.0000 0.6203656037
C   C6        1.0  0.26012  0.69347  0.94441  1.0000 0.6203656037
C   C7        1.0  0.24251  0.07816  0.74743  1.0000 -0.2663127145
C   C8        1.0  0.07816  0.74743  0.24251  1.0000 -0.2663127145
C   C9        1.0  0.74743  0.24251  0.07816  1.0000 -0.2663127145
C   C10       1.0  0.75749  0.92184  0.25257  1.0000 -0.2663127145
C   C11       1.0  0.92184  0.25257  0.75749  1.0000 -0.2663127145
C   C12       1.0  0.25257  0.75749  0.92184  1.0000 -0.2663127145
C   C13       1.0  0.29351  0.16973  0.84666  1.0000 -0.0810956295
C   C14       1.0  0.16973  0.84666  0.29351  1.0000 -0.0810956295
C   C15       1.0  0.84666  0.29351  0.16973  1.0000 -0.0810956295
C   C16       1.0  0.70649  0.83027  0.15334  1.0000 -0.0810956295
C   C17       1.0  0.83027  0.15334  0.70649  1.0000 -0.0810956295
C   C18       1.0  0.15334  0.70649  0.83027  1.0000 -0.0810956295
C   C19       1.0  0.24911  0.21092  0.87237  1.0000 -0.0125285109
C   C20       1.0  0.21092  0.87237  0.24911  1.0000 -0.0125285109
C   C21       1.0  0.87237  0.24911  0.21092  1.0000 -0.0125285109
C   C22       1.0  0.75089  0.78908  0.12763  1.0000 -0.0125285109
C   C23       1.0  0.78908  0.12763  0.75089  1.0000 -0.0125285109
C   C24       1.0  0.12763  0.75089  0.78908  1.0000 -0.0125285109
C   C25       1.0  0.14135  0.16311  0.79154  1.0000 0.2563548226
C   C26       1.0  0.16311  0.79154  0.14135  1.0000 0.2563548226
C   C27       1.0  0.79154  0.14135  0.16311  1.0000 0.2563548226
C   C28       1.0  0.85865  0.83689  0.20846  1.0000 0.2563548226
C   C29       1.0  0.83689  0.20846  0.85865  1.0000 0.2563548226
C   C30       1.0  0.20846  0.85865  0.83689  1.0000 0.2563548226
C   C31       1.0  0.11023  0.21447  0.82410  1.0000 -0.2322317472
C   C32       1.0  0.21447  0.82410  0.11023  1.0000 -0.2322317472
C   C33       1.0  0.82410  0.11023  0.21447  1.0000 -0.2322317472
C   C34       1.0  0.88977  0.78553  0.17590  1.0000 -0.2322317472
C   C35       1.0  0.78553  0.17590  0.88977  1.0000 -0.2322317472
C   C36       1.0  0.17590  0.88977  0.78553  1.0000 -0.2322317472
C   C37       1.0  0.18693  0.31440  0.93877  1.0000 -0.0636534962
C   C38       1.0  0.31440  0.93877  0.18693  1.0000 -0.0636534962
C   C39       1.0  0.93877  0.18693  0.31440  1.0000 -0.0636534962
C   C40       1.0  0.81307  0.68560  0.06123  1.0000 -0.0636534962
C   C41       1.0  0.68560  0.06123  0.81307  1.0000 -0.0636534962
C   C42       1.0  0.06123  0.81307  0.68560  1.0000 -0.0636534962
C   C43       1.0  0.29210  0.36170  0.02090  1.0000 -0.1281298783
C   C44       1.0  0.36170  0.02090  0.29210  1.0000 -0.1281298783
C   C45       1.0  0.02090  0.29210  0.36170  1.0000 -0.1281298783
C   C46       1.0  0.70790  0.63830  0.97910  1.0000 -0.1281298783
C   C47       1.0  0.63830  0.97910  0.70790  1.0000 -0.1281298783
C   C48       1.0  0.97910  0.70790  0.63830  1.0000 -0.1281298783
C   C49       1.0  0.32281  0.31083  0.98826  1.0000 -0.1455012223
C   C50       1.0  0.31083  0.98826  0.32281  1.0000 -0.1455012223
C   C51       1.0  0.98826  0.32281  0.31083  1.0000 -0.1455012223
C   C52       1.0  0.67719  0.68917  0.01174  1.0000 -0.1455012223
C   C53       1.0  0.68917  0.01174  0.67719  1.0000 -0.1455012223
C   C54       1.0  0.01174  0.67719  0.68917  1.0000 -0.1455012223
C   C55       1.0  0.96060  0.84588  0.44202  1.0000 0.5977123617
C   C56       1.0  0.84588  0.44202  0.96060  1.0000 0.5977123617
C   C57       1.0  0.44202  0.96060  0.84588  1.0000 0.5977123617
C   C58       1.0  0.03940  0.15412  0.55798  1.0000 0.5977123617
C   C59       1.0  0.15412  0.55798  0.03940  1.0000 0.5977123617
C   C60       1.0  0.55798  0.03940  0.15412  1.0000 0.5977123617
C   C61       1.0  0.87149  0.83912  0.41699  1.0000 -0.2501853666
C   C62       1.0  0.83912  0.41699  0.87149  1.0000 -0.2501853666
C   C63       1.0  0.41699  0.87149  0.83912  1.0000 -0.2501853666
C   C64       1.0  0.12851  0.16088  0.58301  1.0000 -0.2501853666
C   C65       1.0  0.16088  0.58301  0.12851  1.0000 -0.2501853666
C   C66       1.0  0.58301  0.12851  0.16088  1.0000 -0.2501853666
C   C67       1.0  0.79836  0.78039  0.41445  1.0000 -0.0810956295
C   C68       1.0  0.78039  0.41445  0.79836  1.0000 -0.0810956295
C   C69       1.0  0.41445  0.79836  0.78039  1.0000 -0.0810956295
C   C70       1.0  0.20164  0.21961  0.58555  1.0000 -0.0810956295
C   C71       1.0  0.21961  0.58555  0.20164  1.0000 -0.0810956295
C   C72       1.0  0.58555  0.20164  0.21961  1.0000 -0.0810956295
C   C73       1.0  0.71048  0.77434  0.39198  1.0000 0.0019977562
C   C74       1.0  0.77434  0.39198  0.71048  1.0000 0.0019977562
C   C75       1.0  0.39198  0.71048  0.77434  1.0000 0.0019977562
C   C76       1.0  0.28952  0.22566  0.60802  1.0000 0.0019977562
C   C77       1.0  0.22566  0.60802  0.28952  1.0000 0.0019977562
C   C78       1.0  0.60802  0.28952  0.22566  1.0000 0.0019977562
C   C79       1.0  0.61563  0.68443  0.35594  1.0000 0.2502788145
C   C80       1.0  0.68443  0.35594  0.61563  1.0000 0.2502788145
C   C81       1.0  0.35594  0.61563  0.68443  1.0000 0.2502788145
C   C82       1.0  0.38437  0.31557  0.64406  1.0000 0.2502788145
C   C83       1.0  0.31557  0.64406  0.38437  1.0000 0.2502788145
C   C84       1.0  0.64406  0.38437  0.31557  1.0000 0.2502788145
C   C85       1.0  0.53273  0.67908  0.33559  1.0000 -0.2501853666
C   C86       1.0  0.67908  0.33559  0.53273  1.0000 -0.2501853666
C   C87       1.0  0.33559  0.53273  0.67908  1.0000 -0.2501853666
C   C88       1.0  0.46727  0.32092  0.66441  1.0000 -0.2501853666
C   C89       1.0  0.32092  0.66441  0.46727  1.0000 -0.2501853666
C   C90       1.0  0.66441  0.46727  0.32092  1.0000 -0.2501853666
C   C91       1.0  0.54323  0.76249  0.35148  1.0000 -0.0747948374
C   C92       1.0  0.76249  0.35148  0.54323  1.0000 -0.0747948374
C   C93       1.0  0.35148  0.54323  0.76249  1.0000 -0.0747948374
C   C94       1.0  0.45677  0.23751  0.64852  1.0000 -0.0747948374
C   C95       1.0  0.23751  0.64852  0.45677  1.0000 -0.0747948374
C   C96       1.0  0.64852  0.45677  0.23751  1.0000 -0.0747948374
C   C97       1.0  0.63512  0.85103  0.38525  1.0000 -0.1281298783
C   C98       1.0  0.85103  0.38525  0.63512  1.0000 -0.1281298783
C   C99       1.0  0.38525  0.63512  0.85103  1.0000 -0.1281298783
C   C100      1.0  0.36488  0.14897  0.61475  1.0000 -0.1281298783
C   C101      1.0  0.14897  0.61475  0.36488  1.0000 -0.1281298783
C   C102      1.0  0.61475  0.36488  0.14897  1.0000 -0.1281298783
C   C103      1.0  0.71863  0.85770  0.40697  1.0000 -0.1150238599
C   C104      1.0  0.85770  0.40697  0.71863  1.0000 -0.1150238599
C   C105      1.0  0.40697  0.71863  0.85770  1.0000 -0.1150238599
C   C106      1.0  0.28137  0.14230  0.59303  1.0000 -0.1150238599
C   C107      1.0  0.14230  0.59303  0.28137  1.0000 -0.1150238599
C   C108      1.0  0.59303  0.28137  0.14230  1.0000 -0.1150238599
C   C109      1.0  0.14405  0.72588  0.57477  1.0000 0.0901973944
C   C110      1.0  0.72588  0.57477  0.14405  1.0000 0.0901973944
C   C111      1.0  0.57477  0.14405  0.72588  1.0000 0.0901973944
C   C112      1.0  0.85595  0.27412  0.42523  1.0000 0.0901973944
C   C113      1.0  0.27412  0.42523  0.85595  1.0000 0.0901973944
C   C114      1.0  0.42523  0.85595  0.27412  1.0000 0.0901973944
C   C115      1.0  0.12322  0.65096  0.58172  1.0000 -0.1854914661
C   C116      1.0  0.65096  0.58172  0.12322  1.0000 -0.1854914661
C   C117      1.0  0.58172  0.12322  0.65096  1.0000 -0.1854914661
C   C118      1.0  0.87678  0.34904  0.41828  1.0000 -0.1854914661
C   C119      1.0  0.34904  0.41828  0.87678  1.0000 -0.1854914661
C   C120      1.0  0.41828  0.87678  0.34904  1.0000 -0.1854914661
C   C121      1.0  0.01299  0.54092  0.49689  1.0000 0.1106471756
C   C122      1.0  0.54092  0.49689  0.01299  1.0000 0.1106471756
C   C123      1.0  0.49689  0.01299  0.54092  1.0000 0.1106471756
C   C124      1.0  0.98701  0.45908  0.50311  1.0000 0.1106471756
C   C125      1.0  0.45908  0.50311  0.98701  1.0000 0.1106471756
C   C126      1.0  0.50311  0.98701  0.45908  1.0000 0.1106471756
C   C127      1.0  0.92789  0.51227  0.40634  1.0000 -0.1854914661
C   C128      1.0  0.51227  0.40634  0.92789  1.0000 -0.1854914661
C   C129      1.0  0.40634  0.92789  0.51227  1.0000 -0.1854914661
C   C130      1.0  0.07211  0.48773  0.59366  1.0000 -0.1854914661
C   C131      1.0  0.48773  0.59366  0.07211  1.0000 -0.1854914661
C   C132      1.0  0.59366  0.07211  0.48773  1.0000 -0.1854914661
C   C133      1.0  0.95554  0.59205  0.40601  1.0000 0.0901973944
C   C134      1.0  0.59205  0.40601  0.95554  1.0000 0.0901973944
C   C135      1.0  0.40601  0.95554  0.59205  1.0000 0.0901973944
C   C136      1.0  0.04446  0.40795  0.59399  1.0000 0.0901973944
C   C137      1.0  0.40795  0.59399  0.04446  1.0000 0.0901973944
C   C138      1.0  0.59399  0.04446  0.40795  1.0000 0.0901973944
N   N1        1.0  0.06244  0.69862  0.48924  1.0000 -0.2501853666
N   N2        1.0  0.69862  0.48924  0.06244  1.0000 -0.2501853666
N   N3        1.0  0.48924  0.06244  0.69862  1.0000 -0.2501853666
N   N4        1.0  0.93756  0.30138  0.51076  1.0000 -0.2501853666
N   N5        1.0  0.30138  0.51076  0.93756  1.0000 -0.2501853666
N   N6        1.0  0.51076  0.93756  0.30138  1.0000 -0.2501853666
O   O1        1.0  0.41441  0.13494  0.82415  1.0000 -0.5142360092
O   O2        1.0  0.13494  0.82415  0.41441  1.0000 -0.5142360092
O   O3        1.0  0.82415  0.41441  0.13494  1.0000 -0.5142360092
O   O4        1.0  0.58559  0.86506  0.17585  1.0000 -0.5142360092
O   O5        1.0  0.86506  0.17585  0.58559  1.0000 -0.5142360092
O   O6        1.0  0.17585  0.58559  0.86506  1.0000 -0.5142360092
O   O7        1.0  0.25392  0.95924  0.65094  1.0000 -0.5619854491
O   O8        1.0  0.95924  0.65094  0.25392  1.0000 -0.5619854491
O   O9        1.0  0.65094  0.25392  0.95924  1.0000 -0.5619854491
O   O10       1.0  0.74608  0.04076  0.34906  1.0000 -0.5619854491
O   O11       1.0  0.04076  0.34906  0.74608  1.0000 -0.5619854491
O   O12       1.0  0.34906  0.74608  0.04076  1.0000 -0.5619854491
O   O13       1.0  0.97065  0.79400  0.46495  1.0000 -0.5521270991
O   O14       1.0  0.79400  0.46495  0.97065  1.0000 -0.5521270991
O   O15       1.0  0.46495  0.97065  0.79400  1.0000 -0.5521270991
O   O16       1.0  0.02935  0.20600  0.53505  1.0000 -0.5521270991
O   O17       1.0  0.20600  0.53505  0.02935  1.0000 -0.5521270991
O   O18       1.0  0.53505  0.02935  0.20600  1.0000 -0.5521270991
O   O19       1.0  0.02352  0.90091  0.43897  1.0000 -0.5521270991
O   O20       1.0  0.90091  0.43897  0.02352  1.0000 -0.5521270991
O   O21       1.0  0.43897  0.02352  0.90091  1.0000 -0.5521270991
O   O22       1.0  0.97648  0.09909  0.56103  1.0000 -0.5521270991
O   O23       1.0  0.09909  0.56103  0.97648  1.0000 -0.5521270991
O   O24       1.0  0.56103  0.97648  0.09909  1.0000 -0.5521270991
O   O25       1.0  0.06749  0.06677  0.68034  1.0000 -0.4163580846
O   O26       1.0  0.06677  0.68034  0.06749  1.0000 -0.4163580846
O   O27       1.0  0.68034  0.06749  0.06677  1.0000 -0.4163580846
O   O28       1.0  0.93251  0.93323  0.31966  1.0000 -0.4163580846
O   O29       1.0  0.93323  0.31966  0.93251  1.0000 -0.4163580846
O   O30       1.0  0.31966  0.93251  0.93323  1.0000 -0.4163580846
O   O31       1.0  0.60845  0.60447  0.34168  1.0000 -0.4466165464
O   O32       1.0  0.60447  0.34168  0.60845  1.0000 -0.4466165464
O   O33       1.0  0.34168  0.60845  0.60447  1.0000 -0.4466165464
O   O34       1.0  0.39155  0.39553  0.65832  1.0000 -0.4466165464
O   O35       1.0  0.39553  0.65832  0.39155  1.0000 -0.4466165464
O   O36       1.0  0.65832  0.39155  0.39553  1.0000 -0.4466165464
