# DDEC6 charges by PACMAN v1.1 (https://github.com/mtap-research/PACMAN-charge/)
data_2013[Cu][cds]3[FSR]1
_chemical_formula_sum              "Cu4 H104 C128 N16 O40"
_cell_length_a       17.8374
_cell_length_b       17.8374
_cell_length_c       17.8374
_cell_angle_alpha    129.264
_cell_angle_beta     124.074
_cell_angle_gamma    78.8626

_symmetry_space_group_name_H-M    "P 1"
_symmetry_Int_Tables_number       1

loop_
  _symmetry_equiv_pos_as_xyz
  'x, y, z'

loop_
  _atom_site_type_symbol
  _atom_site_label
  _atom_site_symmetry_multiplicity
  _atom_site_fract_x
  _atom_site_fract_y
  _atom_site_fract_z
  _atom_site_occupancy
  _atom_site_charge
Cu  Cu1       1.0  0.50000  0.00000  0.00000  1.0000 0.7436567785
Cu  Cu2       1.0  0.50000  0.50000  0.50000  1.0000 0.7436567785
Cu  Cu3       1.0  0.00000  0.50000  0.00000  1.0000 0.7436567785
Cu  Cu4       1.0  0.00000  0.00000  0.50000  1.0000 0.7436567785
H   H1        1.0  0.69440  0.10710  0.21750  1.0000 0.1079379429
H   H2        1.0  0.38960  0.47690  0.28250  1.0000 0.1079379429
H   H3        1.0  0.30560  0.89290  0.78250  1.0000 0.1079379429
H   H4        1.0  0.61040  0.52310  0.71750  1.0000 0.1079379429
H   H5        1.0  0.84610  0.08470  0.28360  1.0000 0.1490701043
H   H6        1.0  0.30110  0.56250  0.21640  1.0000 0.1490701043
H   H7        1.0  0.15390  0.91530  0.71640  1.0000 0.1490701043
H   H8        1.0  0.69890  0.43750  0.78360  1.0000 0.1490701043
H   H9        1.0  0.74060  0.81670  0.95570  1.0000 0.1411713303
H   H10       1.0  0.36100  0.78490  0.54430  1.0000 0.1411713303
H   H11       1.0  0.25940  0.18330  0.04430  1.0000 0.1411713303
H   H12       1.0  0.63900  0.21510  0.45570  1.0000 0.1411713303
H   H13       1.0  0.59180  0.84580  0.89960  1.0000 0.099340772
H   H14       1.0  0.44620  0.69220  0.60040  1.0000 0.099340772
H   H15       1.0  0.40820  0.15420  0.10040  1.0000 0.099340772
H   H16       1.0  0.55380  0.30780  0.39960  1.0000 0.099340772
H   H17       1.0  0.94990  0.98020  0.25190  1.0000 0.1212242634
H   H18       1.0  0.22830  0.69800  0.24810  1.0000 0.1212242634
H   H19       1.0  0.05010  0.01980  0.74810  1.0000 0.1212242634
H   H20       1.0  0.77170  0.30200  0.75190  1.0000 0.1212242634
H   H21       1.0  0.90650  0.86460  0.13430  1.0000 0.1212242634
H   H22       1.0  0.23030  0.77220  0.36570  1.0000 0.1212242634
H   H23       1.0  0.09350  0.13540  0.86570  1.0000 0.1212242634
H   H24       1.0  0.76970  0.22780  0.63430  1.0000 0.1212242634
H   H25       1.0  0.94630  0.82540  0.83270  1.0000 0.1490701043
H   H26       1.0  0.49270  0.11360  0.66730  1.0000 0.1490701043
H   H27       1.0  0.05370  0.17460  0.16730  1.0000 0.1490701043
H   H28       1.0  0.50730  0.88640  0.33270  1.0000 0.1490701043
H   H29       1.0  0.31900  0.74880  0.86620  1.0000 0.1212242634
H   H30       1.0  0.38260  0.45280  0.63380  1.0000 0.1212242634
H   H31       1.0  0.68100  0.25120  0.13380  1.0000 0.1212242634
H   H32       1.0  0.61740  0.54720  0.36620  1.0000 0.1212242634
H   H33       1.0  0.26040  0.60100  0.80680  1.0000 0.1079379429
H   H34       1.0  0.29420  0.45360  0.69320  1.0000 0.1079379429
H   H35       1.0  0.73960  0.39900  0.19320  1.0000 0.1079379429
H   H36       1.0  0.70580  0.54640  0.30680  1.0000 0.1079379429
H   H37       1.0  0.55240  0.10230  0.21930  1.0000 0.3195999281
H   H38       1.0  0.38300  0.33310  0.28070  1.0000 0.3195999281
H   H39       1.0  0.44760  0.89770  0.78070  1.0000 0.3195999281
H   H40       1.0  0.61700  0.66690  0.71930  1.0000 0.3195999281
H   H41       1.0  0.42170  0.96220  0.10690  1.0000 0.1212242634
H   H42       1.0  0.35530  0.31480  0.39310  1.0000 0.1212242634
H   H43       1.0  0.57830  0.03780  0.89310  1.0000 0.1212242634
H   H44       1.0  0.64470  0.68520  0.60690  1.0000 0.1212242634
H   H45       1.0  0.44390  0.07930  0.21160  1.0000 0.099340772
H   H46       1.0  0.36770  0.23230  0.28840  1.0000 0.099340772
H   H47       1.0  0.55610  0.92070  0.78840  1.0000 0.099340772
H   H48       1.0  0.63230  0.76770  0.71160  1.0000 0.099340772
H   H49       1.0  0.50150  0.01080  0.24170  1.0000 0.1212242634
H   H50       1.0  0.26910  0.25980  0.25830  1.0000 0.1212242634
H   H51       1.0  0.49850  0.98920  0.75830  1.0000 0.1212242634
H   H52       1.0  0.73090  0.74020  0.74170  1.0000 0.1212242634
H   H53       1.0  0.11040  0.39290  0.08730  1.0000 0.1079379429
H   H54       1.0  0.80560  0.02310  0.41270  1.0000 0.1079379429
H   H55       1.0  0.88960  0.60710  0.91270  1.0000 0.1079379429
H   H56       1.0  0.19440  0.97690  0.58730  1.0000 0.1079379429
H   H57       1.0  0.19890  0.41530  0.26140  1.0000 0.1490701043
H   H58       1.0  0.65390  0.93750  0.23860  1.0000 0.1490701043
H   H59       1.0  0.80110  0.58470  0.73860  1.0000 0.1490701043
H   H60       1.0  0.34610  0.06250  0.76140  1.0000 0.1490701043
H   H61       1.0  0.13900  0.68330  0.42390  1.0000 0.1411713303
H   H62       1.0  0.75940  0.71510  0.07610  1.0000 0.1411713303
H   H63       1.0  0.86100  0.31670  0.57610  1.0000 0.1411713303
H   H64       1.0  0.24060  0.28490  0.92390  1.0000 0.1411713303
H   H65       1.0  0.05380  0.65420  0.24600  1.0000 0.099340772
H   H66       1.0  0.90820  0.80780  0.25400  1.0000 0.099340772
H   H67       1.0  0.94620  0.34580  0.75400  1.0000 0.099340772
H   H68       1.0  0.09180  0.19220  0.74600  1.0000 0.099340772
H   H69       1.0  0.27170  0.51980  0.46970  1.0000 0.1212242634
H   H70       1.0  0.55010  0.80200  0.03030  1.0000 0.1212242634
H   H71       1.0  0.72830  0.48020  0.53030  1.0000 0.1212242634
H   H72       1.0  0.44990  0.19800  0.96970  1.0000 0.1212242634
H   H73       1.0  0.26970  0.63540  0.54190  1.0000 0.1212242634
H   H74       1.0  0.59350  0.72780  0.95810  1.0000 0.1212242634
H   H75       1.0  0.73030  0.36460  0.45810  1.0000 0.1212242634
H   H76       1.0  0.40650  0.27220  0.04190  1.0000 0.1212242634
H   H77       1.0  0.00730  0.67460  0.62090  1.0000 0.1490701043
H   H78       1.0  0.55370  0.38640  0.87910  1.0000 0.1490701043
H   H79       1.0  0.99270  0.32540  0.37910  1.0000 0.1490701043
H   H80       1.0  0.44630  0.61360  0.12090  1.0000 0.1490701043
H   H81       1.0  0.11740  0.75120  0.07020  1.0000 0.1212242634
H   H82       1.0  0.18100  0.04720  0.42980  1.0000 0.1212242634
H   H83       1.0  0.88260  0.24880  0.92980  1.0000 0.1212242634
H   H84       1.0  0.81900  0.95280  0.57020  1.0000 0.1212242634
H   H85       1.0  0.20580  0.89900  0.15940  1.0000 0.1079379429
H   H86       1.0  0.23960  0.04640  0.34060  1.0000 0.1079379429
H   H87       1.0  0.79420  0.10100  0.84060  1.0000 0.1079379429
H   H88       1.0  0.76040  0.95360  0.65940  1.0000 0.1079379429
H   H89       1.0  0.11700  0.39770  0.95010  1.0000 0.3195999281
H   H90       1.0  0.94760  0.16690  0.54990  1.0000 0.3195999281
H   H91       1.0  0.88300  0.60230  0.04990  1.0000 0.3195999281
H   H92       1.0  0.05240  0.83310  0.45010  1.0000 0.3195999281
H   H93       1.0  0.14470  0.53780  0.95950  1.0000 0.1212242634
H   H94       1.0  0.07830  0.18520  0.54050  1.0000 0.1212242634
H   H95       1.0  0.85530  0.46220  0.04050  1.0000 0.1212242634
H   H96       1.0  0.92170  0.81480  0.45950  1.0000 0.1212242634
H   H97       1.0  0.13230  0.42070  0.86460  1.0000 0.099340772
H   H98       1.0  0.05610  0.26770  0.63540  1.0000 0.099340772
H   H99       1.0  0.86770  0.57930  0.13540  1.0000 0.099340772
H   H100      1.0  0.94390  0.73230  0.36460  1.0000 0.099340772
H   H101      1.0  0.23090  0.48920  0.99070  1.0000 0.1212242634
H   H102      1.0  0.99850  0.24020  0.50930  1.0000 0.1212242634
H   H103      1.0  0.76910  0.51080  0.00930  1.0000 0.1212242634
H   H104      1.0  0.00150  0.75980  0.49070  1.0000 0.1212242634
C   C1        1.0  0.70409  0.04739  0.16390  1.0000 0.089503153
C   C2        1.0  0.38349  0.54019  0.33610  1.0000 0.089503153
C   C3        1.0  0.29591  0.95261  0.83610  1.0000 0.089503153
C   C4        1.0  0.61651  0.45981  0.66390  1.0000 0.089503153
C   C5        1.0  0.79506  0.03496  0.20390  1.0000 -0.1779777317
C   C6        1.0  0.33106  0.59116  0.29610  1.0000 -0.1779777317
C   C7        1.0  0.20494  0.96504  0.79610  1.0000 -0.1779777317
C   C8        1.0  0.66894  0.40884  0.70390  1.0000 -0.1779777317
C   C9        1.0  0.80927  0.94927  0.12560  1.0000 0.1490701043
C   C10       1.0  0.32367  0.68367  0.37440  1.0000 0.1490701043
C   C11       1.0  0.19073  0.05073  0.87440  1.0000 0.1490701043
C   C12       1.0  0.67633  0.31633  0.62560  1.0000 0.1490701043
C   C13       1.0  0.73280  0.87720  0.01100  1.0000 -0.1956295132
C   C14       1.0  0.36620  0.72180  0.48900  1.0000 -0.1956295132
C   C15       1.0  0.26720  0.12280  0.98900  1.0000 -0.1956295132
C   C16       1.0  0.63380  0.27820  0.51100  1.0000 -0.1956295132
C   C17       1.0  0.64417  0.89507  0.97830  1.0000 0.089503153
C   C18       1.0  0.41677  0.66587  0.52170  1.0000 0.089503153
C   C19       1.0  0.35583  0.10493  0.02170  1.0000 0.089503153
C   C20       1.0  0.58323  0.33413  0.47830  1.0000 0.089503153
C   C21       1.0  0.90716  0.93406  0.16430  1.0000 -0.147510147
C   C22       1.0  0.26976  0.74286  0.33570  1.0000 -0.147510147
C   C23       1.0  0.09284  0.06594  0.83570  1.0000 -0.147510147
C   C24       1.0  0.73024  0.25714  0.66430  1.0000 -0.147510147
C   C25       1.0  0.92871  0.87951  0.00940  1.0000 0.4273144004
C   C26       1.0  0.37011  0.91931  0.49060  1.0000 0.4273144004
C   C27       1.0  0.07129  0.12049  0.99060  1.0000 0.4273144004
C   C28       1.0  0.62989  0.08069  0.50940  1.0000 0.4273144004
C   C29       1.0  0.96549  0.93359  0.99310  1.0000 -0.0512122299
C   C30       1.0  0.44049  0.97239  0.50690  1.0000 -0.0512122299
C   C31       1.0  0.03451  0.06641  0.00690  1.0000 -0.0512122299
C   C32       1.0  0.55951  0.02761  0.49310  1.0000 -0.0512122299
C   C33       1.0  0.99605  0.03455  0.09090  1.0000 -0.0512122299
C   C34       1.0  0.44365  0.90515  0.40910  1.0000 -0.0512122299
C   C35       1.0  0.00395  0.96545  0.90910  1.0000 -0.0512122299
C   C36       1.0  0.55635  0.09485  0.59090  1.0000 -0.0512122299
C   C37       1.0  0.98033  0.04763  0.17170  1.0000 0.4273144004
C   C38       1.0  0.37593  0.80863  0.32830  1.0000 0.4273144004
C   C39       1.0  0.01967  0.95237  0.82830  1.0000 0.4273144004
C   C40       1.0  0.62407  0.19137  0.67170  1.0000 0.4273144004
C   C41       1.0  0.96771  0.89481  0.89910  1.0000 -0.0776629283
C   C42       1.0  0.49571  0.06861  0.60090  1.0000 -0.0776629283
C   C43       1.0  0.03229  0.10519  0.10090  1.0000 -0.0776629283
C   C44       1.0  0.50429  0.93139  0.39910  1.0000 -0.0776629283
C   C45       1.0  0.41507  0.78237  0.81490  1.0000 0.562591681
C   C46       1.0  0.46747  0.60017  0.68510  1.0000 0.562591681
C   C47       1.0  0.58493  0.21763  0.18510  1.0000 0.562591681
C   C48       1.0  0.53253  0.39983  0.31490  1.0000 0.562591681
C   C49       1.0  0.38521  0.68981  0.78460  1.0000 -0.0512122299
C   C50       1.0  0.40521  0.60061  0.71540  1.0000 -0.0512122299
C   C51       1.0  0.61479  0.31019  0.21540  1.0000 -0.0512122299
C   C52       1.0  0.59479  0.39939  0.28460  1.0000 -0.0512122299
C   C53       1.0  0.33206  0.68856  0.81850  1.0000 -0.1003729536
C   C54       1.0  0.37006  0.51356  0.68150  1.0000 -0.1003729536
C   C55       1.0  0.66794  0.31144  0.18150  1.0000 -0.1003729536
C   C56       1.0  0.62994  0.48644  0.31850  1.0000 -0.1003729536
C   C57       1.0  0.29740  0.60060  0.78380  1.0000 -0.1003729536
C   C58       1.0  0.31680  0.51360  0.71620  1.0000 -0.1003729536
C   C59       1.0  0.70260  0.39940  0.21620  1.0000 -0.1003729536
C   C60       1.0  0.68320  0.48640  0.28380  1.0000 -0.1003729536
C   C61       1.0  0.47110  0.02190  0.18480  1.0000 -0.1639727115
C   C62       1.0  0.33710  0.28630  0.31520  1.0000 -0.1639727115
C   C63       1.0  0.52890  0.97810  0.81520  1.0000 -0.1639727115
C   C64       1.0  0.66290  0.71370  0.68480  1.0000 -0.1639727115
C   C65       1.0  0.11651  0.45261  0.15670  1.0000 0.089503153
C   C66       1.0  0.79591  0.95981  0.34330  1.0000 0.089503153
C   C67       1.0  0.88349  0.54739  0.84330  1.0000 0.089503153
C   C68       1.0  0.20409  0.04019  0.65670  1.0000 0.089503153
C   C69       1.0  0.16894  0.46504  0.26010  1.0000 -0.1779777317
C   C70       1.0  0.70494  0.90884  0.23990  1.0000 -0.1779777317
C   C71       1.0  0.83106  0.53496  0.73990  1.0000 -0.1779777317
C   C72       1.0  0.29506  0.09116  0.76010  1.0000 -0.1779777317
C   C73       1.0  0.17633  0.55073  0.36000  1.0000 0.1490701043
C   C74       1.0  0.69073  0.81633  0.14000  1.0000 0.1490701043
C   C75       1.0  0.82367  0.44927  0.64000  1.0000 0.1490701043
C   C76       1.0  0.30927  0.18367  0.86000  1.0000 0.1490701043
C   C77       1.0  0.13380  0.62280  0.35560  1.0000 -0.1956295132
C   C78       1.0  0.76720  0.77820  0.14440  1.0000 -0.1956295132
C   C79       1.0  0.86620  0.37720  0.64440  1.0000 -0.1956295132
C   C80       1.0  0.23280  0.22180  0.85560  1.0000 -0.1956295132
C   C81       1.0  0.08323  0.60493  0.24910  1.0000 0.089503153
C   C82       1.0  0.85583  0.83413  0.25090  1.0000 0.089503153
C   C83       1.0  0.91677  0.39507  0.75090  1.0000 0.089503153
C   C84       1.0  0.14417  0.16587  0.74910  1.0000 0.089503153
C   C85       1.0  0.23024  0.56594  0.47310  1.0000 -0.147510147
C   C86       1.0  0.59284  0.75714  0.02690  1.0000 -0.147510147
C   C87       1.0  0.76976  0.43406  0.52690  1.0000 -0.147510147
C   C88       1.0  0.40716  0.24286  0.97310  1.0000 -0.147510147
C   C89       1.0  0.12989  0.62049  0.54920  1.0000 0.4273144004
C   C90       1.0  0.57129  0.58069  0.95080  1.0000 0.4273144004
C   C91       1.0  0.87011  0.37951  0.45080  1.0000 0.4273144004
C   C92       1.0  0.42871  0.41931  0.04920  1.0000 0.4273144004
C   C93       1.0  0.05951  0.56641  0.53190  1.0000 -0.0512122299
C   C94       1.0  0.53451  0.52761  0.96810  1.0000 -0.0512122299
C   C95       1.0  0.94049  0.43359  0.46810  1.0000 -0.0512122299
C   C96       1.0  0.46549  0.47239  0.03190  1.0000 -0.0512122299
C   C97       1.0  0.05635  0.46545  0.46150  1.0000 -0.0512122299
C   C98       1.0  0.50395  0.59485  0.03850  1.0000 -0.0512122299
C   C99       1.0  0.94365  0.53455  0.53850  1.0000 -0.0512122299
C   C100      1.0  0.49605  0.40515  0.96150  1.0000 -0.0512122299
C   C101      1.0  0.12407  0.45237  0.43270  1.0000 0.4273144004
C   C102      1.0  0.51967  0.69137  0.06730  1.0000 0.4273144004
C   C103      1.0  0.87593  0.54763  0.56730  1.0000 0.4273144004
C   C104      1.0  0.48033  0.30863  0.93270  1.0000 0.4273144004
C   C105      1.0  0.00429  0.60519  0.57290  1.0000 -0.0776629283
C   C106      1.0  0.53229  0.43139  0.92710  1.0000 -0.0776629283
C   C107      1.0  0.99571  0.39481  0.42710  1.0000 -0.0776629283
C   C108      1.0  0.46771  0.56861  0.07290  1.0000 -0.0776629283
C   C109      1.0  0.03253  0.71763  0.13270  1.0000 0.562591681
C   C110      1.0  0.08493  0.89983  0.36730  1.0000 0.562591681
C   C111      1.0  0.96747  0.28237  0.86730  1.0000 0.562591681
C   C112      1.0  0.91507  0.10017  0.63270  1.0000 0.562591681
C   C113      1.0  0.09479  0.81019  0.19540  1.0000 -0.0512122299
C   C114      1.0  0.11479  0.89939  0.30460  1.0000 -0.0512122299
C   C115      1.0  0.90521  0.18981  0.80460  1.0000 -0.0512122299
C   C116      1.0  0.88521  0.10061  0.69540  1.0000 -0.0512122299
C   C117      1.0  0.12994  0.81144  0.14350  1.0000 -0.1003729536
C   C118      1.0  0.16794  0.98644  0.35650  1.0000 -0.1003729536
C   C119      1.0  0.87006  0.18856  0.85650  1.0000 -0.1003729536
C   C120      1.0  0.83206  0.01356  0.64350  1.0000 -0.1003729536
C   C121      1.0  0.18320  0.89940  0.19680  1.0000 -0.1003729536
C   C122      1.0  0.20260  0.98640  0.30320  1.0000 -0.1003729536
C   C123      1.0  0.81680  0.10060  0.80320  1.0000 -0.1003729536
C   C124      1.0  0.79740  0.01360  0.69680  1.0000 -0.1003729536
C   C125      1.0  0.16290  0.47810  0.94920  1.0000 -0.1639727115
C   C126      1.0  0.02890  0.21370  0.55080  1.0000 -0.1639727115
C   C127      1.0  0.83710  0.52190  0.05080  1.0000 -0.1639727115
C   C128      1.0  0.97110  0.78630  0.44920  1.0000 -0.1639727115
N   N1        1.0  0.63003  0.97813  0.05270  1.0000 -0.2293209715
N   N2        1.0  0.42543  0.57733  0.44730  1.0000 -0.2293209715
N   N3        1.0  0.36997  0.02187  0.94730  1.0000 -0.2293209715
N   N4        1.0  0.57457  0.42267  0.55270  1.0000 -0.2293209715
N   N5        1.0  0.94075  0.95295  0.11800  1.0000 -0.1779777317
N   N6        1.0  0.33495  0.82275  0.38200  1.0000 -0.1779777317
N   N7        1.0  0.05925  0.04705  0.88200  1.0000 -0.1779777317
N   N8        1.0  0.66505  0.17725  0.61800  1.0000 -0.1779777317
N   N9        1.0  0.07457  0.52187  0.15190  1.0000 -0.2293209715
N   N10       1.0  0.86997  0.92267  0.34810  1.0000 -0.2293209715
N   N11       1.0  0.92543  0.47813  0.84810  1.0000 -0.2293209715
N   N12       1.0  0.13003  0.07733  0.65190  1.0000 -0.2293209715
N   N13       1.0  0.16505  0.54705  0.48780  1.0000 -0.1779777317
N   N14       1.0  0.55925  0.67725  0.01220  1.0000 -0.1779777317
N   N15       1.0  0.83495  0.45295  0.51220  1.0000 -0.1779777317
N   N16       1.0  0.44075  0.32275  0.98780  1.0000 -0.1779777317
O   O1        1.0  0.99680  0.12470  0.26590  1.0000 -0.4282006063
O   O2        1.0  0.35880  0.73090  0.23410  1.0000 -0.4282006063
O   O3        1.0  0.00320  0.87530  0.73410  1.0000 -0.4282006063
O   O4        1.0  0.64120  0.26910  0.76590  1.0000 -0.4282006063
O   O5        1.0  0.89441  0.79141  0.94380  1.0000 -0.4282006063
O   O6        1.0  0.34761  0.95061  0.55620  1.0000 -0.4282006063
O   O7        1.0  0.10559  0.20859  0.05620  1.0000 -0.4244576453
O   O8        1.0  0.65239  0.04939  0.44380  1.0000 -0.4282006063
O   O9        1.0  0.45092  0.86232  0.92300  1.0000 -0.5558727219
O   O10       1.0  0.43932  0.52792  0.57700  1.0000 -0.5558727219
O   O11       1.0  0.54908  0.13768  0.07700  1.0000 -0.5558727219
O   O12       1.0  0.56068  0.47208  0.42300  1.0000 -0.5558727219
O   O13       1.0  0.40275  0.77945  0.73710  1.0000 -0.5558727219
O   O14       1.0  0.54235  0.66565  0.76290  1.0000 -0.5558727219
O   O15       1.0  0.59725  0.22055  0.26290  1.0000 -0.5558727219
O   O16       1.0  0.45765  0.33435  0.23710  1.0000 -0.5558727219
O   O17       1.0  0.53419  0.04029  0.17690  1.0000 -0.4050702474
O   O18       1.0  0.36339  0.35729  0.32310  1.0000 -0.4050702474
O   O19       1.0  0.46581  0.95971  0.82310  1.0000 -0.4050702474
O   O20       1.0  0.63661  0.64271  0.67690  1.0000 -0.4050702474
O   O21       1.0  0.14120  0.37530  0.37210  1.0000 -0.4282006063
O   O22       1.0  0.50320  0.76910  0.12790  1.0000 -0.4282006063
O   O23       1.0  0.85880  0.62470  0.62790  1.0000 -0.4282006063
O   O24       1.0  0.49680  0.23090  0.87210  1.0000 -0.4282006063
O   O25       1.0  0.15239  0.70859  0.60300  1.0000 -0.4282006063
O   O26       1.0  0.60559  0.54939  0.89700  1.0000 -0.4282006063
O   O27       1.0  0.84761  0.29141  0.39700  1.0000 -0.4282006063
O   O28       1.0  0.39441  0.45061  0.10300  1.0000 -0.4244576453
O   O29       1.0  0.06068  0.63768  0.08860  1.0000 -0.5558727219
O   O30       1.0  0.04908  0.97208  0.41140  1.0000 -0.5558727219
O   O31       1.0  0.93932  0.36232  0.91140  1.0000 -0.5558727219
O   O32       1.0  0.95092  0.02792  0.58860  1.0000 -0.5558727219
O   O33       1.0  0.95765  0.72055  0.12330  1.0000 -0.5558727219
O   O34       1.0  0.09725  0.83435  0.37670  1.0000 -0.5558727219
O   O35       1.0  0.04235  0.27945  0.87670  1.0000 -0.5558727219
O   O36       1.0  0.90275  0.16565  0.62330  1.0000 -0.5558727219
O   O37       1.0  0.13661  0.45971  0.99390  1.0000 -0.4050702474
O   O38       1.0  0.96581  0.14271  0.50610  1.0000 -0.4050702474
O   O39       1.0  0.86339  0.54029  0.00610  1.0000 -0.4050702474
O   O40       1.0  0.03419  0.85729  0.49390  1.0000 -0.4050702474
