# DDEC6 charges by PACMAN v1.1 (https://github.com/mtap-research/PACMAN-charge/)
data_2013[Nd][nan]3[FSR]4
_chemical_formula_sum              "Nd16 H120 C96 N24 O96"
_cell_length_a       19.5077
_cell_length_b       19.5077
_cell_length_c       19.5077
_cell_angle_alpha    95.495
_cell_angle_beta     95.495
_cell_angle_gamma    143.948

_symmetry_space_group_name_H-M    "P 1"
_symmetry_Int_Tables_number       1

loop_
  _symmetry_equiv_pos_as_xyz
  'x, y, z'

loop_
  _atom_site_type_symbol
  _atom_site_label
  _atom_site_symmetry_multiplicity
  _atom_site_fract_x
  _atom_site_fract_y
  _atom_site_fract_z
  _atom_site_occupancy
  _atom_site_charge
Nd  Nd1       1.0  0.43566  0.04866  0.04796  1.0000 2.0339872723
Nd  Nd2       1.0  0.00070  0.38770  0.95204  1.0000 2.0339872723
Nd  Nd3       1.0  0.63770  0.18566  0.88700  1.0000 2.0339872723
Nd  Nd4       1.0  0.29866  0.75070  0.11300  1.0000 2.0339872723
Nd  Nd5       1.0  0.81434  0.70134  0.45204  1.0000 2.0339872723
Nd  Nd6       1.0  0.24930  0.36230  0.54796  1.0000 2.0339872723
Nd  Nd7       1.0  0.61230  0.56434  0.61300  1.0000 2.0339872723
Nd  Nd8       1.0  0.95134  0.99930  0.38700  1.0000 2.0339872723
Nd  Nd9       1.0  0.67327  0.31743  0.22946  1.0000 1.9410006737
Nd  Nd10      1.0  0.08797  0.44381  0.77054  1.0000 1.9410006737
Nd  Nd11      1.0  0.69381  0.42327  0.85584  1.0000 1.9410006737
Nd  Nd12      1.0  0.56743  0.83797  0.14416  1.0000 1.9410006737
Nd  Nd13      1.0  0.57673  0.43257  0.27054  1.0000 1.9410006737
Nd  Nd14      1.0  0.16203  0.30619  0.72946  1.0000 1.9410006737
Nd  Nd15      1.0  0.55619  0.32673  0.64416  1.0000 1.9410006737
Nd  Nd16      1.0  0.68257  0.91203  0.35584  1.0000 1.9410006737
H   H1        1.0  0.25910  0.06940  0.04310  1.0000 0.1506177756
H   H2        1.0  0.02630  0.21600  0.95690  1.0000 0.1506177756
H   H3        1.0  0.46600  0.00910  0.68970  1.0000 0.1506177756
H   H4        1.0  0.31940  0.77630  0.31030  1.0000 0.1506177756
H   H5        1.0  0.99090  0.68060  0.45690  1.0000 0.1506177756
H   H6        1.0  0.22370  0.53400  0.54310  1.0000 0.1506177756
H   H7        1.0  0.78400  0.74090  0.81030  1.0000 0.1506177756
H   H8        1.0  0.93060  0.97370  0.18970  1.0000 0.1506177756
H   H9        1.0  0.21280  0.02510  0.11030  1.0000 0.1424387724
H   H10       1.0  0.91480  0.10250  0.88970  1.0000 0.1424387724
H   H11       1.0  0.35250  0.96280  0.68770  1.0000 0.1424387724
H   H12       1.0  0.27510  0.66480  0.31230  1.0000 0.1424387724
H   H13       1.0  0.03720  0.72490  0.38970  1.0000 0.1424387724
H   H14       1.0  0.33520  0.64750  0.61030  1.0000 0.1424387724
H   H15       1.0  0.89750  0.78720  0.81230  1.0000 0.1424387724
H   H16       1.0  0.97490  0.08520  0.18770  1.0000 0.1424387724
H   H17       1.0  0.23010  0.93020  0.15970  1.0000 0.1506177756
H   H18       1.0  0.77050  0.07040  0.84030  1.0000 0.1506177756
H   H19       1.0  0.32040  0.98010  0.79990  1.0000 0.1506177756
H   H20       1.0  0.18020  0.52050  0.20010  1.0000 0.1506177756
H   H21       1.0  0.01990  0.81980  0.34030  1.0000 0.1506177756
H   H22       1.0  0.47950  0.67960  0.65970  1.0000 0.1506177756
H   H23       1.0  0.92960  0.76990  0.70010  1.0000 0.1506177756
H   H24       1.0  0.06980  0.22950  0.29990  1.0000 0.1506177756
H   H25       1.0  0.10470  0.82050  0.09900  1.0000 0.1506177756
H   H26       1.0  0.72150  0.00570  0.90100  1.0000 0.1506177756
H   H27       1.0  0.25570  0.85470  0.78420  1.0000 0.1506177756
H   H28       1.0  0.07050  0.47150  0.21580  1.0000 0.1506177756
H   H29       1.0  0.14530  0.92950  0.40100  1.0000 0.1506177756
H   H30       1.0  0.52850  0.74430  0.59900  1.0000 0.1506177756
H   H31       1.0  0.99430  0.89530  0.71580  1.0000 0.1506177756
H   H32       1.0  0.17950  0.27850  0.28420  1.0000 0.1506177756
H   H33       1.0  0.64130  0.11350  0.30500  1.0000 0.1424387724
H   H34       1.0  0.80850  0.33630  0.69500  1.0000 0.1424387724
H   H35       1.0  0.58630  0.39130  0.02780  1.0000 0.1424387724
H   H36       1.0  0.36350  0.55850  0.97220  1.0000 0.1424387724
H   H37       1.0  0.60870  0.63650  0.19500  1.0000 0.1424387724
H   H38       1.0  0.44150  0.41370  0.80500  1.0000 0.1424387724
H   H39       1.0  0.66370  0.35870  0.47220  1.0000 0.1424387724
H   H40       1.0  0.88650  0.19150  0.52780  1.0000 0.1424387724
H   H41       1.0  0.53900  0.06110  0.33610  1.0000 0.1506177756
H   H42       1.0  0.72500  0.20290  0.66390  1.0000 0.1506177756
H   H43       1.0  0.45290  0.28900  0.97790  1.0000 0.1506177756
H   H44       1.0  0.31110  0.47500  0.02210  1.0000 0.1506177756
H   H45       1.0  0.71100  0.68890  0.16390  1.0000 0.1506177756
H   H46       1.0  0.52500  0.54710  0.83610  1.0000 0.1506177756
H   H47       1.0  0.79710  0.46100  0.52210  1.0000 0.1506177756
H   H48       1.0  0.93890  0.27500  0.47790  1.0000 0.1506177756
H   H49       1.0  0.81820  0.38390  0.41010  1.0000 0.1343186235
H   H50       1.0  0.97380  0.40810  0.58990  1.0000 0.1343186235
H   H51       1.0  0.65810  0.56820  0.93430  1.0000 0.1343186235
H   H52       1.0  0.63390  0.72380  0.06570  1.0000 0.1343186235
H   H53       1.0  0.43180  0.36610  0.08990  1.0000 0.1343186235
H   H54       1.0  0.27620  0.34190  0.91010  1.0000 0.1343186235
H   H55       1.0  0.59190  0.18180  0.56570  1.0000 0.1343186235
H   H56       1.0  0.61610  0.02620  0.43430  1.0000 0.1343186235
H   H57       1.0  0.78800  0.27990  0.39830  1.0000 0.1228415293
H   H58       1.0  0.88160  0.38970  0.60170  1.0000 0.1228415293
H   H59       1.0  0.63970  0.53800  0.00810  1.0000 0.1228415293
H   H60       1.0  0.52990  0.63160  0.99190  1.0000 0.1228415293
H   H61       1.0  0.46200  0.47010  0.10170  1.0000 0.1228415293
H   H62       1.0  0.36840  0.36030  0.89830  1.0000 0.1228415293
H   H63       1.0  0.61030  0.21200  0.49190  1.0000 0.1228415293
H   H64       1.0  0.72010  0.11840  0.50810  1.0000 0.1228415293
H   H65       1.0  0.91720  0.49780  0.09800  1.0000 0.1506177756
H   H66       1.0  0.39980  0.81920  0.90200  1.0000 0.1506177756
H   H67       1.0  0.06920  0.66720  0.91940  1.0000 0.1506177756
H   H68       1.0  0.74780  0.14980  0.08060  1.0000 0.1506177756
H   H69       1.0  0.33280  0.25220  0.40200  1.0000 0.1506177756
H   H70       1.0  0.85020  0.93080  0.59800  1.0000 0.1506177756
H   H71       1.0  0.18080  0.08280  0.58060  1.0000 0.1506177756
H   H72       1.0  0.50220  0.60020  0.41940  1.0000 0.1506177756
H   H73       1.0  0.90440  0.43210  0.14890  1.0000 0.1424387724
H   H74       1.0  0.28320  0.75550  0.85110  1.0000 0.1424387724
H   H75       1.0  0.00550  0.65440  0.97230  1.0000 0.1424387724
H   H76       1.0  0.68210  0.03320  0.02770  1.0000 0.1424387724
H   H77       1.0  0.34560  0.31790  0.35110  1.0000 0.1424387724
H   H78       1.0  0.96680  0.99450  0.64890  1.0000 0.1424387724
H   H79       1.0  0.24450  0.09560  0.52770  1.0000 0.1424387724
H   H80       1.0  0.56790  0.71680  0.47230  1.0000 0.1424387724
H   H81       1.0  0.95290  0.65170  0.17700  1.0000 0.1424387724
H   H82       1.0  0.47470  0.77590  0.82300  1.0000 0.1424387724
H   H83       1.0  0.02590  0.70290  0.80120  1.0000 0.1424387724
H   H84       1.0  0.90170  0.22470  0.19880  1.0000 0.1424387724
H   H85       1.0  0.29710  0.09830  0.32300  1.0000 0.1424387724
H   H86       1.0  0.77530  0.97410  0.67700  1.0000 0.1424387724
H   H87       1.0  0.22410  0.04710  0.69880  1.0000 0.1424387724
H   H88       1.0  0.34830  0.52530  0.30120  1.0000 0.1424387724
H   H89       1.0  0.84140  0.54300  0.10860  1.0000 0.1506177756
H   H90       1.0  0.43440  0.73280  0.89140  1.0000 0.1506177756
H   H91       1.0  0.98280  0.59140  0.79840  1.0000 0.1506177756
H   H92       1.0  0.79300  0.18440  0.20160  1.0000 0.1506177756
H   H93       1.0  0.40860  0.20700  0.39140  1.0000 0.1506177756
H   H94       1.0  0.81560  0.01720  0.60860  1.0000 0.1506177756
H   H95       1.0  0.26720  0.15860  0.70160  1.0000 0.1506177756
H   H96       1.0  0.45700  0.56560  0.29840  1.0000 0.1506177756
H   H97       1.0  0.18700  0.90840  0.01840  1.0000 0.2503344564
H   H98       1.0  0.89000  0.16860  0.98160  1.0000 0.2503344564
H   H99       1.0  0.41860  0.93700  0.77860  1.0000 0.2503344564
H   H100      1.0  0.15840  0.64000  0.22140  1.0000 0.2503344564
H   H101      1.0  0.06300  0.84160  0.48160  1.0000 0.2503344564
H   H102      1.0  0.36000  0.58140  0.51840  1.0000 0.2503344564
H   H103      1.0  0.83140  0.81300  0.72140  1.0000 0.2503344564
H   H104      1.0  0.09160  0.11000  0.27860  1.0000 0.2503344564
H   H105      1.0  0.62650  0.22870  0.36240  1.0000 0.2425314893
H   H106      1.0  0.86630  0.26410  0.63760  1.0000 0.2425314893
H   H107      1.0  0.51410  0.37650  0.89780  1.0000 0.2425314893
H   H108      1.0  0.47870  0.61630  0.10220  1.0000 0.2425314893
H   H109      1.0  0.62350  0.52130  0.13760  1.0000 0.2425314893
H   H110      1.0  0.38370  0.48590  0.86240  1.0000 0.2425314893
H   H111      1.0  0.73590  0.37350  0.60220  1.0000 0.2425314893
H   H112      1.0  0.77130  0.13370  0.39780  1.0000 0.2425314893
H   H113      1.0  0.92990  0.54400  0.21970  1.0000 0.2503344564
H   H114      1.0  0.32430  0.71020  0.78030  1.0000 0.2503344564
H   H115      1.0  0.96020  0.67990  0.88590  1.0000 0.2503344564
H   H116      1.0  0.79400  0.07430  0.11410  1.0000 0.2503344564
H   H117      1.0  0.32010  0.20600  0.28030  1.0000 0.2503344564
H   H118      1.0  0.92570  0.03980  0.71970  1.0000 0.2503344564
H   H119      1.0  0.28980  0.07010  0.61410  1.0000 0.2503344564
H   H120      1.0  0.45600  0.67570  0.38590  1.0000 0.2503344564
C   C1        1.0  0.39856  0.17035  0.13451  1.0000 0.6794216146
C   C2        1.0  0.03584  0.26405  0.86549  1.0000 0.6794216146
C   C3        1.0  0.51405  0.14856  0.72821  1.0000 0.6794216146
C   C4        1.0  0.42035  0.78584  0.27179  1.0000 0.6794216146
C   C5        1.0  0.85144  0.57965  0.36549  1.0000 0.6794216146
C   C6        1.0  0.21416  0.48595  0.63451  1.0000 0.6794216146
C   C7        1.0  0.73595  0.60144  0.77179  1.0000 0.6794216146
C   C8        1.0  0.82965  0.96416  0.22821  1.0000 0.6794216146
C   C9        1.0  0.27000  0.05360  0.08540  1.0000 -0.2397979761
C   C10       1.0  0.96820  0.18460  0.91460  1.0000 -0.2397979761
C   C11       1.0  0.43460  0.02000  0.71640  1.0000 -0.2397979761
C   C12       1.0  0.30360  0.71820  0.28360  1.0000 -0.2397979761
C   C13       1.0  0.98000  0.69640  0.41460  1.0000 -0.2397979761
C   C14       1.0  0.28180  0.56540  0.58540  1.0000 -0.2397979761
C   C15       1.0  0.81540  0.73000  0.78360  1.0000 -0.2397979761
C   C16       1.0  0.94640  0.03180  0.21640  1.0000 -0.2397979761
C   C17       1.0  0.19070  0.88030  0.11020  1.0000 -0.2307282353
C   C18       1.0  0.77010  0.08050  0.88980  1.0000 -0.2307282353
C   C19       1.0  0.33050  0.94070  0.81040  1.0000 -0.2307282353
C   C20       1.0  0.13030  0.52010  0.18960  1.0000 -0.2307282353
C   C21       1.0  0.05930  0.86970  0.38980  1.0000 -0.2307282353
C   C22       1.0  0.47990  0.66950  0.61020  1.0000 -0.2307282353
C   C23       1.0  0.91950  0.80930  0.68960  1.0000 -0.2307282353
C   C24       1.0  0.11970  0.22990  0.31040  1.0000 -0.2307282353
C   C25       1.0  0.20548  0.81491  0.10239  1.0000 0.6209999134
C   C26       1.0  0.71252  0.10309  0.89761  1.0000 0.6209999134
C   C27       1.0  0.35309  0.95548  0.89057  1.0000 0.6209999134
C   C28       1.0  0.06491  0.46252  0.10943  1.0000 0.6209999134
C   C29       1.0  0.04452  0.93509  0.39761  1.0000 0.6209999134
C   C30       1.0  0.53748  0.64691  0.60239  1.0000 0.6209999134
C   C31       1.0  0.89691  0.79452  0.60943  1.0000 0.6209999134
C   C32       1.0  0.18509  0.28748  0.39057  1.0000 0.6209999134
C   C33       1.0  0.50116  0.03819  0.22795  1.0000 0.694524843
C   C34       1.0  0.81024  0.27321  0.77205  1.0000 0.694524843
C   C35       1.0  0.52321  0.25116  0.96297  1.0000 0.694524843
C   C36       1.0  0.28819  0.56024  0.03703  1.0000 0.694524843
C   C37       1.0  0.74884  0.71181  0.27205  1.0000 0.694524843
C   C38       1.0  0.43976  0.47679  0.72795  1.0000 0.694524843
C   C39       1.0  0.72679  0.49884  0.53703  1.0000 0.694524843
C   C40       1.0  0.96181  0.18976  0.46297  1.0000 0.694524843
C   C41       1.0  0.58700  0.10790  0.30410  1.0000 -0.2397979761
C   C42       1.0  0.80380  0.28290  0.69590  1.0000 -0.2397979761
C   C43       1.0  0.53290  0.33700  0.97910  1.0000 -0.2397979761
C   C44       1.0  0.35790  0.55380  0.02090  1.0000 -0.2397979761
C   C45       1.0  0.66300  0.64210  0.19590  1.0000 -0.2397979761
C   C46       1.0  0.44620  0.46710  0.80410  1.0000 -0.2397979761
C   C47       1.0  0.71710  0.41300  0.52090  1.0000 -0.2397979761
C   C48       1.0  0.89210  0.19620  0.47910  1.0000 -0.2397979761
C   C49       1.0  0.78700  0.32020  0.37380  1.0000 -0.2514602097
C   C50       1.0  0.94640  0.41320  0.62620  1.0000 -0.2514602097
C   C51       1.0  0.66320  0.53700  0.96680  1.0000 -0.2514602097
C   C52       1.0  0.57020  0.69640  0.03320  1.0000 -0.2514602097
C   C53       1.0  0.46300  0.42980  0.12620  1.0000 -0.2514602097
C   C54       1.0  0.30360  0.33680  0.87380  1.0000 -0.2514602097
C   C55       1.0  0.58680  0.21300  0.53320  1.0000 -0.2514602097
C   C56       1.0  0.67980  0.05360  0.46680  1.0000 -0.2514602097
C   C57       1.0  0.86790  0.37630  0.32560  1.0000 0.6209999134
C   C58       1.0  0.05070  0.54230  0.67440  1.0000 0.6209999134
C   C59       1.0  0.79230  0.61790  0.99160  1.0000 0.6209999134
C   C60       1.0  0.62630  0.80070  0.00840  1.0000 0.6209999134
C   C61       1.0  0.38210  0.37370  0.17440  1.0000 0.6209999134
C   C62       1.0  0.19930  0.20770  0.82560  1.0000 0.6209999134
C   C63       1.0  0.45770  0.13210  0.50840  1.0000 0.6209999134
C   C64       1.0  0.62370  0.94930  0.49160  1.0000 0.6209999134
C   C65       1.0  0.74183  0.32004  0.07647  1.0000 0.694524843
C   C66       1.0  0.24357  0.66536  0.92353  1.0000 0.694524843
C   C67       1.0  0.91536  0.49183  0.92179  1.0000 0.694524843
C   C68       1.0  0.57004  0.99357  0.07821  1.0000 0.694524843
C   C69       1.0  0.50817  0.42996  0.42353  1.0000 0.694524843
C   C70       1.0  0.00643  0.08464  0.57647  1.0000 0.694524843
C   C71       1.0  0.33464  0.25817  0.57821  1.0000 0.694524843
C   C72       1.0  0.67996  0.75643  0.42179  1.0000 0.694524843
C   C73       1.0  0.86690  0.44170  0.12600  1.0000 -0.2514602097
C   C74       1.0  0.31570  0.74090  0.87400  1.0000 -0.2514602097
C   C75       1.0  0.99090  0.61690  0.92520  1.0000 -0.2514602097
C   C76       1.0  0.69170  0.06570  0.07480  1.0000 -0.2514602097
C   C77       1.0  0.38310  0.30830  0.37400  1.0000 -0.2514602097
C   C78       1.0  0.93430  0.00910  0.62600  1.0000 -0.2514602097
C   C79       1.0  0.25910  0.13310  0.57480  1.0000 -0.2514602097
C   C80       1.0  0.55830  0.68430  0.42520  1.0000 -0.2514602097
C   C81       1.0  0.86850  0.56710  0.16080  1.0000 -0.2307282353
C   C82       1.0  0.40630  0.70770  0.83920  1.0000 -0.2307282353
C   C83       1.0  0.95770  0.61850  0.80140  1.0000 -0.2307282353
C   C84       1.0  0.81710  0.15630  0.19860  1.0000 -0.2307282353
C   C85       1.0  0.38150  0.18290  0.33920  1.0000 -0.2307282353
C   C86       1.0  0.84370  0.04230  0.66080  1.0000 -0.2307282353
C   C87       1.0  0.29230  0.13150  0.69860  1.0000 -0.2307282353
C   C88       1.0  0.43290  0.59370  0.30140  1.0000 -0.2307282353
C   C89       1.0  0.79280  0.55710  0.19050  1.0000 0.6265366783
C   C90       1.0  0.36660  0.60230  0.80950  1.0000 0.6265366783
C   C91       1.0  0.85230  0.54280  0.73570  1.0000 0.6265366783
C   C92       1.0  0.80710  0.11660  0.26430  1.0000 0.6265366783
C   C93       1.0  0.45720  0.19290  0.30950  1.0000 0.6265366783
C   C94       1.0  0.88340  0.14770  0.69050  1.0000 0.6265366783
C   C95       1.0  0.39770  0.20720  0.76430  1.0000 0.6265366783
C   C96       1.0  0.44290  0.63340  0.23570  1.0000 0.6265366783
N   N1        1.0  0.24345  0.95755  0.06260  1.0000 -0.3614450062
N   N2        1.0  0.89495  0.18085  0.93740  1.0000 -0.3614450062
N   N3        1.0  0.43085  0.99345  0.78590  1.0000 -0.3614450062
N   N4        1.0  0.20755  0.64495  0.21410  1.0000 -0.3614450062
N   N5        1.0  0.00655  0.79245  0.43740  1.0000 -0.3614450062
N   N6        1.0  0.35505  0.56915  0.56260  1.0000 -0.3614450062
N   N7        1.0  0.81915  0.75655  0.71410  1.0000 -0.3614450062
N   N8        1.0  0.04245  0.10505  0.28590  1.0000 -0.3614450062
N   N9        1.0  0.66156  0.23173  0.33249  1.0000 -0.3614450062
N   N10       1.0  0.89924  0.32907  0.66751  1.0000 -0.3614450062
N   N11       1.0  0.57907  0.41156  0.92983  1.0000 -0.3614450062
N   N12       1.0  0.48173  0.64924  0.07017  1.0000 -0.3614450062
N   N13       1.0  0.58844  0.51827  0.16751  1.0000 -0.3614450062
N   N14       1.0  0.35076  0.42093  0.83249  1.0000 -0.3614450062
N   N15       1.0  0.67093  0.33844  0.57017  1.0000 -0.3614450062
N   N16       1.0  0.76827  0.10076  0.42983  1.0000 -0.3614450062
N   N17       1.0  0.86205  0.49301  0.18186  1.0000 -0.3447873025
N   N18       1.0  0.31115  0.68019  0.81814  1.0000 -0.3457127327
N   N19       1.0  0.93019  0.61205  0.86904  1.0000 -0.3447873025
N   N20       1.0  0.74301  0.06115  0.13096  1.0000 -0.3447873025
N   N21       1.0  0.38795  0.25699  0.31814  1.0000 -0.3447873025
N   N22       1.0  0.93885  0.06981  0.68186  1.0000 -0.3447873025
N   N23       1.0  0.31981  0.13795  0.63096  1.0000 -0.3447873025
N   N24       1.0  0.50699  0.68885  0.36904  1.0000 -0.3447873025
O   O1        1.0  0.47120  0.17991  0.14131  1.0000 -0.6979995484
O   O2        1.0  0.03860  0.32989  0.85869  1.0000 -0.6979995484
O   O3        1.0  0.57989  0.22120  0.79129  1.0000 -0.6979995484
O   O4        1.0  0.42991  0.78860  0.20871  1.0000 -0.6979995484
O   O5        1.0  0.77880  0.57009  0.35869  1.0000 -0.6979995484
O   O6        1.0  0.21140  0.42011  0.64131  1.0000 -0.6979995484
O   O7        1.0  0.67011  0.52880  0.70871  1.0000 -0.6979995484
O   O8        1.0  0.82009  0.96140  0.29129  1.0000 -0.6979995484
O   O9        1.0  0.42570  0.25198  0.16528  1.0000 -0.6314580778
O   O10       1.0  0.08670  0.26042  0.83472  1.0000 -0.6314580778
O   O11       1.0  0.51042  0.17570  0.67372  1.0000 -0.6314580778
O   O12       1.0  0.50198  0.83670  0.32628  1.0000 -0.6314580778
O   O13       1.0  0.82430  0.49802  0.33472  1.0000 -0.6314580778
O   O14       1.0  0.16330  0.48958  0.66528  1.0000 -0.6314580778
O   O15       1.0  0.73958  0.57430  0.82628  1.0000 -0.6314580778
O   O16       1.0  0.74802  0.91330  0.17372  1.0000 -0.6314580778
O   O17       1.0  0.28136  0.85373  0.06929  1.0000 -0.7395347173
O   O18       1.0  0.78444  0.21207  0.93071  1.0000 -0.7395347173
O   O19       1.0  0.46207  0.03136  0.92763  1.0000 -0.7395347173
O   O20       1.0  0.10373  0.53444  0.07237  1.0000 -0.7395347173
O   O21       1.0  0.96864  0.89627  0.43071  1.0000 -0.7395347173
O   O22       1.0  0.46556  0.53793  0.56929  1.0000 -0.7395347173
O   O23       1.0  0.78793  0.71864  0.57237  1.0000 -0.7395347173
O   O24       1.0  0.14627  0.21556  0.42763  1.0000 -0.7395347173
O   O25       1.0  0.15064  0.73113  0.12857  1.0000 -0.5718943143
O   O26       1.0  0.60256  0.02207  0.87143  1.0000 -0.5718943143
O   O27       1.0  0.27207  0.90064  0.91951  1.0000 -0.5718943143
O   O28       1.0  0.98113  0.35256  0.08049  1.0000 -0.5718943143
O   O29       1.0  0.09936  0.01887  0.37143  1.0000 -0.5718943143
O   O30       1.0  0.64744  0.72793  0.62857  1.0000 -0.5718943143
O   O31       1.0  0.97793  0.84936  0.58049  1.0000 -0.5718943143
O   O32       1.0  0.26887  0.39744  0.41951  1.0000 -0.5718943143
O   O33       1.0  0.52579  0.09837  0.18636  1.0000 -0.7063096578
O   O34       1.0  0.91201  0.33943  0.81364  1.0000 -0.7063096578
O   O35       1.0  0.58943  0.27579  0.92742  1.0000 -0.7063096578
O   O36       1.0  0.34837  0.66201  0.07258  1.0000 -0.7063096578
O   O37       1.0  0.72421  0.65163  0.31364  1.0000 -0.7063096578
O   O38       1.0  0.33799  0.41057  0.68636  1.0000 -0.7063096578
O   O39       1.0  0.66057  0.47421  0.57258  1.0000 -0.7063096578
O   O40       1.0  0.90163  0.08799  0.42742  1.0000 -0.7063096578
O   O41       1.0  0.41537  0.92559  0.21116  1.0000 -0.639928166
O   O42       1.0  0.71443  0.20421  0.78884  1.0000 -0.639928166
O   O43       1.0  0.45421  0.16537  0.98978  1.0000 -0.639928166
O   O44       1.0  0.17559  0.46443  0.01022  1.0000 -0.639928166
O   O45       1.0  0.83463  0.82441  0.28884  1.0000 -0.639928166
O   O46       1.0  0.53557  0.54579  0.71116  1.0000 -0.639928166
O   O47       1.0  0.79579  0.58463  0.51022  1.0000 -0.639928166
O   O48       1.0  0.07441  0.28557  0.48978  1.0000 -0.639928166
O   O49       1.0  0.82274  0.34889  0.26063  1.0000 -0.6519042367
O   O50       1.0  0.08826  0.56211  0.73937  1.0000 -0.6519042367
O   O51       1.0  0.81211  0.57274  0.97385  1.0000 -0.6519042367
O   O52       1.0  0.59889  0.83826  0.02615  1.0000 -0.6519042367
O   O53       1.0  0.42726  0.40111  0.23937  1.0000 -0.6519042367
O   O54       1.0  0.16174  0.18789  0.76063  1.0000 -0.6519042367
O   O55       1.0  0.43789  0.17726  0.52615  1.0000 -0.6519042367
O   O56       1.0  0.65111  0.91174  0.47385  1.0000 -0.6519042367
O   O57       1.0  0.98010  0.45710  0.35600  1.0000 -0.5988980571
O   O58       1.0  0.10110  0.62410  0.64400  1.0000 -0.5988980571
O   O59       1.0  0.87410  0.73010  0.02300  1.0000 -0.5988980571
O   O60       1.0  0.70710  0.85110  0.97700  1.0000 -0.5988980571
O   O61       1.0  0.26990  0.29290  0.14400  1.0000 -0.5988980571
O   O62       1.0  0.14890  0.12590  0.85600  1.0000 -0.5988980571
O   O63       1.0  0.37590  0.01990  0.47700  1.0000 -0.5988980571
O   O64       1.0  0.54290  0.89890  0.52300  1.0000 -0.5988980571
O   O65       1.0  0.65264  0.25881  0.10245  1.0000 -0.7312879378
O   O66       1.0  0.15636  0.55019  0.89755  1.0000 -0.7312879378
O   O67       1.0  0.80019  0.40264  0.89383  1.0000 -0.7312879378
O   O68       1.0  0.50881  0.90636  0.10617  1.0000 -0.7312879378
O   O69       1.0  0.59736  0.49119  0.39755  1.0000 -0.7312879378
O   O70       1.0  0.09364  0.19981  0.60245  1.0000 -0.7312879378
O   O71       1.0  0.44981  0.34736  0.60617  1.0000 -0.7312879378
O   O72       1.0  0.74119  0.84364  0.39383  1.0000 -0.7312879378
O   O73       1.0  0.72994  0.28228  0.01502  1.0000 -0.6314580778
O   O74       1.0  0.26726  0.71492  0.98498  1.0000 -0.6314580778
O   O75       1.0  0.96492  0.47994  0.94766  1.0000 -0.6314580778
O   O76       1.0  0.53228  0.01726  0.05234  1.0000 -0.6314580778
O   O77       1.0  0.52006  0.46772  0.48498  1.0000 -0.6314580778
O   O78       1.0  0.98274  0.03508  0.51502  1.0000 -0.6314580778
O   O79       1.0  0.28508  0.27006  0.55234  1.0000 -0.6314580778
O   O80       1.0  0.71772  0.73274  0.44766  1.0000 -0.6314580778
O   O81       1.0  0.69687  0.45633  0.20360  1.0000 -0.7501054371
O   O82       1.0  0.25273  0.49327  0.79640  1.0000 -0.7501054371
O   O83       1.0  0.74327  0.44687  0.74054  1.0000 -0.7501054371
O   O84       1.0  0.70633  0.00273  0.25946  1.0000 -0.7501054371
O   O85       1.0  0.55313  0.29367  0.29640  1.0000 -0.7501054371
O   O86       1.0  0.99727  0.25673  0.70360  1.0000 -0.7501054371
O   O87       1.0  0.50673  0.30313  0.75946  1.0000 -0.7501054371
O   O88       1.0  0.54367  0.74727  0.24054  1.0000 -0.7501054371
O   O89       1.0  0.82261  0.64259  0.20000  1.0000 -0.5232739861
O   O90       1.0  0.44259  0.62261  0.80000  1.0000 -0.5232739861
O   O91       1.0  0.87261  0.57261  0.68002  1.0000 -0.5232739861
O   O92       1.0  0.89259  0.19259  0.31998  1.0000 -0.5232739861
O   O93       1.0  0.42739  0.10741  0.30000  1.0000 -0.5232739861
O   O94       1.0  0.80741  0.12739  0.70000  1.0000 -0.5232739861
O   O95       1.0  0.37739  0.17739  0.81998  1.0000 -0.5232739861
O   O96       1.0  0.35741  0.55741  0.18002  1.0000 -0.5232739861
