# DDEC6 charges by PACMAN v1.1 (https://github.com/mtap-research/PACMAN-charge/)
data_2013[Cd][nan]3[FSR]2
_chemical_formula_sum              "Cd8 H72 C104 N16 O52"
_cell_length_a       14.2941
_cell_length_b       16.7256
_cell_length_c       15.7854
_cell_angle_alpha    90
_cell_angle_beta     118.639
_cell_angle_gamma    90

_symmetry_space_group_name_H-M    "P 1"
_symmetry_Int_Tables_number       1

loop_
  _symmetry_equiv_pos_as_xyz
  'x, y, z'

loop_
  _atom_site_type_symbol
  _atom_site_label
  _atom_site_symmetry_multiplicity
  _atom_site_fract_x
  _atom_site_fract_y
  _atom_site_fract_z
  _atom_site_occupancy
  _atom_site_charge
Cd  Cd1       1.0  0.37378  0.63025  0.20662  1.0000 0.9007926782
Cd  Cd2       1.0  0.62622  0.13025  0.29338  1.0000 0.9007926782
Cd  Cd3       1.0  0.62622  0.36975  0.79338  1.0000 0.9007926782
Cd  Cd4       1.0  0.37378  0.86975  0.70662  1.0000 0.9007926782
Cd  Cd5       1.0  0.14998  0.63581  0.27352  1.0000 0.9061602403
Cd  Cd6       1.0  0.85002  0.13581  0.22648  1.0000 0.9061602403
Cd  Cd7       1.0  0.85002  0.36419  0.72648  1.0000 0.9061602403
Cd  Cd8       1.0  0.14998  0.86419  0.77352  1.0000 0.9061602403
H   H1        1.0  0.01960  0.51620  0.33730  1.0000 0.1308718164
H   H2        1.0  0.98040  0.01620  0.16270  1.0000 0.1308718164
H   H3        1.0  0.98040  0.48380  0.66270  1.0000 0.1308718164
H   H4        1.0  0.01960  0.98380  0.83730  1.0000 0.1308718164
H   H5        1.0  0.77990  0.33880  0.21670  1.0000 0.1175381153
H   H6        1.0  0.22010  0.83880  0.28330  1.0000 0.1175381153
H   H7        1.0  0.22010  0.66120  0.78330  1.0000 0.1175381153
H   H8        1.0  0.77990  0.16120  0.71670  1.0000 0.1175381153
H   H9        1.0  0.78010  0.34230  0.31820  1.0000 0.1123583131
H   H10       1.0  0.21990  0.84230  0.18180  1.0000 0.1123583131
H   H11       1.0  0.21990  0.65770  0.68180  1.0000 0.1123583131
H   H12       1.0  0.78010  0.15770  0.81820  1.0000 0.1123583131
H   H13       1.0  0.76060  0.42340  0.10850  1.0000 0.1359548171
H   H14       1.0  0.23940  0.92340  0.39150  1.0000 0.1359548171
H   H15       1.0  0.23940  0.57660  0.89150  1.0000 0.1359548171
H   H16       1.0  0.76060  0.07660  0.60850  1.0000 0.1359548171
H   H17       1.0  0.53080  0.51300  0.17050  1.0000 0.1308718164
H   H18       1.0  0.46920  0.01300  0.32950  1.0000 0.1308718164
H   H19       1.0  0.46920  0.48700  0.82950  1.0000 0.1308718164
H   H20       1.0  0.53080  0.98700  0.67050  1.0000 0.1308718164
H   H21       1.0  0.76100  0.41410  0.41420  1.0000 0.1308718164
H   H22       1.0  0.23900  0.91410  0.08580  1.0000 0.1308718164
H   H23       1.0  0.23900  0.58590  0.58580  1.0000 0.1308718164
H   H24       1.0  0.76100  0.08590  0.91420  1.0000 0.1308718164
H   H25       1.0  0.52860  0.55060  0.41600  1.0000 0.1123583131
H   H26       1.0  0.47140  0.05060  0.08400  1.0000 0.1123583131
H   H27       1.0  0.47140  0.44940  0.58400  1.0000 0.1123583131
H   H28       1.0  0.52860  0.94940  0.91600  1.0000 0.1123583131
H   H29       1.0  0.59430  0.67650  0.52800  1.0000 0.1308718164
H   H30       1.0  0.40570  0.17650  0.97200  1.0000 0.1308718164
H   H31       1.0  0.40570  0.32350  0.47200  1.0000 0.1308718164
H   H32       1.0  0.59430  0.82350  0.02800  1.0000 0.1308718164
H   H33       1.0  0.79270  0.69350  0.64400  1.0000 0.0998521347
H   H34       1.0  0.20730  0.19350  0.85600  1.0000 0.0998521347
H   H35       1.0  0.20730  0.30650  0.35600  1.0000 0.0998521347
H   H36       1.0  0.79270  0.80650  0.14400  1.0000 0.0998521347
H   H37       1.0  0.72490  0.61420  0.63550  1.0000 0.1123583131
H   H38       1.0  0.27510  0.11420  0.86450  1.0000 0.1123583131
H   H39       1.0  0.27510  0.38580  0.36450  1.0000 0.1123583131
H   H40       1.0  0.72490  0.88580  0.13550  1.0000 0.1123583131
H   H41       1.0  0.95830  0.63210  0.94240  1.0000 0.1537110519
H   H42       1.0  0.04170  0.13210  0.55760  1.0000 0.1537110519
H   H43       1.0  0.04170  0.36790  0.05760  1.0000 0.1537110519
H   H44       1.0  0.95830  0.86790  0.44240  1.0000 0.1537110519
H   H45       1.0  0.18060  0.79290  0.96710  1.0000 0.1123583131
H   H46       1.0  0.81940  0.29290  0.53290  1.0000 0.1123583131
H   H47       1.0  0.81940  0.20710  0.03290  1.0000 0.1123583131
H   H48       1.0  0.18060  0.70710  0.46710  1.0000 0.1123583131
H   H49       1.0  0.95060  0.73600  0.70750  1.0000 0.1123583131
H   H50       1.0  0.04940  0.23600  0.79250  1.0000 0.1123583131
H   H51       1.0  0.04940  0.26400  0.29250  1.0000 0.1123583131
H   H52       1.0  0.95060  0.76400  0.20750  1.0000 0.1123583131
H   H53       1.0  0.60120  0.78940  0.75690  1.0000 0.1308718164
H   H54       1.0  0.39880  0.28940  0.74310  1.0000 0.1308718164
H   H55       1.0  0.39880  0.21060  0.24310  1.0000 0.1308718164
H   H56       1.0  0.60120  0.71060  0.25690  1.0000 0.1308718164
H   H57       1.0  0.33710  0.79510  0.50740  1.0000 0.1123583131
H   H58       1.0  0.66290  0.29510  0.99260  1.0000 0.1123583131
H   H59       1.0  0.66290  0.20490  0.49260  1.0000 0.1123583131
H   H60       1.0  0.33710  0.70490  0.00740  1.0000 0.1123583131
H   H61       1.0  0.97090  0.56290  0.07470  1.0000 0.1123583131
H   H62       1.0  0.02910  0.06290  0.42530  1.0000 0.1123583131
H   H63       1.0  0.02910  0.43710  0.92530  1.0000 0.1123583131
H   H64       1.0  0.97090  0.93710  0.57470  1.0000 0.1123583131
H   H65       1.0  0.30510  0.53380  0.30350  1.0000 0.3762987901
H   H66       1.0  0.69490  0.03380  0.19650  1.0000 0.3762987901
H   H67       1.0  0.69490  0.46620  0.69650  1.0000 0.3762987901
H   H68       1.0  0.30510  0.96620  0.80350  1.0000 0.3762987901
H   H69       1.0  0.22660  0.52410  0.18890  1.0000 0.3740461518
H   H70       1.0  0.77340  0.02410  0.31110  1.0000 0.3740461518
H   H71       1.0  0.77340  0.47590  0.81110  1.0000 0.3740461518
H   H72       1.0  0.22660  0.97590  0.68890  1.0000 0.3740461518
C   C1        1.0  0.97760  0.50990  0.26940  1.0000 -0.032886903
C   C2        1.0  0.02240  0.00990  0.23060  1.0000 -0.032886903
C   C3        1.0  0.02240  0.49010  0.73060  1.0000 -0.032886903
C   C4        1.0  0.97760  0.99010  0.76940  1.0000 -0.032886903
C   C5        1.0  0.88660  0.46210  0.23320  1.0000 0.2026348014
C   C6        1.0  0.11340  0.96210  0.26680  1.0000 0.2026348014
C   C7        1.0  0.11340  0.53790  0.76680  1.0000 0.2026348014
C   C8        1.0  0.88660  0.03790  0.73320  1.0000 0.2026348014
C   C9        1.0  0.77750  0.37530  0.26500  1.0000 0.1175381153
C   C10       1.0  0.22250  0.87530  0.23500  1.0000 0.1175381153
C   C11       1.0  0.22250  0.62470  0.73500  1.0000 0.1175381153
C   C12       1.0  0.77750  0.12470  0.76500  1.0000 0.1175381153
C   C13       1.0  0.82440  0.45390  0.13450  1.0000 -0.1896267279
C   C14       1.0  0.17560  0.95390  0.36550  1.0000 -0.1896267279
C   C15       1.0  0.17560  0.54610  0.86550  1.0000 -0.1896267279
C   C16       1.0  0.82440  0.04610  0.63450  1.0000 -0.1896267279
C   C17       1.0  0.85630  0.49050  0.07450  1.0000 -0.032886903
C   C18       1.0  0.14370  0.99050  0.42550  1.0000 -0.032886903
C   C19       1.0  0.14370  0.50950  0.92550  1.0000 -0.032886903
C   C20       1.0  0.85630  0.00950  0.57450  1.0000 -0.032886903
C   C21       1.0  0.79200  0.48230  0.96650  1.0000 0.56657811
C   C22       1.0  0.20800  0.98230  0.53350  1.0000 0.56657811
C   C23       1.0  0.20800  0.51770  0.03350  1.0000 0.56657811
C   C24       1.0  0.79200  0.01770  0.46650  1.0000 0.56657811
C   C25       1.0  0.56160  0.50470  0.23820  1.0000 -0.032886903
C   C26       1.0  0.43840  0.00470  0.26180  1.0000 -0.032886903
C   C27       1.0  0.43840  0.49530  0.76180  1.0000 -0.032886903
C   C28       1.0  0.56160  0.99530  0.73820  1.0000 -0.032886903
C   C29       1.0  0.64960  0.45530  0.28230  1.0000 0.2127238859
C   C30       1.0  0.35040  0.95530  0.21770  1.0000 0.2127238859
C   C31       1.0  0.35040  0.54470  0.71770  1.0000 0.2127238859
C   C32       1.0  0.64960  0.04470  0.78230  1.0000 0.2127238859
C   C33       1.0  0.69740  0.44460  0.38110  1.0000 -0.1995962139
C   C34       1.0  0.30260  0.94460  0.11890  1.0000 -0.1995962139
C   C35       1.0  0.30260  0.55540  0.61890  1.0000 -0.1995962139
C   C36       1.0  0.69740  0.05540  0.88110  1.0000 -0.1995962139
C   C37       1.0  0.64980  0.47960  0.43050  1.0000 -0.032886903
C   C38       1.0  0.35020  0.97960  0.06950  1.0000 -0.032886903
C   C39       1.0  0.35020  0.52040  0.56950  1.0000 -0.032886903
C   C40       1.0  0.64980  0.02040  0.93050  1.0000 -0.032886903
C   C41       1.0  0.69740  0.46700  0.53820  1.0000 0.564184909
C   C42       1.0  0.30260  0.96700  0.96180  1.0000 0.564184909
C   C43       1.0  0.30260  0.53300  0.46180  1.0000 0.564184909
C   C44       1.0  0.69740  0.03300  0.03820  1.0000 0.564184909
C   C45       1.0  0.56060  0.52710  0.38140  1.0000 0.0274658948
C   C46       1.0  0.43940  0.02710  0.11860  1.0000 0.0274658948
C   C47       1.0  0.43940  0.47290  0.61860  1.0000 0.0274658948
C   C48       1.0  0.56060  0.97290  0.88140  1.0000 0.0274658948
C   C49       1.0  0.39290  0.71280  0.39430  1.0000 0.5780808379
C   C50       1.0  0.60710  0.21280  0.10570  1.0000 0.5780808379
C   C51       1.0  0.60710  0.28720  0.60570  1.0000 0.5780808379
C   C52       1.0  0.39290  0.78720  0.89430  1.0000 0.5780808379
C   C53       1.0  0.45650  0.73540  0.50030  1.0000 -0.0206246625
C   C54       1.0  0.54350  0.23540  0.99970  1.0000 -0.0206246625
C   C55       1.0  0.54350  0.26460  0.49970  1.0000 -0.0206246625
C   C56       1.0  0.45650  0.76460  0.00030  1.0000 -0.0206246625
C   C57       1.0  0.56030  0.70730  0.55600  1.0000 -0.2156893115
C   C58       1.0  0.43970  0.20730  0.94400  1.0000 -0.2156893115
C   C59       1.0  0.43970  0.29270  0.44400  1.0000 -0.2156893115
C   C60       1.0  0.56030  0.79270  0.05600  1.0000 -0.2083651732
C   C61       1.0  0.61280  0.72570  0.65390  1.0000 0.2127238859
C   C62       1.0  0.38720  0.22570  0.84610  1.0000 0.2127238859
C   C63       1.0  0.38720  0.27430  0.34610  1.0000 0.2127238859
C   C64       1.0  0.61280  0.77430  0.15390  1.0000 0.2127238859
C   C65       1.0  0.76970  0.65690  0.67980  1.0000 0.1123583131
C   C66       1.0  0.23030  0.15690  0.82020  1.0000 0.1123583131
C   C67       1.0  0.23030  0.34310  0.32020  1.0000 0.1123583131
C   C68       1.0  0.76970  0.84310  0.17980  1.0000 0.1123583131
C   C69       1.0  0.94110  0.67580  0.81460  1.0000 0.2026348014
C   C70       1.0  0.05890  0.17580  0.68540  1.0000 0.2026348014
C   C71       1.0  0.05890  0.32420  0.18540  1.0000 0.2026348014
C   C72       1.0  0.94110  0.82420  0.31460  1.0000 0.2026348014
C   C73       1.0  0.98780  0.66720  0.91410  1.0000 -0.1702136982
C   C74       1.0  0.01220  0.16720  0.58590  1.0000 -0.1702136982
C   C75       1.0  0.01220  0.33280  0.08590  1.0000 -0.1702136982
C   C76       1.0  0.98780  0.83280  0.41410  1.0000 -0.1702136982
C   C77       1.0  0.07910  0.71150  0.97100  1.0000 -0.032886903
C   C78       1.0  0.92090  0.21150  0.52900  1.0000 -0.035419422
C   C79       1.0  0.92090  0.28850  0.02900  1.0000 -0.032886903
C   C80       1.0  0.07910  0.78850  0.47100  1.0000 -0.035419422
C   C81       1.0  0.11780  0.76320  0.92760  1.0000 0.0244862933
C   C82       1.0  0.88220  0.26320  0.57240  1.0000 0.0274658948
C   C83       1.0  0.88220  0.23680  0.07240  1.0000 0.0244862933
C   C84       1.0  0.11780  0.73680  0.42760  1.0000 0.0244862933
C   C85       1.0  0.98370  0.72980  0.77560  1.0000 -0.0730152789
C   C86       1.0  0.01630  0.22980  0.72440  1.0000 -0.0730152789
C   C87       1.0  0.01630  0.27020  0.22440  1.0000 -0.0730152789
C   C88       1.0  0.98370  0.77020  0.27560  1.0000 -0.0730152789
C   C89       1.0  0.13690  0.70260  0.07980  1.0000 0.5780808379
C   C90       1.0  0.86310  0.20260  0.42020  1.0000 0.5780808379
C   C91       1.0  0.86310  0.29740  0.92020  1.0000 0.5780808379
C   C92       1.0  0.13690  0.79740  0.57980  1.0000 0.5780808379
C   C93       1.0  0.56280  0.77370  0.69110  1.0000 -0.0452370166
C   C94       1.0  0.43720  0.27370  0.80890  1.0000 -0.0452370166
C   C95       1.0  0.43720  0.22630  0.30890  1.0000 -0.0452370166
C   C96       1.0  0.56280  0.72630  0.19110  1.0000 -0.0452370166
C   C97       1.0  0.40930  0.77900  0.54460  1.0000 0.0274658948
C   C98       1.0  0.59070  0.27900  0.95540  1.0000 0.0274658948
C   C99       1.0  0.59070  0.22100  0.45540  1.0000 0.0274658948
C   C100      1.0  0.40930  0.72100  0.04460  1.0000 0.0274658948
C   C101      1.0  0.94890  0.53730  0.11590  1.0000 0.044591659
C   C102      1.0  0.05110  0.03730  0.38410  1.0000 0.044591659
C   C103      1.0  0.05110  0.46270  0.88410  1.0000 0.044591659
C   C104      1.0  0.94890  0.96270  0.61590  1.0000 0.044591659
N   N1        1.0  0.51760  0.54120  0.28560  1.0000 -0.2269434135
N   N2        1.0  0.48240  0.04120  0.21440  1.0000 -0.2269434135
N   N3        1.0  0.48240  0.45880  0.71440  1.0000 -0.2269434135
N   N4        1.0  0.51760  0.95880  0.78560  1.0000 -0.2269434135
N   N5        1.0  0.07050  0.77340  0.83150  1.0000 -0.2269434135
N   N6        1.0  0.92950  0.27340  0.66850  1.0000 -0.2269434135
N   N7        1.0  0.92950  0.22660  0.16850  1.0000 -0.2269434135
N   N8        1.0  0.07050  0.72660  0.33150  1.0000 -0.2269434135
N   N9        1.0  0.00730  0.54720  0.21130  1.0000 -0.2269434135
N   N10       1.0  0.99270  0.04720  0.28870  1.0000 -0.2269434135
N   N11       1.0  0.99270  0.45280  0.78870  1.0000 -0.2269434135
N   N12       1.0  0.00730  0.95280  0.71130  1.0000 -0.2269434135
N   N13       1.0  0.46250  0.79900  0.63820  1.0000 -0.2083651732
N   N14       1.0  0.53750  0.29900  0.86180  1.0000 -0.2083651732
N   N15       1.0  0.53750  0.20100  0.36180  1.0000 -0.2083651732
N   N16       1.0  0.46250  0.70100  0.13820  1.0000 -0.2083651732
O   O1        1.0  0.78290  0.42850  0.57900  1.0000 -0.571914124
O   O2        1.0  0.21710  0.92850  0.92100  1.0000 -0.571914124
O   O3        1.0  0.21710  0.57150  0.42100  1.0000 -0.571914124
O   O4        1.0  0.78290  0.07150  0.07900  1.0000 -0.571914124
O   O5        1.0  0.86660  0.42600  0.30160  1.0000 -0.1995962139
O   O6        1.0  0.13340  0.92600  0.19840  1.0000 -0.1995962139
O   O7        1.0  0.13340  0.57400  0.69840  1.0000 -0.1995962139
O   O8        1.0  0.86660  0.07400  0.80160  1.0000 -0.1995962139
O   O9        1.0  0.70690  0.44250  0.93470  1.0000 -0.571914124
O   O10       1.0  0.29310  0.94250  0.56530  1.0000 -0.571914124
O   O11       1.0  0.29310  0.55750  0.06530  1.0000 -0.571914124
O   O12       1.0  0.70690  0.05750  0.43470  1.0000 -0.571914124
O   O13       1.0  0.68130  0.41930  0.22160  1.0000 -0.1995962139
O   O14       1.0  0.31870  0.91930  0.27840  1.0000 -0.1995962139
O   O15       1.0  0.31870  0.58070  0.77840  1.0000 -0.1995962139
O   O16       1.0  0.68130  0.08070  0.72160  1.0000 -0.1995962139
O   O17       1.0  0.64540  0.49510  0.57730  1.0000 -0.5611032
O   O18       1.0  0.35460  0.99510  0.92270  1.0000 -0.5611032
O   O19       1.0  0.35460  0.50490  0.42270  1.0000 -0.5611032
O   O20       1.0  0.64540  0.00490  0.07730  1.0000 -0.5611032
O   O21       1.0  0.23510  0.71790  0.12160  1.0000 -0.571914124
O   O22       1.0  0.76490  0.21790  0.37840  1.0000 -0.571914124
O   O23       1.0  0.76490  0.28210  0.87840  1.0000 -0.571914124
O   O24       1.0  0.23510  0.78210  0.62160  1.0000 -0.571914124
O   O25       1.0  0.44620  0.69000  0.35390  1.0000 -0.5611032
O   O26       1.0  0.55380  0.19000  0.14610  1.0000 -0.5611032
O   O27       1.0  0.55380  0.31000  0.64610  1.0000 -0.5611032
O   O28       1.0  0.44620  0.81000  0.85390  1.0000 -0.5611032
O   O29       1.0  0.71260  0.69940  0.71880  1.0000 -0.1896267279
O   O30       1.0  0.28740  0.19940  0.78120  1.0000 -0.1896267279
O   O31       1.0  0.28740  0.30060  0.28120  1.0000 -0.1896267279
O   O32       1.0  0.71260  0.80060  0.21880  1.0000 -0.1896267279
O   O33       1.0  0.85730  0.62460  0.75920  1.0000 -0.1822792541
O   O34       1.0  0.14270  0.12460  0.74080  1.0000 -0.1822792541
O   O35       1.0  0.14270  0.37540  0.24080  1.0000 -0.1822792541
O   O36       1.0  0.85730  0.87540  0.25920  1.0000 -0.1822792541
O   O37       1.0  0.29390  0.71910  0.35750  1.0000 -0.571914124
O   O38       1.0  0.70610  0.21910  0.14250  1.0000 -0.571914124
O   O39       1.0  0.70610  0.28090  0.64250  1.0000 -0.571914124
O   O40       1.0  0.29390  0.78090  0.85750  1.0000 -0.571914124
O   O41       1.0  0.82860  0.51440  0.91710  1.0000 -0.5401579689
O   O42       1.0  0.17140  0.01440  0.58290  1.0000 -0.5401579689
O   O43       1.0  0.17140  0.48560  0.08290  1.0000 -0.5401579689
O   O44       1.0  0.82860  0.98560  0.41710  1.0000 -0.5401579689
O   O45       1.0  0.08220  0.68210  0.11930  1.0000 -0.5611032
O   O46       1.0  0.91780  0.18210  0.38070  1.0000 -0.5611032
O   O47       1.0  0.91780  0.31790  0.88070  1.0000 -0.5611032
O   O48       1.0  0.08220  0.81790  0.61930  1.0000 -0.5611032
O   O49       1.0  0.26540  0.55460  0.24730  1.0000 -0.7282238554
O   O50       1.0  0.73460  0.05460  0.25270  1.0000 -0.7282238554
O   O51       1.0  0.73460  0.44540  0.75270  1.0000 -0.7282238554
O   O52       1.0  0.26540  0.94540  0.74730  1.0000 -0.7282238554
