# DDEC6 charges by PACMAN v1.1 (https://github.com/mtap-research/PACMAN-charge/)
data_2013[Co][nbo]3[FSR]1
_chemical_formula_sum              "Co8 H64 C72 O64"
_cell_length_a       7.903
_cell_length_b       32.858
_cell_length_c       10.5379
_cell_angle_alpha    90
_cell_angle_beta     99.607
_cell_angle_gamma    90

_symmetry_space_group_name_H-M    "P 1"
_symmetry_Int_Tables_number       1

loop_
  _symmetry_equiv_pos_as_xyz
  'x, y, z'

loop_
  _atom_site_type_symbol
  _atom_site_label
  _atom_site_symmetry_multiplicity
  _atom_site_fract_x
  _atom_site_fract_y
  _atom_site_fract_z
  _atom_site_occupancy
  _atom_site_charge
Co  Co1       1.0  0.05326  0.25018  0.48049  1.0000 1.0026931663
Co  Co2       1.0  0.44674  0.75018  0.51951  1.0000 1.0026931663
Co  Co3       1.0  0.94674  0.74982  0.51951  1.0000 1.0026931663
Co  Co4       1.0  0.55326  0.24982  0.48049  1.0000 1.0026931663
Co  Co5       1.0  0.50000  0.50000  0.50000  1.0000 0.9939793844
Co  Co6       1.0  0.00000  0.00000  0.50000  1.0000 0.9939793844
Co  Co7       1.0  0.00000  0.50000  0.50000  1.0000 1.0026931663
Co  Co8       1.0  0.50000  0.00000  0.50000  1.0000 1.0026931663
H   H1        1.0  0.91380  0.23840  0.06990  1.0000 0.1310710956
H   H2        1.0  0.58620  0.73840  0.93010  1.0000 0.1310710956
H   H3        1.0  0.08620  0.76160  0.93010  1.0000 0.1310710956
H   H4        1.0  0.41380  0.26160  0.06990  1.0000 0.1310710956
H   H5        1.0  0.74350  0.23890  0.87000  1.0000 0.1310710956
H   H6        1.0  0.75650  0.73890  0.13000  1.0000 0.1310710956
H   H7        1.0  0.25650  0.76110  0.13000  1.0000 0.1310710956
H   H8        1.0  0.24350  0.26110  0.87000  1.0000 0.1310710956
H   H9        1.0  0.63890  0.51050  0.91640  1.0000 0.1199855704
H   H10       1.0  0.86110  0.01050  0.08360  1.0000 0.1199855704
H   H11       1.0  0.36110  0.48950  0.08360  1.0000 0.1199855704
H   H12       1.0  0.13890  0.98950  0.91640  1.0000 0.1199855704
H   H13       1.0  0.80370  0.51000  0.11880  1.0000 0.1310710956
H   H14       1.0  0.69630  0.01000  0.88120  1.0000 0.1310710956
H   H15       1.0  0.19630  0.49000  0.88120  1.0000 0.1310710956
H   H16       1.0  0.30370  0.99000  0.11880  1.0000 0.1310710956
H   H17       1.0  0.82850  0.20590  0.54530  1.0000 0.3706223683
H   H18       1.0  0.67150  0.70590  0.45470  1.0000 0.3706223683
H   H19       1.0  0.17150  0.79410  0.45470  1.0000 0.3706223683
H   H20       1.0  0.32850  0.29410  0.54530  1.0000 0.3706223683
H   H21       1.0  0.77370  0.20870  0.41060  1.0000 0.3625032206
H   H22       1.0  0.72630  0.70870  0.58940  1.0000 0.3625032206
H   H23       1.0  0.22630  0.79130  0.58940  1.0000 0.3625032206
H   H24       1.0  0.27370  0.29130  0.41060  1.0000 0.3625032206
H   H25       1.0  0.22180  0.20830  0.35050  1.0000 0.3706223683
H   H26       1.0  0.27820  0.70830  0.64950  1.0000 0.3706223683
H   H27       1.0  0.77820  0.79170  0.64950  1.0000 0.3706223683
H   H28       1.0  0.72180  0.29170  0.35050  1.0000 0.3706223683
H   H29       1.0  0.10490  0.18050  0.38190  1.0000 0.3706223683
H   H30       1.0  0.39510  0.68050  0.61810  1.0000 0.3706223683
H   H31       1.0  0.89510  0.81950  0.61810  1.0000 0.3706223683
H   H32       1.0  0.60490  0.31950  0.38190  1.0000 0.3706223683
H   H33       1.0  0.01100  0.31840  0.59890  1.0000 0.3706223683
H   H34       1.0  0.48900  0.81840  0.40110  1.0000 0.3785336712
H   H35       1.0  0.98900  0.68160  0.40110  1.0000 0.3706223683
H   H36       1.0  0.51100  0.18160  0.59890  1.0000 0.3706223683
H   H37       1.0  0.88650  0.29080  0.62290  1.0000 0.3785336712
H   H38       1.0  0.61350  0.79080  0.37710  1.0000 0.3785336712
H   H39       1.0  0.11350  0.70920  0.37710  1.0000 0.3785336712
H   H40       1.0  0.38650  0.20920  0.62290  1.0000 0.3785336712
H   H41       1.0  0.50380  0.44640  0.32450  1.0000 0.3785336712
H   H42       1.0  0.99620  0.94640  0.67550  1.0000 0.3785336712
H   H43       1.0  0.49620  0.55360  0.67550  1.0000 0.3785336712
H   H44       1.0  0.00380  0.05360  0.32450  1.0000 0.3785336712
H   H45       1.0  0.67650  0.45430  0.37520  1.0000 0.3785336712
H   H46       1.0  0.82350  0.95430  0.62480  1.0000 0.3785336712
H   H47       1.0  0.32350  0.54570  0.62480  1.0000 0.3785336712
H   H48       1.0  0.17650  0.04570  0.37520  1.0000 0.3785336712
H   H49       1.0  0.23150  0.45690  0.43760  1.0000 0.3706223683
H   H50       1.0  0.26850  0.95690  0.56240  1.0000 0.3706223683
H   H51       1.0  0.76850  0.54310  0.56240  1.0000 0.3706223683
H   H52       1.0  0.73150  0.04310  0.43760  1.0000 0.3706223683
H   H53       1.0  0.28080  0.45700  0.57280  1.0000 0.3706223683
H   H54       1.0  0.21920  0.95700  0.42720  1.0000 0.3706223683
H   H55       1.0  0.71920  0.54300  0.42720  1.0000 0.3706223683
H   H56       1.0  0.78080  0.04300  0.57280  1.0000 0.3706223683
H   H57       1.0  0.95990  0.43340  0.62830  1.0000 0.3785336712
H   H58       1.0  0.54010  0.93340  0.37170  1.0000 0.3785336712
H   H59       1.0  0.04010  0.56660  0.37170  1.0000 0.3785336712
H   H60       1.0  0.45990  0.06660  0.62830  1.0000 0.3785336712
H   H61       1.0  0.83620  0.46240  0.64640  1.0000 0.3785336712
H   H62       1.0  0.66380  0.96240  0.35360  1.0000 0.3785336712
H   H63       1.0  0.16380  0.53760  0.35360  1.0000 0.3785336712
H   H64       1.0  0.33620  0.03760  0.64640  1.0000 0.3785336712
C   C1        1.0  0.90760  0.29894  0.10280  1.0000 -0.0130761864
C   C2        1.0  0.59240  0.79894  0.89720  1.0000 -0.0130761864
C   C3        1.0  0.09240  0.70106  0.89720  1.0000 -0.0130761864
C   C4        1.0  0.40760  0.20106  0.10280  1.0000 -0.0130761864
C   C5        1.0  0.87040  0.26291  0.03430  1.0000 -0.100588191
C   C6        1.0  0.62960  0.76291  0.96570  1.0000 -0.100588191
C   C7        1.0  0.12960  0.73709  0.96570  1.0000 -0.100588191
C   C8        1.0  0.37040  0.23709  0.03430  1.0000 -0.100588191
C   C9        1.0  0.76940  0.26333  0.91380  1.0000 -0.100588191
C   C10       1.0  0.73060  0.76333  0.08620  1.0000 -0.100588191
C   C11       1.0  0.23060  0.73667  0.08620  1.0000 -0.100588191
C   C12       1.0  0.26940  0.23667  0.91380  1.0000 -0.100588191
C   C13       1.0  0.70580  0.29971  0.85700  1.0000 -0.0176535277
C   C14       1.0  0.79420  0.79971  0.14300  1.0000 -0.0176535277
C   C15       1.0  0.29420  0.70029  0.14300  1.0000 -0.0176535277
C   C16       1.0  0.20580  0.20029  0.85700  1.0000 -0.0176535277
C   C17       1.0  0.74670  0.33628  0.92330  1.0000 -0.0539099255
C   C18       1.0  0.75330  0.83628  0.07670  1.0000 -0.0539099255
C   C19       1.0  0.25330  0.66372  0.07670  1.0000 -0.0539099255
C   C20       1.0  0.24670  0.16372  0.92330  1.0000 -0.0539099255
C   C21       1.0  0.70140  0.37567  0.85860  1.0000 0.3439747591
C   C22       1.0  0.79860  0.87567  0.14140  1.0000 0.3439747591
C   C23       1.0  0.29860  0.62433  0.14140  1.0000 0.3439747591
C   C24       1.0  0.20140  0.12433  0.85860  1.0000 0.3439747591
C   C25       1.0  0.71870  0.41366  0.93630  1.0000 -0.0539099255
C   C26       1.0  0.78130  0.91366  0.06370  1.0000 -0.0539099255
C   C27       1.0  0.28130  0.58634  0.06370  1.0000 -0.0539099255
C   C28       1.0  0.21870  0.08634  0.93630  1.0000 -0.0539099255
C   C29       1.0  0.65150  0.45018  0.88150  1.0000 -0.0176535277
C   C30       1.0  0.84850  0.95018  0.11850  1.0000 -0.0176535277
C   C31       1.0  0.34850  0.54982  0.11850  1.0000 -0.0176535277
C   C32       1.0  0.15150  0.04982  0.88150  1.0000 -0.0176535277
C   C33       1.0  0.68380  0.48603  0.95170  1.0000 -0.1087867866
C   C34       1.0  0.81620  0.98603  0.04830  1.0000 -0.1087867866
C   C35       1.0  0.31620  0.51397  0.04830  1.0000 -0.1087867866
C   C36       1.0  0.18380  0.01397  0.95170  1.0000 -0.1087867866
C   C37       1.0  0.78210  0.48570  0.07370  1.0000 -0.1087867866
C   C38       1.0  0.71790  0.98570  0.92630  1.0000 -0.1087867866
C   C39       1.0  0.21790  0.51430  0.92630  1.0000 -0.1087867866
C   C40       1.0  0.28210  0.01430  0.07370  1.0000 -0.1087867866
C   C41       1.0  0.84860  0.44957  0.12910  1.0000 -0.0176535277
C   C42       1.0  0.65140  0.94957  0.87090  1.0000 -0.0176535277
C   C43       1.0  0.15140  0.55043  0.87090  1.0000 -0.0176535277
C   C44       1.0  0.34860  0.05043  0.12910  1.0000 -0.0176535277
C   C45       1.0  0.81430  0.41313  0.06140  1.0000 -0.0539099255
C   C46       1.0  0.68570  0.91313  0.93860  1.0000 -0.0539099255
C   C47       1.0  0.18570  0.58687  0.93860  1.0000 -0.0539099255
C   C48       1.0  0.31430  0.08687  0.06140  1.0000 -0.0539099255
C   C49       1.0  0.87070  0.37384  0.12500  1.0000 0.3533095617
C   C50       1.0  0.62930  0.87384  0.87500  1.0000 0.3533095617
C   C51       1.0  0.12930  0.62616  0.87500  1.0000 0.3533095617
C   C52       1.0  0.37070  0.12616  0.12500  1.0000 0.3533095617
C   C53       1.0  0.84440  0.33577  0.04800  1.0000 -0.0575957622
C   C54       1.0  0.65560  0.83577  0.95200  1.0000 -0.0575957622
C   C55       1.0  0.15560  0.66423  0.95200  1.0000 -0.0575957622
C   C56       1.0  0.34440  0.16423  0.04800  1.0000 -0.0575957622
C   C57       1.0  0.01960  0.29600  0.23390  1.0000 0.5807807532
C   C58       1.0  0.48040  0.79600  0.76610  1.0000 0.5807807532
C   C59       1.0  0.98040  0.70400  0.76610  1.0000 0.5807807532
C   C60       1.0  0.51960  0.20400  0.23390  1.0000 0.5807807532
C   C61       1.0  0.59070  0.29742  0.72700  1.0000 0.5807807532
C   C62       1.0  0.90930  0.79742  0.27300  1.0000 0.5807807532
C   C63       1.0  0.40930  0.70258  0.27300  1.0000 0.5807807532
C   C64       1.0  0.09070  0.20258  0.72700  1.0000 0.5807807532
C   C65       1.0  0.54120  0.45319  0.75030  1.0000 0.5807807532
C   C66       1.0  0.95880  0.95319  0.24970  1.0000 0.5807807532
C   C67       1.0  0.45880  0.54681  0.24970  1.0000 0.5807807532
C   C68       1.0  0.04120  0.04681  0.75030  1.0000 0.5807807532
C   C69       1.0  0.96420  0.45291  0.25820  1.0000 0.5807807532
C   C70       1.0  0.53580  0.95291  0.74180  1.0000 0.5807807532
C   C71       1.0  0.03580  0.54709  0.74180  1.0000 0.5807807532
C   C72       1.0  0.46420  0.04709  0.25820  1.0000 0.5807807532
O   O1        1.0  0.66000  0.37771  0.74160  1.0000 -0.3607306282
O   O2        1.0  0.84000  0.87771  0.25840  1.0000 -0.3607306282
O   O3        1.0  0.34000  0.62229  0.25840  1.0000 -0.3607306282
O   O4        1.0  0.16000  0.12229  0.74160  1.0000 -0.3607306282
O   O5        1.0  0.92880  0.37254  0.23910  1.0000 -0.3268579494
O   O6        1.0  0.57120  0.87254  0.76090  1.0000 -0.3268579494
O   O7        1.0  0.07120  0.62746  0.76090  1.0000 -0.3268579494
O   O8        1.0  0.42880  0.12746  0.23910  1.0000 -0.3268579494
O   O9        1.0  0.94400  0.28196  0.32240  1.0000 -0.6042605291
O   O10       1.0  0.55600  0.78196  0.67760  1.0000 -0.6042605291
O   O11       1.0  0.05600  0.71804  0.67760  1.0000 -0.6042605291
O   O12       1.0  0.44400  0.21804  0.32240  1.0000 -0.6042605291
O   O13       1.0  0.17380  0.30451  0.24640  1.0000 -0.5130187274
O   O14       1.0  0.32620  0.80451  0.75360  1.0000 -0.5130187274
O   O15       1.0  0.82620  0.69549  0.75360  1.0000 -0.5130187274
O   O16       1.0  0.67380  0.19549  0.24640  1.0000 -0.5130187274
O   O17       1.0  0.66260  0.28255  0.63790  1.0000 -0.6077151995
O   O18       1.0  0.83740  0.78255  0.36210  1.0000 -0.6077151995
O   O19       1.0  0.33740  0.71745  0.36210  1.0000 -0.6077151995
O   O20       1.0  0.16260  0.21745  0.63790  1.0000 -0.6077151995
O   O21       1.0  0.43720  0.30666  0.71520  1.0000 -0.5130187274
O   O22       1.0  0.06280  0.80666  0.28480  1.0000 -0.5130187274
O   O23       1.0  0.56280  0.69334  0.28480  1.0000 -0.5130187274
O   O24       1.0  0.93720  0.19334  0.71520  1.0000 -0.5130187274
O   O25       1.0  0.39080  0.44059  0.73460  1.0000 -0.5241567444
O   O26       1.0  0.10920  0.94059  0.26540  1.0000 -0.5241567444
O   O27       1.0  0.60920  0.55941  0.26540  1.0000 -0.5241567444
O   O28       1.0  0.89080  0.05941  0.73460  1.0000 -0.5241567444
O   O29       1.0  0.61110  0.47179  0.66610  1.0000 -0.6077151995
O   O30       1.0  0.88890  0.97179  0.33390  1.0000 -0.6077151995
O   O31       1.0  0.38890  0.52821  0.33390  1.0000 -0.6077151995
O   O32       1.0  0.11110  0.02821  0.66610  1.0000 -0.6077151995
O   O33       1.0  0.11990  0.44847  0.26580  1.0000 -0.5130187274
O   O34       1.0  0.38010  0.94847  0.73420  1.0000 -0.5130187274
O   O35       1.0  0.88010  0.55153  0.73420  1.0000 -0.5130187274
O   O36       1.0  0.61990  0.05153  0.26580  1.0000 -0.5130187274
O   O37       1.0  0.89050  0.46405  0.35180  1.0000 -0.6077151995
O   O38       1.0  0.60950  0.96405  0.64820  1.0000 -0.6077151995
O   O39       1.0  0.10950  0.53595  0.64820  1.0000 -0.6077151995
O   O40       1.0  0.39050  0.03595  0.35180  1.0000 -0.6077151995
O   O41       1.0  0.80370  0.22158  0.48080  1.0000 -0.7119384806
O   O42       1.0  0.69630  0.72158  0.51920  1.0000 -0.7119384806
O   O43       1.0  0.19630  0.77842  0.51920  1.0000 -0.7119384806
O   O44       1.0  0.30370  0.27842  0.48080  1.0000 -0.7119384806
O   O45       1.0  0.11810  0.20507  0.36040  1.0000 -0.6661945681
O   O46       1.0  0.38190  0.70507  0.63960  1.0000 -0.6661945681
O   O47       1.0  0.88190  0.79493  0.63960  1.0000 -0.6661945681
O   O48       1.0  0.61810  0.29493  0.36040  1.0000 -0.6661945681
O   O49       1.0  0.98770  0.29335  0.60640  1.0000 -0.6779813602
O   O50       1.0  0.51230  0.79335  0.39360  1.0000 -0.6779813602
O   O51       1.0  0.01230  0.70665  0.39360  1.0000 -0.6779813602
O   O52       1.0  0.48770  0.20665  0.60640  1.0000 -0.6779813602
O   O53       1.0  0.57530  0.45194  0.39180  1.0000 -0.6779813602
O   O54       1.0  0.92470  0.95194  0.60820  1.0000 -0.6857917409
O   O55       1.0  0.42470  0.54806  0.60820  1.0000 -0.6857917409
O   O56       1.0  0.07530  0.04806  0.39180  1.0000 -0.6857917409
O   O57       1.0  0.25240  0.47135  0.50540  1.0000 -0.7152644347
O   O58       1.0  0.24760  0.97135  0.49460  1.0000 -0.7152644347
O   O59       1.0  0.74760  0.52865  0.49460  1.0000 -0.7152644347
O   O60       1.0  0.75240  0.02865  0.50540  1.0000 -0.7152644347
O   O61       1.0  0.93850  0.45867  0.63370  1.0000 -0.6779813602
O   O62       1.0  0.56150  0.95867  0.36630  1.0000 -0.6779813602
O   O63       1.0  0.06150  0.54133  0.36630  1.0000 -0.6779813602
O   O64       1.0  0.43850  0.04133  0.63370  1.0000 -0.6779813602
