# DDEC6 charges by PACMAN v1.1 (https://github.com/mtap-research/PACMAN-charge/)
data_2013[Zn][uni]3[FSR]4
_chemical_formula_sum              "Zn6 H66 C54 N12 Cl6 O12"
_cell_length_a       17.5285
_cell_length_b       17.5285
_cell_length_c       10.2652
_cell_angle_alpha    90
_cell_angle_beta     90
_cell_angle_gamma    120

_symmetry_space_group_name_H-M    "P 1"
_symmetry_Int_Tables_number       1

loop_
  _symmetry_equiv_pos_as_xyz
  'x, y, z'

loop_
  _atom_site_type_symbol
  _atom_site_label
  _atom_site_symmetry_multiplicity
  _atom_site_fract_x
  _atom_site_fract_y
  _atom_site_fract_z
  _atom_site_occupancy
  _atom_site_charge
Zn  Zn1       1.0  0.53561  0.46020  0.99315  1.0000 0.7148759139
Zn  Zn2       1.0  0.07541  0.53561  0.15982  1.0000 0.7148759139
Zn  Zn3       1.0  0.53980  0.07541  0.32648  1.0000 0.7148759139
Zn  Zn4       1.0  0.46439  0.53980  0.49315  1.0000 0.7154990805
Zn  Zn5       1.0  0.92459  0.46439  0.65982  1.0000 0.7148759139
Zn  Zn6       1.0  0.46020  0.92459  0.82648  1.0000 0.7148759139
H   H1        1.0  0.57310  0.89500  0.02510  1.0000 0.1217654221
H   H2        1.0  0.67810  0.57310  0.19177  1.0000 0.1217654221
H   H3        1.0  0.10500  0.67810  0.35843  1.0000 0.1217654221
H   H4        1.0  0.42690  0.10500  0.52510  1.0000 0.1217654221
H   H5        1.0  0.32190  0.42690  0.69177  1.0000 0.1217654221
H   H6        1.0  0.89500  0.32190  0.85843  1.0000 0.1217654221
H   H7        1.0  0.61640  0.79510  0.06950  1.0000 0.1432987813
H   H8        1.0  0.82130  0.61640  0.23617  1.0000 0.1432987813
H   H9        1.0  0.20490  0.82130  0.40283  1.0000 0.1432987813
H   H10       1.0  0.38360  0.20490  0.56950  1.0000 0.1432987813
H   H11       1.0  0.17870  0.38360  0.73617  1.0000 0.1432987813
H   H12       1.0  0.79510  0.17870  0.90283  1.0000 0.1432987813
H   H13       1.0  0.46500  0.64690  0.77360  1.0000 0.1432987813
H   H14       1.0  0.81810  0.46500  0.94027  1.0000 0.1432987813
H   H15       1.0  0.35310  0.81810  0.10693  1.0000 0.1432987813
H   H16       1.0  0.53500  0.35310  0.27360  1.0000 0.1432987813
H   H17       1.0  0.18190  0.53500  0.44027  1.0000 0.1432987813
H   H18       1.0  0.64690  0.18190  0.60693  1.0000 0.1432987813
H   H19       1.0  0.43300  0.75520  0.72780  1.0000 0.1217654221
H   H20       1.0  0.67780  0.43300  0.89447  1.0000 0.1217654221
H   H21       1.0  0.24480  0.67780  0.06113  1.0000 0.1217654221
H   H22       1.0  0.56700  0.24480  0.22780  1.0000 0.1217654221
H   H23       1.0  0.32220  0.56700  0.39447  1.0000 0.1217654221
H   H24       1.0  0.75520  0.32220  0.56113  1.0000 0.1217654221
H   H25       1.0  0.60910  0.63960  0.88910  1.0000 0.1432987813
H   H26       1.0  0.96950  0.60910  0.05577  1.0000 0.1432987813
H   H27       1.0  0.36040  0.96950  0.22243  1.0000 0.1432987813
H   H28       1.0  0.39090  0.36040  0.38910  1.0000 0.1432987813
H   H29       1.0  0.03050  0.39090  0.55577  1.0000 0.1432987813
H   H30       1.0  0.63960  0.03050  0.72243  1.0000 0.1432987813
H   H31       1.0  0.60090  0.65220  0.03860  1.0000 0.1217654221
H   H32       1.0  0.94870  0.60090  0.20527  1.0000 0.1217654221
H   H33       1.0  0.34780  0.94870  0.37193  1.0000 0.1217654221
H   H34       1.0  0.39910  0.34780  0.53860  1.0000 0.1217654221
H   H35       1.0  0.05130  0.39910  0.70527  1.0000 0.1217654221
H   H36       1.0  0.65220  0.05130  0.87193  1.0000 0.1217654221
H   H37       1.0  0.43030  0.59560  0.07480  1.0000 0.1032020336
H   H38       1.0  0.83470  0.43030  0.24147  1.0000 0.1032020336
H   H39       1.0  0.40440  0.83470  0.40813  1.0000 0.1032020336
H   H40       1.0  0.56970  0.40440  0.57480  1.0000 0.1032020336
H   H41       1.0  0.16530  0.56970  0.74147  1.0000 0.1032020336
H   H42       1.0  0.59560  0.16530  0.90813  1.0000 0.1032020336
H   H43       1.0  0.31770  0.47990  0.95730  1.0000 0.1217654221
H   H44       1.0  0.83780  0.31770  0.12397  1.0000 0.1217654221
H   H45       1.0  0.52010  0.83780  0.29063  1.0000 0.1217654221
H   H46       1.0  0.68230  0.52010  0.45730  1.0000 0.1217654221
H   H47       1.0  0.16220  0.68230  0.62397  1.0000 0.1217654221
H   H48       1.0  0.47990  0.16220  0.79063  1.0000 0.1217654221
H   H49       1.0  0.30060  0.45560  0.10550  1.0000 0.1517198418
H   H50       1.0  0.84500  0.30060  0.27217  1.0000 0.1517198418
H   H51       1.0  0.54440  0.84500  0.43883  1.0000 0.1517198418
H   H52       1.0  0.69940  0.54440  0.60550  1.0000 0.1517198418
H   H53       1.0  0.15500  0.69940  0.77217  1.0000 0.1517198418
H   H54       1.0  0.45560  0.15500  0.93883  1.0000 0.1517198418
H   H55       1.0  0.34180  0.41250  0.01740  1.0000 0.133940689
H   H56       1.0  0.92930  0.34180  0.18407  1.0000 0.133940689
H   H57       1.0  0.58750  0.92930  0.35073  1.0000 0.133940689
H   H58       1.0  0.65820  0.58750  0.51740  1.0000 0.133940689
H   H59       1.0  0.07070  0.65820  0.68407  1.0000 0.133940689
H   H60       1.0  0.41250  0.07070  0.85073  1.0000 0.133940689
H   H61       1.0  0.46430  0.53720  0.88580  1.0000 0.2489647043
H   H62       1.0  0.92710  0.46430  0.05247  1.0000 0.2489647043
H   H63       1.0  0.46280  0.92710  0.21913  1.0000 0.2489647043
H   H64       1.0  0.53570  0.46280  0.38580  1.0000 0.2489647043
H   H65       1.0  0.07290  0.53570  0.55247  1.0000 0.2489647043
H   H66       1.0  0.53720  0.07290  0.71913  1.0000 0.2489647043
C   C1        1.0  0.55260  0.84530  0.97260  1.0000 0.0668329817
C   C2        1.0  0.70730  0.55260  0.13927  1.0000 0.0668329817
C   C3        1.0  0.15470  0.70730  0.30593  1.0000 0.0668329817
C   C4        1.0  0.44740  0.15470  0.47260  1.0000 0.0668329817
C   C5        1.0  0.29270  0.44740  0.63927  1.0000 0.0668329817
C   C6        1.0  0.84530  0.29270  0.80593  1.0000 0.0668329817
C   C7        1.0  0.57780  0.78510  0.00090  1.0000 -0.1981339532
C   C8        1.0  0.79270  0.57780  0.16757  1.0000 -0.1981339532
C   C9        1.0  0.21490  0.79270  0.33423  1.0000 -0.1981339532
C   C10       1.0  0.42220  0.21490  0.50090  1.0000 -0.1981339532
C   C11       1.0  0.20730  0.42220  0.66757  1.0000 -0.1981339532
C   C12       1.0  0.78510  0.20730  0.83423  1.0000 -0.1981339532
C   C13       1.0  0.54570  0.70870  0.92660  1.0000 0.1517198418
C   C14       1.0  0.83700  0.54570  0.09327  1.0000 0.1517198418
C   C15       1.0  0.29130  0.83700  0.25993  1.0000 0.1517198418
C   C16       1.0  0.45430  0.29130  0.42660  1.0000 0.1517198418
C   C17       1.0  0.16300  0.45430  0.59327  1.0000 0.1517198418
C   C18       1.0  0.70870  0.16300  0.75993  1.0000 0.1517198418
C   C19       1.0  0.48910  0.69780  0.82420  1.0000 -0.1789371299
C   C20       1.0  0.79130  0.48910  0.99087  1.0000 -0.1789371299
C   C21       1.0  0.30220  0.79130  0.15753  1.0000 -0.1789371299
C   C22       1.0  0.51090  0.30220  0.32420  1.0000 -0.1789371299
C   C23       1.0  0.20870  0.51090  0.49087  1.0000 -0.1789371299
C   C24       1.0  0.69780  0.20870  0.65753  1.0000 -0.1789371299
C   C25       1.0  0.46910  0.76230  0.79860  1.0000 0.083467292
C   C26       1.0  0.70680  0.46910  0.96527  1.0000 0.083467292
C   C27       1.0  0.23770  0.70680  0.13193  1.0000 0.083467292
C   C28       1.0  0.53090  0.23770  0.29860  1.0000 0.083467292
C   C29       1.0  0.29320  0.53090  0.46527  1.0000 0.083467292
C   C30       1.0  0.76230  0.29320  0.63193  1.0000 0.083467292
C   C31       1.0  0.56960  0.63840  0.95620  1.0000 -0.1600733626
C   C32       1.0  0.93120  0.56960  0.12287  1.0000 -0.1600733626
C   C33       1.0  0.36160  0.93120  0.28953  1.0000 -0.1600733626
C   C34       1.0  0.43040  0.36160  0.45620  1.0000 -0.1600733626
C   C35       1.0  0.06880  0.43040  0.62287  1.0000 -0.1600733626
C   C36       1.0  0.63840  0.06880  0.78953  1.0000 -0.1600733626
C   C37       1.0  0.43150  0.54050  0.06590  1.0000 0.0147279256
C   C38       1.0  0.89100  0.43150  0.23257  1.0000 0.0147279256
C   C39       1.0  0.45950  0.89100  0.39923  1.0000 0.0147279256
C   C40       1.0  0.56850  0.45950  0.56590  1.0000 0.0147279256
C   C41       1.0  0.10900  0.56850  0.73257  1.0000 0.0147279256
C   C42       1.0  0.54050  0.10900  0.89923  1.0000 0.0147279256
C   C43       1.0  0.46150  0.51910  0.19490  1.0000 0.5726120742
C   C44       1.0  0.94240  0.46150  0.36157  1.0000 0.5726120742
C   C45       1.0  0.48090  0.94240  0.52823  1.0000 0.5726120742
C   C46       1.0  0.53850  0.48090  0.69490  1.0000 0.5726120742
C   C47       1.0  0.05760  0.53850  0.86157  1.0000 0.5726120742
C   C48       1.0  0.51910  0.05760  0.02823  1.0000 0.5726120742
C   C49       1.0  0.33930  0.46510  0.03360  1.0000 -0.4087693371
C   C50       1.0  0.87420  0.33930  0.20027  1.0000 -0.4087693371
C   C51       1.0  0.53490  0.87420  0.36693  1.0000 -0.4087693371
C   C52       1.0  0.66070  0.53490  0.53360  1.0000 -0.4087693371
C   C53       1.0  0.12580  0.66070  0.70027  1.0000 -0.4087693371
C   C54       1.0  0.46510  0.12580  0.86693  1.0000 -0.4087693371
N   N1        1.0  0.49310  0.54970  0.96350  1.0000 -0.3286094891
N   N2        1.0  0.94340  0.49310  0.13017  1.0000 -0.3286094891
N   N3        1.0  0.45030  0.94340  0.29683  1.0000 -0.3286094891
N   N4        1.0  0.50690  0.45030  0.46350  1.0000 -0.3286094891
N   N5        1.0  0.05660  0.50690  0.63017  1.0000 -0.3286094891
N   N6        1.0  0.54970  0.05660  0.79683  1.0000 -0.3286094891
N   N7        1.0  0.49970  0.83610  0.87240  1.0000 -0.2206936481
N   N8        1.0  0.66360  0.49970  0.03907  1.0000 -0.2206936481
N   N9        1.0  0.16390  0.66360  0.20573  1.0000 -0.2206936481
N   N10       1.0  0.50030  0.16390  0.37240  1.0000 -0.2206936481
N   N11       1.0  0.33640  0.50030  0.53907  1.0000 -0.2206936481
N   N12       1.0  0.83610  0.33640  0.70573  1.0000 -0.2206936481
Cl  Cl1       1.0  0.44435  0.31489  0.00300  1.0000 -0.5767796146
Cl  Cl2       1.0  0.12946  0.44435  0.16967  1.0000 -0.5767796146
Cl  Cl3       1.0  0.68511  0.12946  0.33633  1.0000 -0.5767796146
Cl  Cl4       1.0  0.55565  0.68511  0.50300  1.0000 -0.5767796146
Cl  Cl5       1.0  0.87054  0.55565  0.66967  1.0000 -0.5741035568
Cl  Cl6       1.0  0.31489  0.87054  0.83633  1.0000 -0.5767796146
O   O1        1.0  0.43010  0.53400  0.29600  1.0000 -0.5462253916
O   O2        1.0  0.89610  0.43010  0.46267  1.0000 -0.5462253916
O   O3        1.0  0.46600  0.89610  0.62933  1.0000 -0.5462253916
O   O4        1.0  0.56990  0.46600  0.79600  1.0000 -0.5462253916
O   O5        1.0  0.10390  0.56990  0.96267  1.0000 -0.5462253916
O   O6        1.0  0.53400  0.10390  0.12933  1.0000 -0.5462253916
O   O7        1.0  0.51260  0.48970  0.19060  1.0000 -0.5413492746
O   O8        1.0  0.02290  0.51260  0.35727  1.0000 -0.5413492746
O   O9        1.0  0.51030  0.02290  0.52393  1.0000 -0.5413492746
O   O10       1.0  0.48740  0.51030  0.69060  1.0000 -0.5413492746
O   O11       1.0  0.97710  0.48740  0.85727  1.0000 -0.5413492746
O   O12       1.0  0.48970  0.97710  0.02393  1.0000 -0.5413492746
