# DDEC6 charges by PACMAN v1.1 (https://github.com/mtap-research/PACMAN-charge/)
data_2013[Mg][rtl]3[FSR]1
_chemical_formula_sum              "Mg4 H32 C48 N8 O16"
_cell_length_a       9.8836
_cell_length_b       12.8681
_cell_length_c       10.9817
_cell_angle_alpha    90
_cell_angle_beta     99.384
_cell_angle_gamma    90

_symmetry_space_group_name_H-M    "P 1"
_symmetry_Int_Tables_number       1

loop_
  _symmetry_equiv_pos_as_xyz
  'x, y, z'

loop_
  _atom_site_type_symbol
  _atom_site_label
  _atom_site_symmetry_multiplicity
  _atom_site_fract_x
  _atom_site_fract_y
  _atom_site_fract_z
  _atom_site_occupancy
  _atom_site_charge
Mg  Mg1       1.0  0.62790  0.76510  0.74970  1.0000 1.2830251787
Mg  Mg2       1.0  0.37210  0.26510  0.25030  1.0000 1.2830251787
Mg  Mg3       1.0  0.12500  0.76430  0.75260  1.0000 1.2830251787
Mg  Mg4       1.0  0.87500  0.26430  0.24740  1.0000 1.2830251787
H   H1        1.0  0.09950  0.53880  0.01150  1.0000 0.1212800012
H   H2        1.0  0.90050  0.03880  0.98850  1.0000 0.1212800012
H   H3        1.0  0.08650  0.39990  0.13860  1.0000 0.1050239687
H   H4        1.0  0.91350  0.89990  0.86140  1.0000 0.1050239687
H   H5        1.0  0.69340  0.58210  0.99710  1.0000 0.1212800012
H   H6        1.0  0.30660  0.08210  0.00290  1.0000 0.1212800012
H   H7        1.0  0.69480  0.44180  0.12360  1.0000 0.1000216116
H   H8        1.0  0.30520  0.94180  0.87640  1.0000 0.1000216116
H   H9        1.0  0.05040  0.93370  0.49610  1.0000 0.1326541687
H   H10       1.0  0.94960  0.43370  0.50390  1.0000 0.1326541687
H   H11       1.0  0.05340  0.07220  0.36350  1.0000 0.1050239687
H   H12       1.0  0.94660  0.57220  0.63650  1.0000 0.1050239687
H   H13       1.0  0.65360  0.99260  0.49820  1.0000 0.1212800012
H   H14       1.0  0.34640  0.49260  0.50180  1.0000 0.1212800012
H   H15       1.0  0.66667  0.12810  0.36520  1.0000 0.1000216116
H   H16       1.0  0.33333  0.62810  0.63480  1.0000 0.1000216116
H   H17       1.0  0.38390  0.87570  0.37360  1.0000 0.1404551153
H   H18       1.0  0.61610  0.37570  0.62640  1.0000 0.1404551153
H   H19       1.0  0.37660  0.01810  0.24660  1.0000 0.1000216116
H   H20       1.0  0.62340  0.51810  0.75340  1.0000 0.1000216116
H   H21       1.0  0.33310  0.06480  0.64880  1.0000 0.1326541687
H   H22       1.0  0.66690  0.56480  0.35120  1.0000 0.1326541687
H   H23       1.0  0.35050  0.20130  0.52440  1.0000 0.1212800012
H   H24       1.0  0.64950  0.70130  0.47560  1.0000 0.1212800012
H   H25       1.0  0.39290  0.46110  0.84760  1.0000 0.1326541687
H   H26       1.0  0.60710  0.96110  0.15240  1.0000 0.1326541687
H   H27       1.0  0.38150  0.32260  0.98050  1.0000 0.1050239687
H   H28       1.0  0.61850  0.82260  0.01950  1.0000 0.1050239687
H   H29       1.0  0.39820  0.65060  0.13510  1.0000 0.1404551153
H   H30       1.0  0.60180  0.15060  0.86490  1.0000 0.1404551153
H   H31       1.0  0.38450  0.50730  0.25790  1.0000 0.1000216116
H   H32       1.0  0.61550  0.00730  0.74210  1.0000 0.1000216116
C   C1        1.0  0.90350  0.66610  0.89900  1.0000 0.6241520677
C   C2        1.0  0.09650  0.16610  0.10100  1.0000 0.6250863109
C   C3        1.0  0.89570  0.57640  0.98410  1.0000 0.0023287946
C   C4        1.0  0.10430  0.07640  0.01590  1.0000 0.0023287946
C   C5        1.0  0.01530  0.51960  0.03180  1.0000 -0.1595984365
C   C6        1.0  0.98470  0.01960  0.96820  1.0000 -0.1595984365
C   C7        1.0  0.00690  0.43620  0.10790  1.0000 0.08863686
C   C8        1.0  0.99310  0.93620  0.89210  1.0000 0.08863686
C   C9        1.0  0.77450  0.54590  0.02260  1.0000 -0.1722100119
C   C10       1.0  0.22550  0.04590  0.97740  1.0000 -0.1722100119
C   C11       1.0  0.77670  0.46130  0.09880  1.0000 0.08863686
C   C12       1.0  0.22330  0.96130  0.90120  1.0000 0.08863686
C   C13       1.0  0.84710  0.85900  0.60290  1.0000 0.6015996371
C   C14       1.0  0.15290  0.35900  0.39710  1.0000 0.6015996371
C   C15       1.0  0.84910  0.94790  0.51210  1.0000 0.0187971361
C   C16       1.0  0.15090  0.44790  0.48790  1.0000 0.0187971361
C   C17       1.0  0.97140  0.97260  0.47140  1.0000 -0.1595984365
C   C18       1.0  0.02860  0.47260  0.52860  1.0000 -0.1595984365
C   C19       1.0  0.97220  0.05740  0.39250  1.0000 0.1000216116
C   C20       1.0  0.02780  0.55740  0.60750  1.0000 0.1000216116
C   C21       1.0  0.73650  0.00750  0.47240  1.0000 -0.1722100119
C   C22       1.0  0.26350  0.50750  0.52760  1.0000 -0.1722100119
C   C23       1.0  0.74580  0.09030  0.39350  1.0000 0.0705800538
C   C24       1.0  0.25420  0.59030  0.60650  1.0000 0.0705800538
C   C25       1.0  0.34820  0.85930  0.60700  1.0000 0.6082388793
C   C26       1.0  0.65180  0.35930  0.39300  1.0000 0.6082388793
C   C27       1.0  0.35050  0.95230  0.52210  1.0000 0.0187971361
C   C28       1.0  0.64950  0.45230  0.47790  1.0000 0.0187971361
C   C29       1.0  0.37040  0.94140  0.40470  1.0000 -0.1820096637
C   C30       1.0  0.62960  0.44140  0.59530  1.0000 -0.1820096637
C   C31       1.0  0.37080  0.02860  0.32940  1.0000 0.1000216116
C   C32       1.0  0.62920  0.52860  0.67060  1.0000 0.1000216116
C   C33       1.0  0.34360  0.05370  0.56720  1.0000 -0.1722100119
C   C34       1.0  0.65640  0.55370  0.43280  1.0000 -0.1722100119
C   C35       1.0  0.35220  0.13460  0.49190  1.0000 0.0446665694
C   C36       1.0  0.64780  0.63460  0.50810  1.0000 0.0446665694
C   C37       1.0  0.40360  0.66550  0.89350  1.0000 0.6082388793
C   C38       1.0  0.59640  0.16550  0.10650  1.0000 0.6082388793
C   C39       1.0  0.39230  0.57430  0.97590  1.0000 0.0149196439
C   C40       1.0  0.60770  0.07430  0.02410  1.0000 0.0149196439
C   C41       1.0  0.39040  0.47330  0.93060  1.0000 -0.1870496388
C   C42       1.0  0.60960  0.97330  0.06940  1.0000 -0.1870496388
C   C43       1.0  0.38460  0.38980  0.01200  1.0000 0.1000216116
C   C44       1.0  0.61540  0.88980  0.98800  1.0000 0.1000216116
C   C45       1.0  0.39320  0.58470  0.09990  1.0000 -0.1820096637
C   C46       1.0  0.60680  0.08470  0.90010  1.0000 -0.1820096637
C   C47       1.0  0.38670  0.49770  0.17430  1.0000 0.0777126734
C   C48       1.0  0.61330  0.99770  0.82570  1.0000 0.0777126734
N   N1        1.0  0.88810  0.40510  0.13980  1.0000 -0.300460581
N   N2        1.0  0.11190  0.90510  0.86020  1.0000 -0.300460581
N   N3        1.0  0.86360  0.11910  0.35550  1.0000 -0.3109064515
N   N4        1.0  0.13640  0.61910  0.64450  1.0000 -0.3109064515
N   N5        1.0  0.36360  0.12420  0.36780  1.0000 -0.300460581
N   N6        1.0  0.63640  0.62420  0.63220  1.0000 -0.300460581
N   N7        1.0  0.38350  0.40240  0.13050  1.0000 -0.2756856646
N   N8        1.0  0.61650  0.90240  0.86950  1.0000 -0.2756856646
O   O1        1.0  0.79600  0.71950  0.86630  1.0000 -0.6620392765
O   O2        1.0  0.20400  0.21950  0.13370  1.0000 -0.6620392765
O   O3        1.0  0.01760  0.68320  0.86470  1.0000 -0.6414560741
O   O4        1.0  0.98240  0.18320  0.13530  1.0000 -0.6414560741
O   O5        1.0  0.73540  0.85090  0.64240  1.0000 -0.6459245648
O   O6        1.0  0.26460  0.35090  0.35760  1.0000 -0.6459245648
O   O7        1.0  0.94970  0.80640  0.62870  1.0000 -0.5888740386
O   O8        1.0  0.05030  0.30640  0.37130  1.0000 -0.5888740386
O   O9        1.0  0.45290  0.80730  0.63000  1.0000 -0.6087116714
O   O10       1.0  0.54710  0.30730  0.37000  1.0000 -0.6087116714
O   O11       1.0  0.23620  0.84580  0.64100  1.0000 -0.6087116714
O   O12       1.0  0.76380  0.34580  0.35900  1.0000 -0.6087116714
O   O13       1.0  0.51500  0.67540  0.85400  1.0000 -0.6414560741
O   O14       1.0  0.48500  0.17540  0.14600  1.0000 -0.6414560741
O   O15       1.0  0.30260  0.72750  0.87120  1.0000 -0.6414560741
O   O16       1.0  0.69740  0.22750  0.12880  1.0000 -0.6414560741
