# DDEC6 charges by PACMAN v1.1 (https://github.com/mtap-research/PACMAN-charge/)
data_2013[Zn][bbf]3[FSR]2
_chemical_formula_sum              "Zn4 H60 C88 N16 O20"
_cell_length_a       8.158
_cell_length_b       17.418
_cell_length_c       18.2642
_cell_angle_alpha    90
_cell_angle_beta     107.952
_cell_angle_gamma    90

_symmetry_space_group_name_H-M    "P 1"
_symmetry_Int_Tables_number       1

loop_
  _symmetry_equiv_pos_as_xyz
  'x, y, z'

loop_
  _atom_site_type_symbol
  _atom_site_label
  _atom_site_symmetry_multiplicity
  _atom_site_fract_x
  _atom_site_fract_y
  _atom_site_fract_z
  _atom_site_occupancy
  _atom_site_charge
Zn  Zn1       1.0  0.00245  0.69417  0.24826  1.0000 0.7430348294
Zn  Zn2       1.0  0.99755  0.19417  0.25174  1.0000 0.7430348294
Zn  Zn3       1.0  0.99755  0.30583  0.75174  1.0000 0.7430348294
Zn  Zn4       1.0  0.00245  0.80583  0.74826  1.0000 0.7430348294
H   H1        1.0  0.07620  0.72790  0.02530  1.0000 0.1291270924
H   H2        1.0  0.92380  0.22790  0.47470  1.0000 0.1291270924
H   H3        1.0  0.92380  0.27210  0.97470  1.0000 0.1291270924
H   H4        1.0  0.07620  0.77210  0.52530  1.0000 0.1291270924
H   H5        1.0  0.40790  0.66650  0.91370  1.0000 0.1291270924
H   H6        1.0  0.59210  0.16650  0.58630  1.0000 0.1291270924
H   H7        1.0  0.59210  0.33350  0.08630  1.0000 0.1291270924
H   H8        1.0  0.40790  0.83350  0.41370  1.0000 0.1291270924
H   H9        1.0  0.48080  0.59720  0.13170  1.0000 0.1291270924
H   H10       1.0  0.51920  0.09720  0.36830  1.0000 0.1291270924
H   H11       1.0  0.51920  0.40280  0.86830  1.0000 0.1291270924
H   H12       1.0  0.48080  0.90280  0.63170  1.0000 0.1291270924
H   H13       1.0  0.59630  0.56540  0.92160  1.0000 0.1186724268
H   H14       1.0  0.40370  0.06540  0.57840  1.0000 0.1186724268
H   H15       1.0  0.40370  0.43460  0.07840  1.0000 0.1186724268
H   H16       1.0  0.59630  0.93460  0.42160  1.0000 0.1186724268
H   H17       1.0  0.70390  0.63980  0.95290  1.0000 0.1186724268
H   H18       1.0  0.29610  0.13980  0.54710  1.0000 0.1186724268
H   H19       1.0  0.29610  0.36020  0.04710  1.0000 0.1186724268
H   H20       1.0  0.70390  0.86020  0.45290  1.0000 0.1186724268
H   H21       1.0  0.89050  0.56230  0.88460  1.0000 0.1186724268
H   H22       1.0  0.10950  0.06230  0.61540  1.0000 0.1186724268
H   H23       1.0  0.10950  0.43770  0.11540  1.0000 0.1186724268
H   H24       1.0  0.89050  0.93770  0.38460  1.0000 0.1186724268
H   H25       1.0  0.85980  0.50680  0.09120  1.0000 0.1186724268
H   H26       1.0  0.14020  0.00680  0.40880  1.0000 0.1186724268
H   H27       1.0  0.14020  0.49320  0.90880  1.0000 0.1186724268
H   H28       1.0  0.85980  0.99320  0.59120  1.0000 0.1186724268
H   H29       1.0  0.71970  0.75980  0.30530  1.0000 0.1186724268
H   H30       1.0  0.28030  0.25980  0.19470  1.0000 0.1186724268
H   H31       1.0  0.28030  0.24020  0.69470  1.0000 0.1186724268
H   H32       1.0  0.71970  0.74020  0.80530  1.0000 0.1186724268
H   H33       1.0  0.46210  0.82120  0.26140  1.0000 0.1423727135
H   H34       1.0  0.53790  0.32120  0.23860  1.0000 0.1423727135
H   H35       1.0  0.53790  0.17880  0.73860  1.0000 0.1423727135
H   H36       1.0  0.46210  0.67880  0.76140  1.0000 0.1423727135
H   H37       1.0  0.53650  0.83430  0.05410  1.0000 0.1471747021
H   H38       1.0  0.46350  0.33430  0.44590  1.0000 0.1471747021
H   H39       1.0  0.46350  0.16570  0.94590  1.0000 0.1471747021
H   H40       1.0  0.53650  0.66570  0.55410  1.0000 0.1471747021
H   H41       1.0  0.78850  0.76880  0.10380  1.0000 0.1186724268
H   H42       1.0  0.21150  0.26880  0.39620  1.0000 0.1186724268
H   H43       1.0  0.21150  0.23120  0.89620  1.0000 0.1186724268
H   H44       1.0  0.78850  0.73120  0.60380  1.0000 0.1186724268
H   H45       1.0  0.94840  0.90960  0.21760  1.0000 0.1423727135
H   H46       1.0  0.05160  0.40960  0.28240  1.0000 0.1423727135
H   H47       1.0  0.05160  0.09040  0.78240  1.0000 0.1423727135
H   H48       1.0  0.94840  0.59040  0.71760  1.0000 0.1423727135
H   H49       1.0  0.88040  0.03020  0.25270  1.0000 0.1186724268
H   H50       1.0  0.11960  0.53020  0.24730  1.0000 0.1186724268
H   H51       1.0  0.11960  0.96980  0.74730  1.0000 0.1186724268
H   H52       1.0  0.88040  0.46980  0.75270  1.0000 0.1186724268
H   H53       1.0  0.27690  0.12010  0.21110  1.0000 0.1186724268
H   H54       1.0  0.72310  0.62010  0.28890  1.0000 0.1186724268
H   H55       1.0  0.72310  0.87990  0.78890  1.0000 0.1186724268
H   H56       1.0  0.27690  0.37990  0.71110  1.0000 0.1186724268
H   H57       1.0  0.35490  0.00380  0.17270  1.0000 0.1423727135
H   H58       1.0  0.64510  0.50380  0.32730  1.0000 0.1423727135
H   H59       1.0  0.64510  0.99620  0.82730  1.0000 0.1423727135
H   H60       1.0  0.35490  0.49620  0.67270  1.0000 0.1423727135
C   C1        1.0  0.21740  0.66140  0.16040  1.0000 0.560172786
C   C2        1.0  0.78260  0.16140  0.33960  1.0000 0.560172786
C   C3        1.0  0.78260  0.33860  0.83960  1.0000 0.560172786
C   C4        1.0  0.21740  0.83860  0.66040  1.0000 0.560172786
C   C5        1.0  0.26930  0.66280  0.08850  1.0000 -0.0096009262
C   C6        1.0  0.73070  0.16280  0.41150  1.0000 -0.0096009262
C   C7        1.0  0.73070  0.33720  0.91150  1.0000 -0.0096009262
C   C8        1.0  0.26930  0.83720  0.58850  1.0000 -0.0096009262
C   C9        1.0  0.17570  0.70220  0.02480  1.0000 -0.1212129285
C   C10       1.0  0.82430  0.20220  0.47520  1.0000 -0.1212129285
C   C11       1.0  0.82430  0.29780  0.97520  1.0000 -0.1212129285
C   C12       1.0  0.17570  0.79780  0.52480  1.0000 -0.1212129285
C   C13       1.0  0.22790  0.70440  0.95960  1.0000 0.0055869893
C   C14       1.0  0.77210  0.20440  0.54040  1.0000 0.0055869893
C   C15       1.0  0.77210  0.29560  0.04040  1.0000 0.0055869893
C   C16       1.0  0.22790  0.79560  0.45960  1.0000 0.0055869893
C   C17       1.0  0.12040  0.74720  0.88920  1.0000 0.5488031404
C   C18       1.0  0.87960  0.24720  0.61080  1.0000 0.5488031404
C   C19       1.0  0.87960  0.25280  0.11080  1.0000 0.5488031404
C   C20       1.0  0.12040  0.75280  0.38920  1.0000 0.5488031404
C   C21       1.0  0.37410  0.66610  0.95790  1.0000 -0.2465703552
C   C22       1.0  0.62590  0.16610  0.54210  1.0000 -0.2465703552
C   C23       1.0  0.62590  0.33390  0.04210  1.0000 -0.2465703552
C   C24       1.0  0.37410  0.83390  0.45790  1.0000 -0.2465703552
C   C25       1.0  0.47050  0.62680  0.02320  1.0000 0.2409504401
C   C26       1.0  0.52950  0.12680  0.47680  1.0000 0.2409504401
C   C27       1.0  0.52950  0.37320  0.97680  1.0000 0.2409504401
C   C28       1.0  0.47050  0.87320  0.52320  1.0000 0.2409504401
C   C29       1.0  0.41740  0.62440  0.08850  1.0000 -0.2200481993
C   C30       1.0  0.58260  0.12440  0.41150  1.0000 -0.2200481993
C   C31       1.0  0.58260  0.37560  0.91150  1.0000 -0.2200481993
C   C32       1.0  0.41740  0.87560  0.58850  1.0000 -0.2200481993
C   C33       1.0  0.68220  0.58760  0.96570  1.0000 -0.0589999649
C   C34       1.0  0.31780  0.08760  0.53430  1.0000 -0.0589999649
C   C35       1.0  0.31780  0.41240  0.03430  1.0000 -0.0589999649
C   C36       1.0  0.68220  0.91240  0.46570  1.0000 -0.0589999649
C   C37       1.0  0.84700  0.54130  0.98420  1.0000 0.0887993944
C   C38       1.0  0.15300  0.04130  0.51580  1.0000 0.0887993944
C   C39       1.0  0.15300  0.45870  0.01580  1.0000 0.0887993944
C   C40       1.0  0.84700  0.95870  0.48420  1.0000 0.0887993944
C   C41       1.0  0.93400  0.53690  0.93150  1.0000 -0.1400865158
C   C42       1.0  0.06600  0.03690  0.56850  1.0000 -0.1400865158
C   C43       1.0  0.06600  0.46310  0.06850  1.0000 -0.1400865158
C   C44       1.0  0.93400  0.96310  0.43150  1.0000 -0.1400865158
C   C45       1.0  0.91580  0.50400  0.05400  1.0000 -0.1212129285
C   C46       1.0  0.08420  0.00400  0.44600  1.0000 -0.1212129285
C   C47       1.0  0.08420  0.49600  0.94600  1.0000 -0.1212129285
C   C48       1.0  0.91580  0.99600  0.55400  1.0000 -0.1212129285
C   C49       1.0  0.68050  0.77400  0.25380  1.0000 0.077281029
C   C50       1.0  0.31950  0.27400  0.24620  1.0000 0.077281029
C   C51       1.0  0.31950  0.22600  0.74620  1.0000 0.077281029
C   C52       1.0  0.68050  0.72600  0.75380  1.0000 0.077281029
C   C53       1.0  0.52580  0.81130  0.22810  1.0000 -0.1994805711
C   C54       1.0  0.47420  0.31130  0.27190  1.0000 -0.1994805711
C   C55       1.0  0.47420  0.18870  0.77190  1.0000 -0.1994805711
C   C56       1.0  0.52580  0.68870  0.72810  1.0000 -0.1994805711
C   C57       1.0  0.46490  0.83420  0.15140  1.0000 0.2409504401
C   C58       1.0  0.53510  0.33420  0.34860  1.0000 0.2409504401
C   C59       1.0  0.53510  0.16580  0.84860  1.0000 0.2409504401
C   C60       1.0  0.46490  0.66580  0.65140  1.0000 0.2409504401
C   C61       1.0  0.56980  0.81850  0.10520  1.0000 -0.1994805711
C   C62       1.0  0.43020  0.31850  0.39480  1.0000 -0.1994805711
C   C63       1.0  0.43020  0.18150  0.89480  1.0000 -0.1994805711
C   C64       1.0  0.56980  0.68150  0.60520  1.0000 -0.1994805711
C   C65       1.0  0.72200  0.77970  0.13570  1.0000 0.0887993944
C   C66       1.0  0.27800  0.27970  0.36430  1.0000 0.0887993944
C   C67       1.0  0.27800  0.22030  0.86430  1.0000 0.0887993944
C   C68       1.0  0.72200  0.72030  0.63570  1.0000 0.0887993944
C   C69       1.0  0.16010  0.94300  0.18870  1.0000 0.2300504344
C   C70       1.0  0.83990  0.44300  0.31130  1.0000 0.2300504344
C   C71       1.0  0.83990  0.05700  0.81130  1.0000 0.2300504344
C   C72       1.0  0.16010  0.55700  0.68870  1.0000 0.2300504344
C   C73       1.0  0.01620  0.95170  0.21460  1.0000 -0.2200481993
C   C74       1.0  0.98380  0.45170  0.28540  1.0000 -0.2200481993
C   C75       1.0  0.98380  0.04830  0.78540  1.0000 -0.2200481993
C   C76       1.0  0.01620  0.54830  0.71460  1.0000 -0.2200481993
C   C77       1.0  0.97650  0.02490  0.23600  1.0000 0.112944712
C   C78       1.0  0.02350  0.52490  0.26400  1.0000 0.112944712
C   C79       1.0  0.02350  0.97510  0.76400  1.0000 0.112944712
C   C80       1.0  0.97650  0.47510  0.73600  1.0000 0.112944712
C   C81       1.0  0.20880  0.07730  0.21120  1.0000 0.0887993944
C   C82       1.0  0.79120  0.57730  0.28880  1.0000 0.0887993944
C   C83       1.0  0.79120  0.92270  0.78880  1.0000 0.0887993944
C   C84       1.0  0.20880  0.42270  0.71120  1.0000 0.0887993944
C   C85       1.0  0.25690  0.00730  0.18830  1.0000 -0.1938488958
C   C86       1.0  0.74310  0.50730  0.31170  1.0000 -0.1938488958
C   C87       1.0  0.74310  0.99270  0.81170  1.0000 -0.1938488958
C   C88       1.0  0.25690  0.49270  0.68830  1.0000 -0.1938488958
N   N1        1.0  0.77970  0.75660  0.20940  1.0000 -0.244400437
N   N2        1.0  0.22030  0.25660  0.29060  1.0000 -0.244400437
N   N3        1.0  0.22030  0.24340  0.79060  1.0000 -0.244400437
N   N4        1.0  0.77970  0.74340  0.70940  1.0000 -0.244400437
N   N5        1.0  0.31030  0.87070  0.12070  1.0000 -0.1994805711
N   N6        1.0  0.68970  0.37070  0.37930  1.0000 -0.1994805711
N   N7        1.0  0.68970  0.12930  0.87930  1.0000 -0.1994805711
N   N8        1.0  0.31030  0.62930  0.62070  1.0000 -0.1994805711
N   N9        1.0  0.19620  0.87320  0.16330  1.0000 -0.1702105803
N   N10       1.0  0.80380  0.37320  0.33670  1.0000 -0.1702105803
N   N11       1.0  0.80380  0.12680  0.83670  1.0000 -0.1702105803
N   N12       1.0  0.19620  0.62680  0.66330  1.0000 -0.1702105803
N   N13       1.0  0.06640  0.08590  0.23360  1.0000 -0.2327498486
N   N14       1.0  0.93360  0.58590  0.26640  1.0000 -0.2327498486
N   N15       1.0  0.93360  0.91410  0.76640  1.0000 -0.2327498486
N   N16       1.0  0.06640  0.41410  0.73360  1.0000 -0.2327498486
O   O1        1.0  0.08600  0.70400  0.15930  1.0000 -0.5527771068
O   O2        1.0  0.91400  0.20400  0.34070  1.0000 -0.5527771068
O   O3        1.0  0.91400  0.29600  0.84070  1.0000 -0.5527771068
O   O4        1.0  0.08600  0.79600  0.65930  1.0000 -0.5527771068
O   O5        1.0  0.29660  0.62240  0.21630  1.0000 -0.5527771068
O   O6        1.0  0.70340  0.12240  0.28370  1.0000 -0.5527771068
O   O7        1.0  0.70340  0.37760  0.78370  1.0000 -0.5527771068
O   O8        1.0  0.29660  0.87760  0.71630  1.0000 -0.5527771068
O   O9        1.0  0.98630  0.78110  0.89020  1.0000 -0.5676236255
O   O10       1.0  0.01370  0.28110  0.60980  1.0000 -0.5676236255
O   O11       1.0  0.01370  0.21890  0.10980  1.0000 -0.5676236255
O   O12       1.0  0.98630  0.71890  0.39020  1.0000 -0.5676236255
O   O13       1.0  0.16980  0.74680  0.83010  1.0000 -0.5164066059
O   O14       1.0  0.83020  0.24680  0.66990  1.0000 -0.5164066059
O   O15       1.0  0.83020  0.25320  0.16990  1.0000 -0.5164066059
O   O16       1.0  0.16980  0.75320  0.33010  1.0000 -0.5164066059
O   O17       1.0  0.62020  0.58770  0.02970  1.0000 -0.1702105803
O   O18       1.0  0.37980  0.08770  0.47030  1.0000 -0.1702105803
O   O19       1.0  0.37980  0.41230  0.97030  1.0000 -0.1702105803
O   O20       1.0  0.62020  0.91230  0.52970  1.0000 -0.1702105803
