# DDEC6 charges by PACMAN v1.1 (https://github.com/mtap-research/PACMAN-charge/)
data_2013[Co][nan]3[FSR]12
_chemical_formula_sum              "Co12 H32 C56 N8 O40"
_cell_length_a       10.767
_cell_length_b       14.345
_cell_length_c       17.3843
_cell_angle_alpha    90
_cell_angle_beta     109.908
_cell_angle_gamma    90

_symmetry_space_group_name_H-M    "P 1"
_symmetry_Int_Tables_number       1

loop_
  _symmetry_equiv_pos_as_xyz
  'x, y, z'

loop_
  _atom_site_type_symbol
  _atom_site_label
  _atom_site_symmetry_multiplicity
  _atom_site_fract_x
  _atom_site_fract_y
  _atom_site_fract_z
  _atom_site_occupancy
  _atom_site_charge
Co  Co1       1.0  0.95859  0.47348  0.40550  1.0000 0.9732733716
Co  Co2       1.0  0.04141  0.97348  0.09450  1.0000 0.9732733716
Co  Co3       1.0  0.04141  0.52652  0.59450  1.0000 0.9732733716
Co  Co4       1.0  0.95859  0.02652  0.90550  1.0000 0.9732733716
Co  Co5       1.0  0.24988  0.40868  0.50074  1.0000 1.0628830839
Co  Co6       1.0  0.75012  0.90868  0.99926  1.0000 1.0628830839
Co  Co7       1.0  0.75012  0.59132  0.49926  1.0000 1.0651736904
Co  Co8       1.0  0.24988  0.09132  0.00074  1.0000 1.0628830839
Co  Co9       1.0  0.54116  0.47158  0.59299  1.0000 0.9591259558
Co  Co10      1.0  0.45884  0.97158  0.90701  1.0000 0.9591259558
Co  Co11      1.0  0.45884  0.52842  0.40701  1.0000 0.9591259558
Co  Co12      1.0  0.54116  0.02842  0.09299  1.0000 0.9591259558
H   H1        1.0  0.87650  0.21050  0.24350  1.0000 0.1501417768
H   H2        1.0  0.12350  0.71050  0.25650  1.0000 0.1501417768
H   H3        1.0  0.12350  0.78950  0.75650  1.0000 0.1501417768
H   H4        1.0  0.87650  0.28950  0.74350  1.0000 0.1501417768
H   H5        1.0  0.27280  0.18710  0.34280  1.0000 0.1301963676
H   H6        1.0  0.72720  0.68710  0.15720  1.0000 0.1301963676
H   H7        1.0  0.72720  0.81290  0.65720  1.0000 0.1301963676
H   H8        1.0  0.27280  0.31290  0.84280  1.0000 0.1301963676
H   H9        1.0  0.26260  0.06810  0.24850  1.0000 0.111172261
H   H10       1.0  0.73740  0.56810  0.25150  1.0000 0.111172261
H   H11       1.0  0.73740  0.93190  0.75150  1.0000 0.111172261
H   H12       1.0  0.26260  0.43190  0.74850  1.0000 0.111172261
H   H13       1.0  0.61830  0.20480  0.74830  1.0000 0.1501417768
H   H14       1.0  0.38170  0.70480  0.75170  1.0000 0.1501417768
H   H15       1.0  0.38170  0.79520  0.25170  1.0000 0.1501417768
H   H16       1.0  0.61830  0.29520  0.24830  1.0000 0.1501417768
H   H17       1.0  0.22230  0.20140  0.67270  1.0000 0.1301963676
H   H18       1.0  0.77770  0.70140  0.82730  1.0000 0.1301963676
H   H19       1.0  0.77770  0.79860  0.32730  1.0000 0.1301963676
H   H20       1.0  0.22230  0.29860  0.17270  1.0000 0.1301963676
H   H21       1.0  0.23390  0.08020  0.76330  1.0000 0.111172261
H   H22       1.0  0.76610  0.58020  0.73670  1.0000 0.111172261
H   H23       1.0  0.76610  0.91980  0.23670  1.0000 0.111172261
H   H24       1.0  0.23390  0.41980  0.26330  1.0000 0.111172261
H   H25       1.0  0.04770  0.36680  0.53250  1.0000 0.3786233154
H   H26       1.0  0.95230  0.86680  0.96750  1.0000 0.3786233154
H   H27       1.0  0.95230  0.63320  0.46750  1.0000 0.3786233154
H   H28       1.0  0.04770  0.13320  0.03250  1.0000 0.3786233154
H   H29       1.0  0.44570  0.36790  0.46870  1.0000 0.3786233154
H   H30       1.0  0.55430  0.86790  0.03130  1.0000 0.3786233154
H   H31       1.0  0.55430  0.63210  0.53130  1.0000 0.3786233154
H   H32       1.0  0.44570  0.13210  0.96870  1.0000 0.3786233154
C   C1        1.0  0.95762  0.10928  0.19412  1.0000 0.111172261
C   C2        1.0  0.04238  0.60928  0.30588  1.0000 0.111172261
C   C3        1.0  0.04238  0.89072  0.80588  1.0000 0.111172261
C   C4        1.0  0.95762  0.39072  0.69412  1.0000 0.111172261
C   C5        1.0  0.95625  0.18318  0.24565  1.0000 -0.1608947616
C   C6        1.0  0.04375  0.68318  0.25435  1.0000 -0.1608947616
C   C7        1.0  0.04375  0.81682  0.75435  1.0000 -0.1608947616
C   C8        1.0  0.95625  0.31682  0.74565  1.0000 -0.1608947616
C   C9        1.0  0.07579  0.21409  0.30049  1.0000 0.0310444489
C   C10       1.0  0.92421  0.71409  0.19951  1.0000 0.0310444489
C   C11       1.0  0.92421  0.78591  0.69951  1.0000 0.0310444489
C   C12       1.0  0.07579  0.28591  0.80049  1.0000 0.0310444489
C   C13       1.0  0.19183  0.16915  0.30383  1.0000 -0.1608947616
C   C14       1.0  0.80817  0.66915  0.19617  1.0000 -0.1608947616
C   C15       1.0  0.80817  0.83085  0.69617  1.0000 -0.1608947616
C   C16       1.0  0.19183  0.33085  0.80383  1.0000 -0.1608947616
C   C17       1.0  0.18493  0.09705  0.24873  1.0000 0.0942146771
C   C18       1.0  0.81507  0.59705  0.25127  1.0000 0.0942146771
C   C19       1.0  0.81507  0.90295  0.75127  1.0000 0.0942146771
C   C20       1.0  0.18493  0.40295  0.74873  1.0000 0.0942146771
C   C21       1.0  0.83281  0.06847  0.13481  1.0000 0.5633125801
C   C22       1.0  0.16719  0.56847  0.36519  1.0000 0.5633125801
C   C23       1.0  0.16719  0.93153  0.86519  1.0000 0.5633125801
C   C24       1.0  0.83281  0.43153  0.63481  1.0000 0.5633125801
C   C25       1.0  0.08347  0.29591  0.35707  1.0000 0.5718979288
C   C26       1.0  0.91653  0.79591  0.14293  1.0000 0.5718979288
C   C27       1.0  0.91653  0.70409  0.64293  1.0000 0.5718979288
C   C28       1.0  0.08347  0.20409  0.85707  1.0000 0.5718979288
C   C29       1.0  0.53969  0.10619  0.80329  1.0000 0.111172261
C   C30       1.0  0.46031  0.60619  0.69671  1.0000 0.111172261
C   C31       1.0  0.46031  0.89381  0.19671  1.0000 0.111172261
C   C32       1.0  0.53969  0.39381  0.30329  1.0000 0.111172261
C   C33       1.0  0.54117  0.18012  0.75157  1.0000 -0.1545713048
C   C34       1.0  0.45883  0.68012  0.74843  1.0000 -0.1545713048
C   C35       1.0  0.45883  0.81988  0.24843  1.0000 -0.1545713048
C   C36       1.0  0.54117  0.31988  0.25157  1.0000 -0.1545713048
C   C37       1.0  0.42094  0.21760  0.70294  1.0000 0.0310444489
C   C38       1.0  0.57906  0.71760  0.79706  1.0000 0.0310444489
C   C39       1.0  0.57906  0.78240  0.29706  1.0000 0.0310444489
C   C40       1.0  0.42094  0.28240  0.20294  1.0000 0.0310444489
C   C41       1.0  0.30439  0.17865  0.70609  1.0000 -0.1608947616
C   C42       1.0  0.69561  0.67865  0.79391  1.0000 -0.1608947616
C   C43       1.0  0.69561  0.82135  0.29391  1.0000 -0.1608947616
C   C44       1.0  0.30439  0.32135  0.20609  1.0000 -0.1608947616
C   C45       1.0  0.31222  0.10537  0.76022  1.0000 0.0959493306
C   C46       1.0  0.68778  0.60537  0.73978  1.0000 0.0959493306
C   C47       1.0  0.68778  0.89463  0.23978  1.0000 0.0959493306
C   C48       1.0  0.31222  0.39463  0.26022  1.0000 0.0959493306
C   C49       1.0  0.66462  0.06373  0.86052  1.0000 0.5633125801
C   C50       1.0  0.33538  0.56373  0.63948  1.0000 0.5633125801
C   C51       1.0  0.33538  0.93627  0.13948  1.0000 0.5633125801
C   C52       1.0  0.66462  0.43627  0.36052  1.0000 0.5633125801
C   C53       1.0  0.41311  0.30052  0.64701  1.0000 0.5718979288
C   C54       1.0  0.58689  0.80052  0.85299  1.0000 0.5718979288
C   C55       1.0  0.58689  0.69948  0.35299  1.0000 0.5718979288
C   C56       1.0  0.41311  0.19948  0.14701  1.0000 0.5718979288
N   N1        1.0  0.07029  0.06841  0.19418  1.0000 -0.2649666916
N   N2        1.0  0.92971  0.56841  0.30582  1.0000 -0.2669697738
N   N3        1.0  0.92971  0.93159  0.80582  1.0000 -0.2669697738
N   N4        1.0  0.07029  0.43159  0.69418  1.0000 -0.2669697738
N   N5        1.0  0.42697  0.07012  0.80843  1.0000 -0.2669697738
N   N6        1.0  0.57303  0.57012  0.69157  1.0000 -0.2669697738
N   N7        1.0  0.57303  0.92988  0.19157  1.0000 -0.2669697738
N   N8        1.0  0.42697  0.42988  0.30843  1.0000 -0.2669697738
O   O1        1.0  0.85016  0.01110  0.08429  1.0000 -0.5796637486
O   O2        1.0  0.14984  0.51110  0.41571  1.0000 -0.5796637486
O   O3        1.0  0.14984  0.98890  0.91571  1.0000 -0.5796637486
O   O4        1.0  0.85016  0.48890  0.58429  1.0000 -0.5796637486
O   O5        1.0  0.72513  0.09059  0.14037  1.0000 -0.5000761997
O   O6        1.0  0.27487  0.59059  0.35963  1.0000 -0.5000761997
O   O7        1.0  0.27487  0.90941  0.85963  1.0000 -0.5000761997
O   O8        1.0  0.72513  0.40941  0.64037  1.0000 -0.5000761997
O   O9        1.0  0.98918  0.35337  0.33672  1.0000 -0.55481189
O   O10       1.0  0.01082  0.85337  0.16328  1.0000 -0.55481189
O   O11       1.0  0.01082  0.64663  0.66328  1.0000 -0.55481189
O   O12       1.0  0.98918  0.14663  0.83672  1.0000 -0.55481189
O   O13       1.0  0.18528  0.29946  0.41941  1.0000 -0.566376408
O   O14       1.0  0.81472  0.79946  0.08059  1.0000 -0.566376408
O   O15       1.0  0.81472  0.70054  0.58059  1.0000 -0.566376408
O   O16       1.0  0.18528  0.20054  0.91941  1.0000 -0.566376408
O   O17       1.0  0.65090  0.01263  0.91543  1.0000 -0.566376408
O   O18       1.0  0.34910  0.51263  0.58457  1.0000 -0.566376408
O   O19       1.0  0.34910  0.98737  0.08457  1.0000 -0.566376408
O   O20       1.0  0.65090  0.48737  0.41543  1.0000 -0.566376408
O   O21       1.0  0.77109  0.08160  0.84986  1.0000 -0.5086793254
O   O22       1.0  0.22891  0.58160  0.65014  1.0000 -0.5086793254
O   O23       1.0  0.22891  0.91840  0.15014  1.0000 -0.5086793254
O   O24       1.0  0.77109  0.41840  0.34986  1.0000 -0.5086793254
O   O25       1.0  0.50934  0.35589  0.66550  1.0000 -0.55481189
O   O26       1.0  0.49066  0.85589  0.83450  1.0000 -0.5552012276
O   O27       1.0  0.49066  0.64411  0.33450  1.0000 -0.5552012276
O   O28       1.0  0.50934  0.14411  0.16550  1.0000 -0.5552012276
O   O29       1.0  0.30774  0.30556  0.58678  1.0000 -0.566376408
O   O30       1.0  0.69226  0.80556  0.91322  1.0000 -0.566376408
O   O31       1.0  0.69226  0.69444  0.41322  1.0000 -0.566376408
O   O32       1.0  0.30774  0.19444  0.08678  1.0000 -0.566376408
O   O33       1.0  0.06798  0.41870  0.52097  1.0000 -0.8591398548
O   O34       1.0  0.93202  0.91870  0.97903  1.0000 -0.8591398548
O   O35       1.0  0.93202  0.58130  0.47903  1.0000 -0.8591398548
O   O36       1.0  0.06798  0.08130  0.02097  1.0000 -0.8591398548
O   O37       1.0  0.42704  0.41967  0.47915  1.0000 -0.8538424473
O   O38       1.0  0.57296  0.91967  0.02085  1.0000 -0.8538424473
O   O39       1.0  0.57296  0.58033  0.52085  1.0000 -0.8538424473
O   O40       1.0  0.42704  0.08033  0.97915  1.0000 -0.8538424473
