# DDEC6 charges by PACMAN v1.1 (https://github.com/mtap-research/PACMAN-charge/)
data_2013[Ni][mog]3[FSR]1
_chemical_formula_sum              "Ni6 H72 C60 N4 O48"
_cell_length_a       12.2315
_cell_length_b       17.7483
_cell_length_c       12.4428
_cell_angle_alpha    90
_cell_angle_beta     112.51
_cell_angle_gamma    90

_symmetry_space_group_name_H-M    "P 1"
_symmetry_Int_Tables_number       1

loop_
  _symmetry_equiv_pos_as_xyz
  'x, y, z'

loop_
  _atom_site_type_symbol
  _atom_site_label
  _atom_site_symmetry_multiplicity
  _atom_site_fract_x
  _atom_site_fract_y
  _atom_site_fract_z
  _atom_site_occupancy
  _atom_site_charge
Ni  Ni1       1.0  0.00000  0.50000  0.50000  1.0000 0.8005325407
Ni  Ni2       1.0  0.50000  0.00000  0.50000  1.0000 0.8005325407
Ni  Ni3       1.0  0.15437  0.29552  0.06103  1.0000 1.0383047671
Ni  Ni4       1.0  0.34563  0.79552  0.93897  1.0000 1.0383047671
Ni  Ni5       1.0  0.84563  0.70448  0.93897  1.0000 1.0383047671
Ni  Ni6       1.0  0.65437  0.20448  0.06103  1.0000 1.0383047671
H   H1        1.0  0.74720  0.32130  0.37610  1.0000 0.1236052598
H   H2        1.0  0.75280  0.82130  0.62390  1.0000 0.1236052598
H   H3        1.0  0.25280  0.67870  0.62390  1.0000 0.1236052598
H   H4        1.0  0.24720  0.17870  0.37610  1.0000 0.1236052598
H   H5        1.0  0.46910  0.21570  0.41060  1.0000 0.1314922432
H   H6        1.0  0.03090  0.71570  0.58940  1.0000 0.1314922432
H   H7        1.0  0.53090  0.78430  0.58940  1.0000 0.1314922432
H   H8        1.0  0.96910  0.28430  0.41060  1.0000 0.1314922432
H   H9        1.0  0.65020  0.37600  0.64210  1.0000 0.1314922432
H   H10       1.0  0.84980  0.87600  0.35790  1.0000 0.1314922432
H   H11       1.0  0.34980  0.62400  0.35790  1.0000 0.1314922432
H   H12       1.0  0.15020  0.12400  0.64210  1.0000 0.1314922432
H   H13       1.0  0.43360  0.23310  0.58880  1.0000 0.111287503
H   H14       1.0  0.06640  0.73310  0.41120  1.0000 0.111287503
H   H15       1.0  0.56640  0.76690  0.41120  1.0000 0.111287503
H   H16       1.0  0.93360  0.26690  0.58880  1.0000 0.111287503
H   H17       1.0  0.51030  0.29330  0.68470  1.0000 0.111287503
H   H18       1.0  0.98970  0.79330  0.31530  1.0000 0.111287503
H   H19       1.0  0.48970  0.70670  0.31530  1.0000 0.111287503
H   H20       1.0  0.01030  0.20670  0.68470  1.0000 0.111287503
H   H21       1.0  0.35120  0.27060  0.73140  1.0000 0.1314922432
H   H22       1.0  0.14880  0.77060  0.26860  1.0000 0.1314922432
H   H23       1.0  0.64880  0.72940  0.26860  1.0000 0.1314922432
H   H24       1.0  0.85120  0.22940  0.73140  1.0000 0.1314922432
H   H25       1.0  0.06890  0.39630  0.71410  1.0000 0.1236052598
H   H26       1.0  0.43110  0.89630  0.28590  1.0000 0.1236052598
H   H27       1.0  0.93110  0.60370  0.28590  1.0000 0.1236052598
H   H28       1.0  0.56890  0.10370  0.71410  1.0000 0.1236052598
H   H29       1.0  0.21150  0.42760  0.48380  1.0000 0.1236052598
H   H30       1.0  0.28850  0.92760  0.51620  1.0000 0.1236052598
H   H31       1.0  0.78850  0.57240  0.51620  1.0000 0.1236052598
H   H32       1.0  0.71150  0.07240  0.48380  1.0000 0.1236052598
H   H33       1.0  0.93980  0.52000  0.66150  1.0000 0.3453103513
H   H34       1.0  0.56020  0.02000  0.33850  1.0000 0.3453103513
H   H35       1.0  0.06020  0.48000  0.33850  1.0000 0.3453103513
H   H36       1.0  0.43980  0.98000  0.66150  1.0000 0.3453103513
H   H37       1.0  0.01650  0.58230  0.68750  1.0000 0.3797353454
H   H38       1.0  0.48350  0.08230  0.31250  1.0000 0.3797353454
H   H39       1.0  0.98350  0.41770  0.31250  1.0000 0.3797353454
H   H40       1.0  0.51650  0.91770  0.68750  1.0000 0.3797353454
H   H41       1.0  0.34940  0.37490  0.09060  1.0000 0.3797353454
H   H42       1.0  0.15060  0.87490  0.90940  1.0000 0.3797353454
H   H43       1.0  0.65060  0.62510  0.90940  1.0000 0.3797353454
H   H44       1.0  0.84940  0.12510  0.09060  1.0000 0.3797353454
H   H45       1.0  0.32730  0.38570  0.19680  1.0000 0.4021546528
H   H46       1.0  0.17270  0.88570  0.80320  1.0000 0.4021546528
H   H47       1.0  0.67270  0.61430  0.80320  1.0000 0.4021546528
H   H48       1.0  0.82730  0.11430  0.19680  1.0000 0.4021546528
H   H49       1.0  0.31350  0.19280  0.14700  1.0000 0.4131207377
H   H50       1.0  0.18650  0.69280  0.85300  1.0000 0.4131207377
H   H51       1.0  0.68650  0.80720  0.85300  1.0000 0.4131207377
H   H52       1.0  0.81350  0.30720  0.14700  1.0000 0.4131207377
H   H53       1.0  0.28300  0.18330  0.01510  1.0000 0.4021546528
H   H54       1.0  0.21700  0.68330  0.98490  1.0000 0.4021546528
H   H55       1.0  0.71700  0.81670  0.98490  1.0000 0.4021546528
H   H56       1.0  0.78300  0.31670  0.01510  1.0000 0.4021546528
H   H57       1.0  0.02810  0.37830  0.10860  1.0000 0.3083982677
H   H58       1.0  0.47190  0.87830  0.89140  1.0000 0.3083982677
H   H59       1.0  0.97190  0.62170  0.89140  1.0000 0.3083982677
H   H60       1.0  0.52810  0.12170  0.10860  1.0000 0.3083982677
H   H61       1.0  0.08070  0.43640  0.07700  1.0000 0.3303146572
H   H62       1.0  0.41930  0.93640  0.92300  1.0000 0.3303146572
H   H63       1.0  0.91930  0.56360  0.92300  1.0000 0.3303146572
H   H64       1.0  0.58070  0.06360  0.07700  1.0000 0.3303146572
H   H65       1.0  0.92320  0.25660  0.94930  1.0000 0.3887813896
H   H66       1.0  0.57680  0.75660  0.05070  1.0000 0.3887813896
H   H67       1.0  0.07680  0.74340  0.05070  1.0000 0.3887813896
H   H68       1.0  0.42320  0.24340  0.94930  1.0000 0.3887813896
H   H69       1.0  0.98700  0.18550  0.98730  1.0000 0.4021546528
H   H70       1.0  0.51300  0.68550  0.01270  1.0000 0.4021546528
H   H71       1.0  0.01300  0.81450  0.01270  1.0000 0.4021546528
H   H72       1.0  0.48700  0.31450  0.98730  1.0000 0.4021546528
C   C1        1.0  0.80810  0.41710  0.55350  1.0000 0.5592849166
C   C2        1.0  0.69190  0.91710  0.44650  1.0000 0.5592849166
C   C3        1.0  0.19190  0.58290  0.44650  1.0000 0.5592849166
C   C4        1.0  0.30810  0.08290  0.55350  1.0000 0.5592849166
C   C5        1.0  0.71360  0.35820  0.51560  1.0000 -0.0255247108
C   C6        1.0  0.78640  0.85820  0.48440  1.0000 -0.0255247108
C   C7        1.0  0.28640  0.64180  0.48440  1.0000 -0.0255247108
C   C8        1.0  0.21360  0.14180  0.51560  1.0000 -0.0255247108
C   C9        1.0  0.69620  0.31460  0.41680  1.0000 -0.1372984439
C   C10       1.0  0.80380  0.81460  0.58320  1.0000 -0.1372984439
C   C11       1.0  0.30380  0.68540  0.58320  1.0000 -0.1372984439
C   C12       1.0  0.19620  0.18540  0.41680  1.0000 -0.1372984439
C   C13       1.0  0.60590  0.26180  0.37700  1.0000 -0.0387451207
C   C14       1.0  0.89410  0.76180  0.62300  1.0000 -0.0387451207
C   C15       1.0  0.39410  0.73820  0.62300  1.0000 -0.0387451207
C   C16       1.0  0.10590  0.23820  0.37700  1.0000 -0.0387451207
C   C17       1.0  0.53170  0.25140  0.43740  1.0000 -0.1663082834
C   C18       1.0  0.96830  0.75140  0.56260  1.0000 -0.1663082834
C   C19       1.0  0.46830  0.74860  0.56260  1.0000 -0.1663082834
C   C20       1.0  0.03170  0.24860  0.43740  1.0000 -0.1663082834
C   C21       1.0  0.54980  0.29340  0.53720  1.0000 0.0885292277
C   C22       1.0  0.95020  0.79340  0.46280  1.0000 0.0885292277
C   C23       1.0  0.45020  0.70660  0.46280  1.0000 0.0885292277
C   C24       1.0  0.04980  0.20660  0.53720  1.0000 0.0885292277
C   C25       1.0  0.63950  0.34690  0.57480  1.0000 -0.1485496848
C   C26       1.0  0.86050  0.84690  0.42520  1.0000 -0.1485496848
C   C27       1.0  0.36050  0.65310  0.42520  1.0000 -0.1485496848
C   C28       1.0  0.13950  0.15310  0.57480  1.0000 -0.1485496848
C   C29       1.0  0.58730  0.21830  0.26880  1.0000 0.5763366431
C   C30       1.0  0.91270  0.71830  0.73120  1.0000 0.5763366431
C   C31       1.0  0.41270  0.78170  0.73120  1.0000 0.5763366431
C   C32       1.0  0.08730  0.28170  0.26880  1.0000 0.5763366431
C   C33       1.0  0.46770  0.28450  0.60030  1.0000 -0.0696068159
C   C34       1.0  0.03230  0.78450  0.39970  1.0000 -0.0696068159
C   C35       1.0  0.53230  0.71550  0.39970  1.0000 -0.0696068159
C   C36       1.0  0.96770  0.21550  0.60030  1.0000 -0.0696068159
C   C37       1.0  0.29580  0.34810  0.60170  1.0000 0.2151948274
C   C38       1.0  0.20420  0.84810  0.39830  1.0000 0.2151948274
C   C39       1.0  0.70420  0.65190  0.39830  1.0000 0.2151948274
C   C40       1.0  0.79580  0.15190  0.60170  1.0000 0.2151948274
C   C41       1.0  0.29480  0.30910  0.69630  1.0000 -0.1999787479
C   C42       1.0  0.20520  0.80910  0.30370  1.0000 -0.1999787479
C   C43       1.0  0.70520  0.69090  0.30370  1.0000 -0.1999787479
C   C44       1.0  0.79480  0.19090  0.69630  1.0000 -0.1999787479
C   C45       1.0  0.20810  0.32780  0.73950  1.0000 -0.0484490595
C   C46       1.0  0.29190  0.82780  0.26050  1.0000 -0.0484490595
C   C47       1.0  0.79190  0.67220  0.26050  1.0000 -0.0484490595
C   C48       1.0  0.70810  0.17220  0.73950  1.0000 -0.0484490595
C   C49       1.0  0.12670  0.38310  0.68370  1.0000 0.0411498942
C   C50       1.0  0.37330  0.88310  0.31630  1.0000 0.0411498942
C   C51       1.0  0.87330  0.61690  0.31630  1.0000 0.0411498942
C   C52       1.0  0.62670  0.11690  0.68370  1.0000 0.0411498942
C   C53       1.0  0.21020  0.40180  0.55020  1.0000 -0.0387451207
C   C54       1.0  0.28980  0.90180  0.44980  1.0000 -0.0387451207
C   C55       1.0  0.78980  0.59820  0.44980  1.0000 -0.0387451207
C   C56       1.0  0.71020  0.09820  0.55020  1.0000 -0.0387451207
C   C57       1.0  0.20710  0.28930  0.84630  1.0000 0.5592849166
C   C58       1.0  0.29290  0.78930  0.15370  1.0000 0.5592849166
C   C59       1.0  0.79290  0.71070  0.15370  1.0000 0.5592849166
C   C60       1.0  0.70710  0.21070  0.84630  1.0000 0.5592849166
N   N1        1.0  0.12570  0.41917  0.58870  1.0000 -0.1918119281
N   N2        1.0  0.37430  0.91917  0.41130  1.0000 -0.1918119281
N   N3        1.0  0.87430  0.58083  0.41130  1.0000 -0.1918119281
N   N4        1.0  0.62570  0.08083  0.58870  1.0000 -0.1918119281
O   O1        1.0  0.87100  0.42386  0.49440  1.0000 -0.5587732583
O   O2        1.0  0.62900  0.92386  0.50560  1.0000 -0.5587732583
O   O3        1.0  0.12900  0.57614  0.50560  1.0000 -0.5587732583
O   O4        1.0  0.37100  0.07614  0.49440  1.0000 -0.5587732583
O   O5        1.0  0.81770  0.45718  0.64070  1.0000 -0.5693045645
O   O6        1.0  0.68230  0.95718  0.35930  1.0000 -0.5693045645
O   O7        1.0  0.18230  0.54282  0.35930  1.0000 -0.5693045645
O   O8        1.0  0.31770  0.04282  0.64070  1.0000 -0.5693045645
O   O9        1.0  0.50160  0.17201  0.23160  1.0000 -0.5913166791
O   O10       1.0  0.99840  0.67201  0.76840  1.0000 -0.5913166791
O   O11       1.0  0.49840  0.82799  0.76840  1.0000 -0.5913166791
O   O12       1.0  0.00160  0.32799  0.23160  1.0000 -0.5913166791
O   O13       1.0  0.66090  0.22983  0.22220  1.0000 -0.5789644509
O   O14       1.0  0.83910  0.72983  0.77780  1.0000 -0.5789644509
O   O15       1.0  0.33910  0.77017  0.77780  1.0000 -0.5789644509
O   O16       1.0  0.16090  0.27017  0.22220  1.0000 -0.5789644509
O   O17       1.0  0.37660  0.33958  0.55120  1.0000 -0.1663082834
O   O18       1.0  0.12340  0.83958  0.44880  1.0000 -0.1663082834
O   O19       1.0  0.62340  0.66042  0.44880  1.0000 -0.1663082834
O   O20       1.0  0.87660  0.16042  0.55120  1.0000 -0.1663082834
O   O21       1.0  0.14940  0.32061  0.89840  1.0000 -0.5587732583
O   O22       1.0  0.35060  0.82061  0.10160  1.0000 -0.5587732583
O   O23       1.0  0.85060  0.67939  0.10160  1.0000 -0.5587732583
O   O24       1.0  0.64940  0.17939  0.89840  1.0000 -0.5587732583
O   O25       1.0  0.26560  0.22859  0.87570  1.0000 -0.5693045645
O   O26       1.0  0.23440  0.72859  0.12430  1.0000 -0.5693045645
O   O27       1.0  0.73440  0.77141  0.12430  1.0000 -0.5693045645
O   O28       1.0  0.76560  0.27141  0.87570  1.0000 -0.5693045645
O   O29       1.0  0.00990  0.53885  0.66060  1.0000 -0.668341124
O   O30       1.0  0.49010  0.03885  0.33940  1.0000 -0.668341124
O   O31       1.0  0.99010  0.46115  0.33940  1.0000 -0.668341124
O   O32       1.0  0.50990  0.96115  0.66060  1.0000 -0.668341124
O   O33       1.0  0.30950  0.35451  0.13310  1.0000 -0.7206488862
O   O34       1.0  0.19050  0.85451  0.86690  1.0000 -0.7206488862
O   O35       1.0  0.69050  0.64549  0.86690  1.0000 -0.7206488862
O   O36       1.0  0.80950  0.14549  0.13310  1.0000 -0.7206488862
O   O37       1.0  0.25030  0.19764  0.07470  1.0000 -0.7823360353
O   O38       1.0  0.24970  0.69764  0.92530  1.0000 -0.7823360353
O   O39       1.0  0.74970  0.80236  0.92530  1.0000 -0.7823360353
O   O40       1.0  0.75030  0.30236  0.07470  1.0000 -0.7823360353
O   O41       1.0  0.04760  0.38930  0.05530  1.0000 -0.668341124
O   O42       1.0  0.45240  0.88930  0.94470  1.0000 -0.668341124
O   O43       1.0  0.95240  0.61070  0.94470  1.0000 -0.668341124
O   O44       1.0  0.54760  0.11070  0.05530  1.0000 -0.668341124
O   O45       1.0  0.00230  0.23515  0.98260  1.0000 -0.7206488862
O   O46       1.0  0.49770  0.73515  0.01740  1.0000 -0.7206488862
O   O47       1.0  0.99770  0.76485  0.01740  1.0000 -0.7206488862
O   O48       1.0  0.50230  0.26485  0.98260  1.0000 -0.7206488862
