# DDEC6 charges by PACMAN v1.1 (https://github.com/mtap-research/PACMAN-charge/)
data_2013[Co][dia]3[FSR]6
_chemical_formula_sum              "Co8 H128 C192 N16 O32"
_cell_length_a       22.6591
_cell_length_b       22.6591
_cell_length_c       12.7035
_cell_angle_alpha    90
_cell_angle_beta     90
_cell_angle_gamma    90

_symmetry_space_group_name_H-M    "P 1"
_symmetry_Int_Tables_number       1

loop_
  _symmetry_equiv_pos_as_xyz
  'x, y, z'

loop_
  _atom_site_type_symbol
  _atom_site_label
  _atom_site_symmetry_multiplicity
  _atom_site_fract_x
  _atom_site_fract_y
  _atom_site_fract_z
  _atom_site_occupancy
  _atom_site_charge
Co  Co1       1.0  0.75688  0.23755  0.24712  1.0000 0.7594998807
Co  Co2       1.0  0.24312  0.76245  0.24712  1.0000 0.7594998807
Co  Co3       1.0  0.25688  0.26245  0.75288  1.0000 0.7594998807
Co  Co4       1.0  0.74312  0.73755  0.75288  1.0000 0.7594998807
Co  Co5       1.0  0.26245  0.25688  0.24712  1.0000 0.7594998807
Co  Co6       1.0  0.73755  0.74312  0.24712  1.0000 0.7594998807
Co  Co7       1.0  0.23755  0.75688  0.75288  1.0000 0.7594998807
Co  Co8       1.0  0.76245  0.24312  0.75288  1.0000 0.7594998807
H   H1        1.0  0.63510  0.27410  0.52460  1.0000 0.1212956424
H   H2        1.0  0.36490  0.72590  0.52460  1.0000 0.1212956424
H   H3        1.0  0.13510  0.22590  0.47540  1.0000 0.1212956424
H   H4        1.0  0.86490  0.77410  0.47540  1.0000 0.1212956424
H   H5        1.0  0.38930  0.22200  0.44840  1.0000 0.1429582119
H   H6        1.0  0.61070  0.77800  0.44840  1.0000 0.1429582119
H   H7        1.0  0.88930  0.27800  0.55160  1.0000 0.1429582119
H   H8        1.0  0.11070  0.72200  0.55160  1.0000 0.1429582119
H   H9        1.0  0.72420  0.87450  0.06110  1.0000 0.1429582119
H   H10       1.0  0.27580  0.12550  0.06110  1.0000 0.1429582119
H   H11       1.0  0.22420  0.62550  0.93890  1.0000 0.1429582119
H   H12       1.0  0.77580  0.37450  0.93890  1.0000 0.1429582119
H   H13       1.0  0.54760  0.27290  0.62120  1.0000 0.1102175806
H   H14       1.0  0.45240  0.72710  0.62120  1.0000 0.1102175806
H   H15       1.0  0.04760  0.22710  0.37880  1.0000 0.1102175806
H   H16       1.0  0.95240  0.77290  0.37880  1.0000 0.1102175806
H   H17       1.0  0.80460  0.02520  0.89020  1.0000 0.1039858078
H   H18       1.0  0.19540  0.97480  0.89020  1.0000 0.1039858078
H   H19       1.0  0.30460  0.47480  0.10980  1.0000 0.1039858078
H   H20       1.0  0.69540  0.52520  0.10980  1.0000 0.1039858078
H   H21       1.0  0.81440  0.85080  0.73830  1.0000 0.1102175806
H   H22       1.0  0.18560  0.14920  0.73830  1.0000 0.1102175806
H   H23       1.0  0.31440  0.64920  0.26170  1.0000 0.1102175806
H   H24       1.0  0.68560  0.35080  0.26170  1.0000 0.1102175806
H   H25       1.0  0.30160  0.23320  0.54050  1.0000 0.1102175806
H   H26       1.0  0.69840  0.76680  0.54050  1.0000 0.1102175806
H   H27       1.0  0.80160  0.26680  0.45950  1.0000 0.1102175806
H   H28       1.0  0.19840  0.73320  0.45950  1.0000 0.1102175806
H   H29       1.0  0.55840  0.17190  0.30200  1.0000 0.1212956424
H   H30       1.0  0.44160  0.82810  0.30200  1.0000 0.1212956424
H   H31       1.0  0.05840  0.32810  0.69800  1.0000 0.1212956424
H   H32       1.0  0.94160  0.67190  0.69800  1.0000 0.1212956424
H   H33       1.0  0.70980  0.79090  0.96120  1.0000 0.1212956424
H   H34       1.0  0.29020  0.20910  0.96120  1.0000 0.1212956424
H   H35       1.0  0.20980  0.70910  0.03880  1.0000 0.1212956424
H   H36       1.0  0.79020  0.29090  0.03880  1.0000 0.1212956424
H   H37       1.0  0.38660  0.23840  0.81000  1.0000 0.1039858078
H   H38       1.0  0.61340  0.76160  0.81000  1.0000 0.1039858078
H   H39       1.0  0.88660  0.26160  0.19000  1.0000 0.1039858078
H   H40       1.0  0.11340  0.73840  0.19000  1.0000 0.1039858078
H   H41       1.0  0.47630  0.22900  0.72610  1.0000 0.1212956424
H   H42       1.0  0.52370  0.77100  0.72610  1.0000 0.1212956424
H   H43       1.0  0.97630  0.27100  0.27390  1.0000 0.1212956424
H   H44       1.0  0.02370  0.72900  0.27390  1.0000 0.1212956424
H   H45       1.0  0.47150  0.17050  0.39970  1.0000 0.1212956424
H   H46       1.0  0.52850  0.82950  0.39970  1.0000 0.1212956424
H   H47       1.0  0.97150  0.32950  0.60030  1.0000 0.1212956424
H   H48       1.0  0.02850  0.67050  0.60030  1.0000 0.1212956424
H   H49       1.0  0.77540  0.02750  0.25300  1.0000 0.1102175806
H   H50       1.0  0.22460  0.97250  0.25300  1.0000 0.1102175806
H   H51       1.0  0.27540  0.47250  0.74700  1.0000 0.1102175806
H   H52       1.0  0.72460  0.52750  0.74700  1.0000 0.1102175806
H   H53       1.0  0.77250  0.93810  0.16330  1.0000 0.1102175806
H   H54       1.0  0.22750  0.06190  0.16330  1.0000 0.1102175806
H   H55       1.0  0.27250  0.56190  0.83670  1.0000 0.1102175806
H   H56       1.0  0.72750  0.43810  0.83670  1.0000 0.1102175806
H   H57       1.0  0.80620  0.11380  0.97930  1.0000 0.1212956424
H   H58       1.0  0.19380  0.88620  0.97930  1.0000 0.1212956424
H   H59       1.0  0.30620  0.38620  0.02070  1.0000 0.1212956424
H   H60       1.0  0.69380  0.61380  0.02070  1.0000 0.1212956424
H   H61       1.0  0.83340  0.93540  0.83320  1.0000 0.1266247585
H   H62       1.0  0.16660  0.06460  0.83320  1.0000 0.1266247585
H   H63       1.0  0.33340  0.56460  0.16680  1.0000 0.1266247585
H   H64       1.0  0.66667  0.43540  0.16680  1.0000 0.1266247585
H   H65       1.0  0.22590  0.13510  0.52460  1.0000 0.1212956424
H   H66       1.0  0.77410  0.86490  0.52460  1.0000 0.1212956424
H   H67       1.0  0.27410  0.63510  0.47540  1.0000 0.1212956424
H   H68       1.0  0.72590  0.36490  0.47540  1.0000 0.1212956424
H   H69       1.0  0.27800  0.88930  0.44840  1.0000 0.1429582119
H   H70       1.0  0.72200  0.11070  0.44840  1.0000 0.1429582119
H   H71       1.0  0.22200  0.38930  0.55160  1.0000 0.1429582119
H   H72       1.0  0.77800  0.61070  0.55160  1.0000 0.1429582119
H   H73       1.0  0.62550  0.22420  0.06110  1.0000 0.1429582119
H   H74       1.0  0.37450  0.77580  0.06110  1.0000 0.1429582119
H   H75       1.0  0.87450  0.72420  0.93890  1.0000 0.1429582119
H   H76       1.0  0.12550  0.27580  0.93890  1.0000 0.1429582119
H   H77       1.0  0.22710  0.04760  0.62120  1.0000 0.1102175806
H   H78       1.0  0.77290  0.95240  0.62120  1.0000 0.1102175806
H   H79       1.0  0.27290  0.54760  0.37880  1.0000 0.1102175806
H   H80       1.0  0.72710  0.45240  0.37880  1.0000 0.1102175806
H   H81       1.0  0.47480  0.30460  0.89020  1.0000 0.1039858078
H   H82       1.0  0.52520  0.69540  0.89020  1.0000 0.1039858078
H   H83       1.0  0.02520  0.80460  0.10980  1.0000 0.1039858078
H   H84       1.0  0.97480  0.19540  0.10980  1.0000 0.1039858078
H   H85       1.0  0.64920  0.31440  0.73830  1.0000 0.1102175806
H   H86       1.0  0.35080  0.68560  0.73830  1.0000 0.1102175806
H   H87       1.0  0.85080  0.81440  0.26170  1.0000 0.1102175806
H   H88       1.0  0.14920  0.18560  0.26170  1.0000 0.1102175806
H   H89       1.0  0.26680  0.80160  0.54050  1.0000 0.1102175806
H   H90       1.0  0.73320  0.19840  0.54050  1.0000 0.1102175806
H   H91       1.0  0.23320  0.30160  0.45950  1.0000 0.1102175806
H   H92       1.0  0.76680  0.69840  0.45950  1.0000 0.1102175806
H   H93       1.0  0.32810  0.05840  0.30200  1.0000 0.1212956424
H   H94       1.0  0.67190  0.94160  0.30200  1.0000 0.1212956424
H   H95       1.0  0.17190  0.55840  0.69800  1.0000 0.1212956424
H   H96       1.0  0.82810  0.44160  0.69800  1.0000 0.1212956424
H   H97       1.0  0.70910  0.20980  0.96120  1.0000 0.1212956424
H   H98       1.0  0.29090  0.79020  0.96120  1.0000 0.1212956424
H   H99       1.0  0.79090  0.70980  0.03880  1.0000 0.1212956424
H   H100      1.0  0.20910  0.29020  0.03880  1.0000 0.1212956424
H   H101      1.0  0.26160  0.88660  0.81000  1.0000 0.1039858078
H   H102      1.0  0.73840  0.11340  0.81000  1.0000 0.1039858078
H   H103      1.0  0.23840  0.38660  0.19000  1.0000 0.1039858078
H   H104      1.0  0.76160  0.61340  0.19000  1.0000 0.1039858078
H   H105      1.0  0.27100  0.97630  0.72610  1.0000 0.1212956424
H   H106      1.0  0.72900  0.02370  0.72610  1.0000 0.1212956424
H   H107      1.0  0.22900  0.47630  0.27390  1.0000 0.1212956424
H   H108      1.0  0.77100  0.52370  0.27390  1.0000 0.1212956424
H   H109      1.0  0.32950  0.97150  0.39970  1.0000 0.1212956424
H   H110      1.0  0.67050  0.02850  0.39970  1.0000 0.1212956424
H   H111      1.0  0.17050  0.47150  0.60030  1.0000 0.1212956424
H   H112      1.0  0.82950  0.52850  0.60030  1.0000 0.1212956424
H   H113      1.0  0.47250  0.27540  0.25300  1.0000 0.1102175806
H   H114      1.0  0.52750  0.72460  0.25300  1.0000 0.1102175806
H   H115      1.0  0.02750  0.77540  0.74700  1.0000 0.1102175806
H   H116      1.0  0.97250  0.22460  0.74700  1.0000 0.1102175806
H   H117      1.0  0.56190  0.27250  0.16330  1.0000 0.1102175806
H   H118      1.0  0.43810  0.72750  0.16330  1.0000 0.1102175806
H   H119      1.0  0.93810  0.77250  0.83670  1.0000 0.1102175806
H   H120      1.0  0.06190  0.22750  0.83670  1.0000 0.1102175806
H   H121      1.0  0.38620  0.30620  0.97930  1.0000 0.1212956424
H   H122      1.0  0.61380  0.69380  0.97930  1.0000 0.1212956424
H   H123      1.0  0.11380  0.80620  0.02070  1.0000 0.1212956424
H   H124      1.0  0.88620  0.19380  0.02070  1.0000 0.1212956424
H   H125      1.0  0.56460  0.33340  0.83320  1.0000 0.1266247585
H   H126      1.0  0.43540  0.66667  0.83320  1.0000 0.1266247585
H   H127      1.0  0.93540  0.83340  0.16680  1.0000 0.1266247585
H   H128      1.0  0.06460  0.16660  0.16680  1.0000 0.1266247585
C   C1        1.0  0.65980  0.22810  0.33710  1.0000 0.5288491502
C   C2        1.0  0.34020  0.77190  0.33710  1.0000 0.5288491502
C   C3        1.0  0.15980  0.27190  0.66290  1.0000 0.5288491502
C   C4        1.0  0.84020  0.72810  0.66290  1.0000 0.5288491502
C   C5        1.0  0.60440  0.22380  0.40240  1.0000 -0.0145349622
C   C6        1.0  0.39560  0.77620  0.40240  1.0000 -0.0145349622
C   C7        1.0  0.10440  0.27620  0.59760  1.0000 -0.0145349622
C   C8        1.0  0.89560  0.72380  0.59760  1.0000 -0.0145349622
C   C9        1.0  0.78890  0.08000  0.12460  1.0000 -0.017786585
C   C10       1.0  0.21110  0.92000  0.12460  1.0000 -0.017786585
C   C11       1.0  0.28890  0.42000  0.87540  1.0000 -0.017786585
C   C12       1.0  0.71110  0.58000  0.87540  1.0000 -0.017786585
C   C13       1.0  0.50020  0.22320  0.51820  1.0000 0.0660537809
C   C14       1.0  0.49980  0.77680  0.51820  1.0000 0.0660537809
C   C15       1.0  0.00020  0.27680  0.48180  1.0000 0.0660537809
C   C16       1.0  0.99980  0.72320  0.48180  1.0000 0.0660537809
C   C17       1.0  0.60160  0.25360  0.49860  1.0000 -0.1039639726
C   C18       1.0  0.39840  0.74640  0.49860  1.0000 -0.1039639726
C   C19       1.0  0.10160  0.24640  0.50140  1.0000 -0.1039639726
C   C20       1.0  0.89840  0.75360  0.50140  1.0000 -0.1039639726
C   C21       1.0  0.78390  0.13760  0.17930  1.0000 0.5417569012
C   C22       1.0  0.21610  0.86240  0.17930  1.0000 0.5417569012
C   C23       1.0  0.28390  0.36240  0.82070  1.0000 0.5417569012
C   C24       1.0  0.71610  0.63760  0.82070  1.0000 0.5417569012
C   C25       1.0  0.78620  0.97210  0.01620  1.0000 0.0646661252
C   C26       1.0  0.21380  0.02790  0.01620  1.0000 0.0646661252
C   C27       1.0  0.28620  0.52790  0.98380  1.0000 0.0660537809
C   C28       1.0  0.71380  0.47210  0.98380  1.0000 0.0660537809
C   C29       1.0  0.77880  0.91570  0.95710  1.0000 0.1212956424
C   C30       1.0  0.22120  0.08430  0.95710  1.0000 0.1212956424
C   C31       1.0  0.27880  0.58430  0.04290  1.0000 0.1212956424
C   C32       1.0  0.72120  0.41570  0.04290  1.0000 0.1212956424
C   C33       1.0  0.44320  0.22590  0.57620  1.0000 0.1212956424
C   C34       1.0  0.55680  0.77410  0.57620  1.0000 0.1212956424
C   C35       1.0  0.94320  0.27410  0.42380  1.0000 0.1212956424
C   C36       1.0  0.05680  0.72590  0.42380  1.0000 0.1212956424
C   C37       1.0  0.39000  0.22630  0.52280  1.0000 -0.1782552914
C   C38       1.0  0.61000  0.77370  0.52280  1.0000 -0.1782552914
C   C39       1.0  0.89000  0.27370  0.47720  1.0000 -0.1782552914
C   C40       1.0  0.11000  0.72630  0.47720  1.0000 -0.1782552914
C   C41       1.0  0.74290  0.87090  0.99450  1.0000 -0.1782552914
C   C42       1.0  0.25710  0.12910  0.99450  1.0000 -0.1782552914
C   C43       1.0  0.24290  0.62910  0.00550  1.0000 -0.1782552914
C   C44       1.0  0.75710  0.37090  0.00550  1.0000 -0.1782552914
C   C45       1.0  0.54960  0.25290  0.55560  1.0000 -0.1504349157
C   C46       1.0  0.45040  0.74710  0.55560  1.0000 -0.1504349157
C   C47       1.0  0.04960  0.24710  0.44440  1.0000 -0.1504349157
C   C48       1.0  0.95040  0.75290  0.44440  1.0000 -0.1504349157
C   C49       1.0  0.79760  0.02560  0.96390  1.0000 -0.1504349157
C   C50       1.0  0.20240  0.97440  0.96390  1.0000 -0.1504349157
C   C51       1.0  0.29760  0.47440  0.03610  1.0000 -0.1504349157
C   C52       1.0  0.70240  0.52560  0.03610  1.0000 -0.1504349157
C   C53       1.0  0.79590  0.85570  0.80480  1.0000 0.0797148585
C   C54       1.0  0.20410  0.14430  0.80480  1.0000 0.0797148585
C   C55       1.0  0.29590  0.64430  0.19520  1.0000 0.0850704119
C   C56       1.0  0.70410  0.35570  0.19520  1.0000 0.0850704119
C   C57       1.0  0.33770  0.23300  0.57850  1.0000 0.1039858078
C   C58       1.0  0.66230  0.76700  0.57850  1.0000 0.1039858078
C   C59       1.0  0.83770  0.26700  0.42150  1.0000 0.1039858078
C   C60       1.0  0.16230  0.73300  0.42150  1.0000 0.1039858078
C   C61       1.0  0.55620  0.19290  0.36660  1.0000 -0.1053572491
C   C62       1.0  0.44380  0.80710  0.36660  1.0000 -0.1039639726
C   C63       1.0  0.05620  0.30710  0.63340  1.0000 -0.1053572491
C   C64       1.0  0.94380  0.69290  0.63340  1.0000 -0.1039639726
C   C65       1.0  0.73480  0.82110  0.93460  1.0000 0.0797148585
C   C66       1.0  0.26520  0.17890  0.93460  1.0000 0.0797148585
C   C67       1.0  0.23480  0.67890  0.06540  1.0000 0.0797148585
C   C68       1.0  0.76520  0.32110  0.06540  1.0000 0.0797148585
C   C69       1.0  0.38730  0.23620  0.73540  1.0000 0.0797148585
C   C70       1.0  0.61270  0.76380  0.73540  1.0000 0.0797148585
C   C71       1.0  0.88730  0.26380  0.26460  1.0000 0.0797148585
C   C72       1.0  0.11270  0.73620  0.26460  1.0000 0.0797148585
C   C73       1.0  0.44100  0.23020  0.68590  1.0000 -0.2030354597
C   C74       1.0  0.55900  0.76980  0.68590  1.0000 -0.2030354597
C   C75       1.0  0.94100  0.26980  0.31410  1.0000 -0.2030354597
C   C76       1.0  0.05900  0.73020  0.31410  1.0000 -0.2030354597
C   C77       1.0  0.50450  0.19230  0.42450  1.0000 -0.1368216246
C   C78       1.0  0.49550  0.80770  0.42450  1.0000 -0.1368216246
C   C79       1.0  0.00450  0.30770  0.57550  1.0000 -0.1368216246
C   C80       1.0  0.99550  0.69230  0.57550  1.0000 -0.1368216246
C   C81       1.0  0.78030  0.02700  0.17870  1.0000 -0.0944311216
C   C82       1.0  0.21970  0.97300  0.17870  1.0000 -0.0944311216
C   C83       1.0  0.28030  0.47300  0.82130  1.0000 -0.0944311216
C   C84       1.0  0.71970  0.52700  0.82130  1.0000 -0.0944311216
C   C85       1.0  0.77870  0.97380  0.12550  1.0000 -0.1504349157
C   C86       1.0  0.22130  0.02620  0.12550  1.0000 -0.1504349157
C   C87       1.0  0.27870  0.52620  0.87450  1.0000 -0.1504349157
C   C88       1.0  0.72130  0.47380  0.87450  1.0000 -0.1504349157
C   C89       1.0  0.79870  0.07820  0.01670  1.0000 -0.1039639726
C   C90       1.0  0.20130  0.92180  0.01670  1.0000 -0.1039639726
C   C91       1.0  0.29870  0.42180  0.98330  1.0000 -0.1039639726
C   C92       1.0  0.70130  0.57820  0.98330  1.0000 -0.1039639726
C   C93       1.0  0.80690  0.90660  0.86030  1.0000 -0.2123289935
C   C94       1.0  0.19310  0.09340  0.86030  1.0000 -0.2123289935
C   C95       1.0  0.30690  0.59340  0.13970  1.0000 -0.2123289935
C   C96       1.0  0.69310  0.40660  0.13970  1.0000 -0.2123289935
C   C97       1.0  0.27190  0.15980  0.33710  1.0000 0.5288491502
C   C98       1.0  0.72810  0.84020  0.33710  1.0000 0.5288491502
C   C99       1.0  0.22810  0.65980  0.66290  1.0000 0.5288491502
C   C100      1.0  0.77190  0.34020  0.66290  1.0000 0.5288491502
C   C101      1.0  0.27620  0.10440  0.40240  1.0000 -0.0145349622
C   C102      1.0  0.72380  0.89560  0.40240  1.0000 -0.0145349622
C   C103      1.0  0.22380  0.60440  0.59760  1.0000 -0.0145349622
C   C104      1.0  0.77620  0.39560  0.59760  1.0000 -0.0145349622
C   C105      1.0  0.42000  0.28890  0.12460  1.0000 -0.017786585
C   C106      1.0  0.58000  0.71110  0.12460  1.0000 -0.017786585
C   C107      1.0  0.08000  0.78890  0.87540  1.0000 -0.017786585
C   C108      1.0  0.92000  0.21110  0.87540  1.0000 -0.017786585
C   C109      1.0  0.27680  0.00020  0.51820  1.0000 0.0660537809
C   C110      1.0  0.72320  0.99980  0.51820  1.0000 0.0660537809
C   C111      1.0  0.22320  0.50020  0.48180  1.0000 0.0660537809
C   C112      1.0  0.77680  0.49980  0.48180  1.0000 0.0660537809
C   C113      1.0  0.24640  0.10160  0.49860  1.0000 -0.1039639726
C   C114      1.0  0.75360  0.89840  0.49860  1.0000 -0.1039639726
C   C115      1.0  0.25360  0.60160  0.50140  1.0000 -0.1039639726
C   C116      1.0  0.74640  0.39840  0.50140  1.0000 -0.1039639726
C   C117      1.0  0.36240  0.28390  0.17930  1.0000 0.5417569012
C   C118      1.0  0.63760  0.71610  0.17930  1.0000 0.5417569012
C   C119      1.0  0.13760  0.78390  0.82070  1.0000 0.5417569012
C   C120      1.0  0.86240  0.21610  0.82070  1.0000 0.5417569012
C   C121      1.0  0.52790  0.28620  0.01620  1.0000 0.0646661252
C   C122      1.0  0.47210  0.71380  0.01620  1.0000 0.0646661252
C   C123      1.0  0.97210  0.78620  0.98380  1.0000 0.0660537809
C   C124      1.0  0.02790  0.21380  0.98380  1.0000 0.0660537809
C   C125      1.0  0.58430  0.27880  0.95710  1.0000 0.1212956424
C   C126      1.0  0.41570  0.72120  0.95710  1.0000 0.1212956424
C   C127      1.0  0.91570  0.77880  0.04290  1.0000 0.1212956424
C   C128      1.0  0.08430  0.22120  0.04290  1.0000 0.1212956424
C   C129      1.0  0.27410  0.94320  0.57620  1.0000 0.1212956424
C   C130      1.0  0.72590  0.05680  0.57620  1.0000 0.1212956424
C   C131      1.0  0.22590  0.44320  0.42380  1.0000 0.1212956424
C   C132      1.0  0.77410  0.55680  0.42380  1.0000 0.1212956424
C   C133      1.0  0.27370  0.89000  0.52280  1.0000 -0.1782552914
C   C134      1.0  0.72630  0.11000  0.52280  1.0000 -0.1782552914
C   C135      1.0  0.22630  0.39000  0.47720  1.0000 -0.1782552914
C   C136      1.0  0.77370  0.61000  0.47720  1.0000 -0.1782552914
C   C137      1.0  0.62910  0.24290  0.99450  1.0000 -0.1782552914
C   C138      1.0  0.37090  0.75710  0.99450  1.0000 -0.1782552914
C   C139      1.0  0.87090  0.74290  0.00550  1.0000 -0.1782552914
C   C140      1.0  0.12910  0.25710  0.00550  1.0000 -0.1782552914
C   C141      1.0  0.24710  0.04960  0.55560  1.0000 -0.1504349157
C   C142      1.0  0.75290  0.95040  0.55560  1.0000 -0.1504349157
C   C143      1.0  0.25290  0.54960  0.44440  1.0000 -0.1504349157
C   C144      1.0  0.74710  0.45040  0.44440  1.0000 -0.1504349157
C   C145      1.0  0.47440  0.29760  0.96390  1.0000 -0.1504349157
C   C146      1.0  0.52560  0.70240  0.96390  1.0000 -0.1504349157
C   C147      1.0  0.02560  0.79760  0.03610  1.0000 -0.1504349157
C   C148      1.0  0.97440  0.20240  0.03610  1.0000 -0.1504349157
C   C149      1.0  0.64430  0.29590  0.80480  1.0000 0.0797148585
C   C150      1.0  0.35570  0.70410  0.80480  1.0000 0.0797148585
C   C151      1.0  0.85570  0.79590  0.19520  1.0000 0.0850704119
C   C152      1.0  0.14430  0.20410  0.19520  1.0000 0.0850704119
C   C153      1.0  0.26700  0.83770  0.57850  1.0000 0.1039858078
C   C154      1.0  0.73300  0.16230  0.57850  1.0000 0.1039858078
C   C155      1.0  0.23300  0.33770  0.42150  1.0000 0.1039858078
C   C156      1.0  0.76700  0.66230  0.42150  1.0000 0.1039858078
C   C157      1.0  0.30710  0.05620  0.36660  1.0000 -0.1053572491
C   C158      1.0  0.69290  0.94380  0.36660  1.0000 -0.1039639726
C   C159      1.0  0.19290  0.55620  0.63340  1.0000 -0.1053572491
C   C160      1.0  0.80710  0.44380  0.63340  1.0000 -0.1039639726
C   C161      1.0  0.67890  0.23480  0.93460  1.0000 0.0797148585
C   C162      1.0  0.32110  0.76520  0.93460  1.0000 0.0797148585
C   C163      1.0  0.82110  0.73480  0.06540  1.0000 0.0797148585
C   C164      1.0  0.17890  0.26520  0.06540  1.0000 0.0797148585
C   C165      1.0  0.26380  0.88730  0.73540  1.0000 0.0797148585
C   C166      1.0  0.73620  0.11270  0.73540  1.0000 0.0797148585
C   C167      1.0  0.23620  0.38730  0.26460  1.0000 0.0797148585
C   C168      1.0  0.76380  0.61270  0.26460  1.0000 0.0797148585
C   C169      1.0  0.26980  0.94100  0.68590  1.0000 -0.2030354597
C   C170      1.0  0.73020  0.05900  0.68590  1.0000 -0.2030354597
C   C171      1.0  0.23020  0.44100  0.31410  1.0000 -0.2030354597
C   C172      1.0  0.76980  0.55900  0.31410  1.0000 -0.2030354597
C   C173      1.0  0.30770  0.00450  0.42450  1.0000 -0.1368216246
C   C174      1.0  0.69230  0.99550  0.42450  1.0000 -0.1368216246
C   C175      1.0  0.19230  0.50450  0.57550  1.0000 -0.1368216246
C   C176      1.0  0.80770  0.49550  0.57550  1.0000 -0.1368216246
C   C177      1.0  0.47300  0.28030  0.17870  1.0000 -0.0944311216
C   C178      1.0  0.52700  0.71970  0.17870  1.0000 -0.0944311216
C   C179      1.0  0.02700  0.78030  0.82130  1.0000 -0.0944311216
C   C180      1.0  0.97300  0.21970  0.82130  1.0000 -0.0944311216
C   C181      1.0  0.52620  0.27870  0.12550  1.0000 -0.1504349157
C   C182      1.0  0.47380  0.72130  0.12550  1.0000 -0.1504349157
C   C183      1.0  0.97380  0.77870  0.87450  1.0000 -0.1504349157
C   C184      1.0  0.02620  0.22130  0.87450  1.0000 -0.1504349157
C   C185      1.0  0.42180  0.29870  0.01670  1.0000 -0.1039639726
C   C186      1.0  0.57820  0.70130  0.01670  1.0000 -0.1039639726
C   C187      1.0  0.07820  0.79870  0.98330  1.0000 -0.1039639726
C   C188      1.0  0.92180  0.20130  0.98330  1.0000 -0.1039639726
C   C189      1.0  0.59340  0.30690  0.86030  1.0000 -0.2123289935
C   C190      1.0  0.40660  0.69310  0.86030  1.0000 -0.2123289935
C   C191      1.0  0.90660  0.80690  0.13970  1.0000 -0.2123289935
C   C192      1.0  0.09340  0.19310  0.13970  1.0000 -0.2123289935
N   N1        1.0  0.33572  0.23915  0.68320  1.0000 -0.2511975605
N   N2        1.0  0.66428  0.76085  0.68320  1.0000 -0.2511975605
N   N3        1.0  0.83572  0.26085  0.31680  1.0000 -0.2511975605
N   N4        1.0  0.16428  0.73915  0.31680  1.0000 -0.2511975605
N   N5        1.0  0.76044  0.81293  0.83960  1.0000 -0.2511975605
N   N6        1.0  0.23956  0.18707  0.83960  1.0000 -0.2511975605
N   N7        1.0  0.26044  0.68707  0.16040  1.0000 -0.2511975605
N   N8        1.0  0.73956  0.31293  0.16040  1.0000 -0.2511975605
N   N9        1.0  0.26085  0.83572  0.68320  1.0000 -0.2511975605
N   N10       1.0  0.73915  0.16428  0.68320  1.0000 -0.2511975605
N   N11       1.0  0.23915  0.33572  0.31680  1.0000 -0.2511975605
N   N12       1.0  0.76085  0.66428  0.31680  1.0000 -0.2511975605
N   N13       1.0  0.68707  0.26044  0.83960  1.0000 -0.2511975605
N   N14       1.0  0.31293  0.73956  0.83960  1.0000 -0.2511975605
N   N15       1.0  0.81293  0.76044  0.16040  1.0000 -0.2511975605
N   N16       1.0  0.18707  0.23956  0.16040  1.0000 -0.2511975605
O   O1        1.0  0.78321  0.18447  0.12600  1.0000 -0.531276711
O   O2        1.0  0.21679  0.81553  0.12600  1.0000 -0.531276711
O   O3        1.0  0.28321  0.31553  0.87400  1.0000 -0.531276711
O   O4        1.0  0.71679  0.68447  0.87400  1.0000 -0.531276711
O   O5        1.0  0.70525  0.25263  0.37710  1.0000 -0.5425012454
O   O6        1.0  0.29475  0.74737  0.37710  1.0000 -0.5425012454
O   O7        1.0  0.20525  0.24737  0.62290  1.0000 -0.5425012454
O   O8        1.0  0.79475  0.75263  0.62290  1.0000 -0.5425012454
O   O9        1.0  0.66078  0.20802  0.24540  1.0000 -0.531276711
O   O10       1.0  0.33922  0.79198  0.24540  1.0000 -0.531276711
O   O11       1.0  0.16078  0.29198  0.75460  1.0000 -0.531276711
O   O12       1.0  0.83922  0.70802  0.75460  1.0000 -0.531276711
O   O13       1.0  0.77737  0.13970  0.27890  1.0000 -0.5425012454
O   O14       1.0  0.22263  0.86030  0.27890  1.0000 -0.5425012454
O   O15       1.0  0.27737  0.36030  0.72110  1.0000 -0.5425012454
O   O16       1.0  0.72263  0.63970  0.72110  1.0000 -0.5425012454
O   O17       1.0  0.31553  0.28321  0.12600  1.0000 -0.531276711
O   O18       1.0  0.68447  0.71679  0.12600  1.0000 -0.531276711
O   O19       1.0  0.18447  0.78321  0.87400  1.0000 -0.531276711
O   O20       1.0  0.81553  0.21679  0.87400  1.0000 -0.531276711
O   O21       1.0  0.24737  0.20525  0.37710  1.0000 -0.5425012454
O   O22       1.0  0.75263  0.79475  0.37710  1.0000 -0.5425012454
O   O23       1.0  0.25263  0.70525  0.62290  1.0000 -0.5425012454
O   O24       1.0  0.74737  0.29475  0.62290  1.0000 -0.5425012454
O   O25       1.0  0.29198  0.16078  0.24540  1.0000 -0.531276711
O   O26       1.0  0.70802  0.83922  0.24540  1.0000 -0.531276711
O   O27       1.0  0.20802  0.66078  0.75460  1.0000 -0.531276711
O   O28       1.0  0.79198  0.33922  0.75460  1.0000 -0.531276711
O   O29       1.0  0.36030  0.27737  0.27890  1.0000 -0.5425012454
O   O30       1.0  0.63970  0.72263  0.27890  1.0000 -0.5425012454
O   O31       1.0  0.13970  0.77737  0.72110  1.0000 -0.5425012454
O   O32       1.0  0.86030  0.22263  0.72110  1.0000 -0.5425012454
