# DDEC6 charges by PACMAN v1.1 (https://github.com/mtap-research/PACMAN-charge/)
data_2013[Cu][pcu]3[FSR]2
_chemical_formula_sum              "Cu8 H40 C56 N16 O28"
_cell_length_a       17.5706
_cell_length_b       17.5706
_cell_length_c       15.666
_cell_angle_alpha    69.104
_cell_angle_beta     110.896
_cell_angle_gamma    155.701

_symmetry_space_group_name_H-M    "P 1"
_symmetry_Int_Tables_number       1

loop_
  _symmetry_equiv_pos_as_xyz
  'x, y, z'

loop_
  _atom_site_type_symbol
  _atom_site_label
  _atom_site_symmetry_multiplicity
  _atom_site_fract_x
  _atom_site_fract_y
  _atom_site_fract_z
  _atom_site_occupancy
  _atom_site_charge
Cu  Cu1       1.0  0.61484  0.10962  0.41503  1.0000 0.8973589854
Cu  Cu2       1.0  0.10962  0.61484  0.08497  1.0000 0.8973589854
Cu  Cu3       1.0  0.38516  0.89038  0.58497  1.0000 0.8973589854
Cu  Cu4       1.0  0.89038  0.38516  0.91503  1.0000 0.8973589854
Cu  Cu5       1.0  0.43531  0.11077  0.40794  1.0000 0.8716629462
Cu  Cu6       1.0  0.11077  0.43531  0.09206  1.0000 0.8716629462
Cu  Cu7       1.0  0.56469  0.88923  0.59206  1.0000 0.8716629462
Cu  Cu8       1.0  0.88923  0.56469  0.90794  1.0000 0.8716629462
H   H1        1.0  0.52870  0.74150  0.46930  1.0000 0.1332361826
H   H2        1.0  0.74150  0.52870  0.03070  1.0000 0.1332361826
H   H3        1.0  0.47130  0.25850  0.53070  1.0000 0.1332361826
H   H4        1.0  0.25850  0.47130  0.96930  1.0000 0.1332361826
H   H5        1.0  0.57310  0.98470  0.26020  1.0000 0.1407171355
H   H6        1.0  0.98470  0.57310  0.23980  1.0000 0.1407171355
H   H7        1.0  0.42690  0.01530  0.73980  1.0000 0.1407171355
H   H8        1.0  0.01530  0.42690  0.76020  1.0000 0.1407171355
H   H9        1.0  0.55560  0.83020  0.22520  1.0000 0.2819242196
H   H10       1.0  0.83020  0.55560  0.27480  1.0000 0.2819242196
H   H11       1.0  0.44440  0.16980  0.77480  1.0000 0.2819242196
H   H12       1.0  0.16980  0.44440  0.72520  1.0000 0.2819242196
H   H13       1.0  0.53280  0.73300  0.30470  1.0000 0.2819242196
H   H14       1.0  0.73300  0.53280  0.19530  1.0000 0.2819242196
H   H15       1.0  0.46720  0.26700  0.69530  1.0000 0.2819242196
H   H16       1.0  0.26700  0.46720  0.80470  1.0000 0.2819242196
H   H17       1.0  0.58060  0.14460  0.11680  1.0000 0.1407171355
H   H18       1.0  0.14460  0.58060  0.38320  1.0000 0.1407171355
H   H19       1.0  0.41940  0.85540  0.88320  1.0000 0.1407171355
H   H20       1.0  0.85540  0.41940  0.61680  1.0000 0.1407171355
H   H21       1.0  0.24560  0.01320  0.13590  1.0000 0.1177051109
H   H22       1.0  0.01320  0.24560  0.36410  1.0000 0.1177051109
H   H23       1.0  0.75440  0.98680  0.86410  1.0000 0.1177051109
H   H24       1.0  0.98680  0.75440  0.63590  1.0000 0.1177051109
H   H25       1.0  0.15740  0.97580  0.98100  1.0000 0.1177051109
H   H26       1.0  0.97580  0.15740  0.51900  1.0000 0.1177051109
H   H27       1.0  0.84260  0.02420  0.01900  1.0000 0.1177051109
H   H28       1.0  0.02420  0.84260  0.48100  1.0000 0.1177051109
H   H29       1.0  0.73750  0.61370  0.31620  1.0000 0.1177051109
H   H30       1.0  0.61370  0.73750  0.18380  1.0000 0.1177051109
H   H31       1.0  0.26250  0.38630  0.68380  1.0000 0.1177051109
H   H32       1.0  0.38630  0.26250  0.81620  1.0000 0.1177051109
H   H33       1.0  0.20790  0.20790  0.25000  1.0000 0.1332361826
H   H34       1.0  0.79210  0.79210  0.75000  1.0000 0.1332361826
H   H35       1.0  0.82920  0.82920  0.25000  1.0000 0.1332361826
H   H36       1.0  0.17080  0.17080  0.75000  1.0000 0.1332361826
H   H37       1.0  0.26850  0.00650  0.89480  1.0000 0.114685105
H   H38       1.0  0.00650  0.26850  0.60520  1.0000 0.114685105
H   H39       1.0  0.73150  0.99350  0.10520  1.0000 0.114685105
H   H40       1.0  0.99350  0.73150  0.39480  1.0000 0.114685105
C   C1        1.0  0.54330  0.80930  0.43410  1.0000 0.0743300708
C   C2        1.0  0.80930  0.54330  0.06590  1.0000 0.0743300708
C   C3        1.0  0.45670  0.19070  0.56590  1.0000 0.0743300708
C   C4        1.0  0.19070  0.45670  0.93410  1.0000 0.0743300708
C   C5        1.0  0.56760  0.94260  0.31960  1.0000 0.1024727465
C   C6        1.0  0.94260  0.56760  0.18040  1.0000 0.1024727465
C   C7        1.0  0.43240  0.05740  0.68040  1.0000 0.1024727465
C   C8        1.0  0.05740  0.43240  0.81960  1.0000 0.1024727465
C   C9        1.0  0.52221  0.11819  0.93770  1.0000 0.5653646456
C   C10       1.0  0.11819  0.52221  0.56230  1.0000 0.5653646456
C   C11       1.0  0.47779  0.88181  0.06230  1.0000 0.5653646456
C   C12       1.0  0.88181  0.47779  0.43770  1.0000 0.5653646456
C   C13       1.0  0.49440  0.10900  0.08990  1.0000 -0.1218386736
C   C14       1.0  0.10900  0.49440  0.41010  1.0000 -0.1218386736
C   C15       1.0  0.50560  0.89100  0.91010  1.0000 -0.1218386736
C   C16       1.0  0.89100  0.50560  0.58990  1.0000 -0.1218386736
C   C17       1.0  0.41890  0.07890  0.14200  1.0000 -0.036947815
C   C18       1.0  0.07890  0.41890  0.35800  1.0000 -0.036947815
C   C19       1.0  0.58110  0.92110  0.85800  1.0000 -0.036947815
C   C20       1.0  0.92110  0.58110  0.64200  1.0000 -0.036947815
C   C21       1.0  0.44060  0.08540  0.99660  1.0000 -0.001141782
C   C22       1.0  0.08540  0.44060  0.50340  1.0000 -0.001141782
C   C23       1.0  0.55940  0.91460  0.00340  1.0000 -0.001141782
C   C24       1.0  0.91460  0.55940  0.49660  1.0000 -0.001141782
C   C25       1.0  0.46780  0.09700  0.24340  1.0000 0.5771279053
C   C26       1.0  0.09700  0.46780  0.25660  1.0000 0.5771279053
C   C27       1.0  0.53220  0.90300  0.75660  1.0000 0.5771279053
C   C28       1.0  0.90300  0.53220  0.74340  1.0000 0.5771279053
C   C29       1.0  0.29360  0.03020  0.10060  1.0000 -0.1271963103
C   C30       1.0  0.03020  0.29360  0.39940  1.0000 -0.1271963103
C   C31       1.0  0.70640  0.96980  0.89940  1.0000 -0.1271963103
C   C32       1.0  0.96980  0.70640  0.60060  1.0000 -0.1271963103
C   C33       1.0  0.23970  0.00650  0.00820  1.0000 -0.0878849371
C   C34       1.0  0.00650  0.23970  0.49180  1.0000 -0.0878849371
C   C35       1.0  0.76030  0.99350  0.99180  1.0000 -0.0878849371
C   C36       1.0  0.99350  0.76030  0.50820  1.0000 -0.0878849371
C   C37       1.0  0.39920  0.24280  0.32990  1.0000 0.5405925827
C   C38       1.0  0.24280  0.39920  0.17010  1.0000 0.5405925827
C   C39       1.0  0.60080  0.75720  0.67010  1.0000 0.5405925827
C   C40       1.0  0.75720  0.60080  0.82990  1.0000 0.5405925827
C   C41       1.0  0.46270  0.38710  0.28950  1.0000 -0.0166759577
C   C42       1.0  0.38710  0.46270  0.21050  1.0000 -0.0166759577
C   C43       1.0  0.53730  0.61290  0.71050  1.0000 -0.0166759577
C   C44       1.0  0.61290  0.53730  0.78950  1.0000 -0.0166759577
C   C45       1.0  0.64860  0.57440  0.28940  1.0000 -0.1138041487
C   C46       1.0  0.57440  0.64860  0.21060  1.0000 -0.1138041487
C   C47       1.0  0.35140  0.42560  0.71060  1.0000 -0.1138041487
C   C48       1.0  0.42560  0.35140  0.78940  1.0000 -0.1138041487
C   C49       1.0  0.33360  0.33360  0.25000  1.0000 -0.1218386736
C   C50       1.0  0.66640  0.66640  0.75000  1.0000 -0.1218386736
C   C51       1.0  0.70300  0.70300  0.25000  1.0000 -0.0846194906
C   C52       1.0  0.29700  0.29700  0.75000  1.0000 -0.0878849371
C   C53       1.0  0.30920  0.02900  0.95650  1.0000 -0.1138041487
C   C54       1.0  0.02900  0.30920  0.54350  1.0000 -0.1138041487
C   C55       1.0  0.69080  0.97100  0.04350  1.0000 -0.1138041487
C   C56       1.0  0.97100  0.69080  0.45650  1.0000 -0.1138041487
N   N1        1.0  0.57674  0.96986  0.39260  1.0000 -0.1759572907
N   N2        1.0  0.96986  0.57674  0.10740  1.0000 -0.1759572907
N   N3        1.0  0.42326  0.03014  0.60740  1.0000 -0.1759572907
N   N4        1.0  0.03014  0.42326  0.89260  1.0000 -0.1759572907
N   N5        1.0  0.56116  0.88404  0.46580  1.0000 -0.174180208
N   N6        1.0  0.88404  0.56116  0.03420  1.0000 -0.174180208
N   N7        1.0  0.43884  0.11596  0.53420  1.0000 -0.174180208
N   N8        1.0  0.11596  0.43884  0.96580  1.0000 -0.174180208
N   N9        1.0  0.54920  0.84480  0.34190  1.0000 0.1625800447
N   N10       1.0  0.84480  0.54920  0.15810  1.0000 0.1625800447
N   N11       1.0  0.45080  0.15520  0.65810  1.0000 0.1625800447
N   N12       1.0  0.15520  0.45080  0.84190  1.0000 0.1625800447
N   N13       1.0  0.54530  0.79630  0.28290  1.0000 -0.4791596217
N   N14       1.0  0.79630  0.54530  0.21710  1.0000 -0.4791596217
N   N15       1.0  0.45470  0.20370  0.71710  1.0000 -0.4791596217
N   N16       1.0  0.20370  0.45470  0.78290  1.0000 -0.4791596217
O   O1        1.0  0.40967  0.09033  0.28220  1.0000 -0.5026274009
O   O2        1.0  0.09033  0.40967  0.21780  1.0000 -0.5026274009
O   O3        1.0  0.59033  0.90967  0.71780  1.0000 -0.5026274009
O   O4        1.0  0.90967  0.59033  0.78220  1.0000 -0.5026274009
O   O5        1.0  0.56489  0.12011  0.28270  1.0000 -0.5397847377
O   O6        1.0  0.12011  0.56489  0.21730  1.0000 -0.5397847377
O   O7        1.0  0.43511  0.87989  0.71730  1.0000 -0.5397847377
O   O8        1.0  0.87989  0.43511  0.78270  1.0000 -0.5397847377
O   O9        1.0  0.42188  0.99912  0.89040  1.0000 -0.4591325207
O   O10       1.0  0.99912  0.42188  0.60960  1.0000 -0.4591325207
O   O11       1.0  0.57812  0.00088  0.10960  1.0000 -0.4591325207
O   O12       1.0  0.00088  0.57812  0.39040  1.0000 -0.4591325207
O   O13       1.0  0.70013  0.27827  0.94210  1.0000 -0.5397847377
O   O14       1.0  0.27827  0.70013  0.55790  1.0000 -0.5397847377
O   O15       1.0  0.29987  0.72173  0.05790  1.0000 -0.5397847377
O   O16       1.0  0.72173  0.29987  0.44210  1.0000 -0.5397847377
O   O17       1.0  0.35524  0.92616  0.45560  1.0000 -0.6919378323
O   O18       1.0  0.92616  0.35524  0.04440  1.0000 -0.6919378323
O   O19       1.0  0.64476  0.07384  0.54440  1.0000 -0.6919378323
O   O20       1.0  0.07384  0.64476  0.95560  1.0000 -0.6919378323
O   O21       1.0  0.52450  0.30330  0.36230  1.0000 -0.5397847377
O   O22       1.0  0.30330  0.52450  0.13770  1.0000 -0.5397847377
O   O23       1.0  0.47550  0.69670  0.63770  1.0000 -0.5397847377
O   O24       1.0  0.69670  0.47550  0.86230  1.0000 -0.5397847377
O   O25       1.0  0.23240  0.07680  0.32820  1.0000 -0.5453571363
O   O26       1.0  0.07680  0.23240  0.17180  1.0000 -0.5453571363
O   O27       1.0  0.76760  0.92320  0.67180  1.0000 -0.5453571363
O   O28       1.0  0.92320  0.76760  0.82820  1.0000 -0.5453571363
