# DDEC6 charges by PACMAN v1.1 (https://github.com/mtap-research/PACMAN-charge/)
data_2013[Zn][dia]3[FSR]7
_chemical_formula_sum              "Zn4 H80 C88 N24 O16"
_cell_length_a       7.8463
_cell_length_b       18.3139
_cell_length_c       19.376
_cell_angle_alpha    90
_cell_angle_beta     90
_cell_angle_gamma    90

_symmetry_space_group_name_H-M    "P 1"
_symmetry_Int_Tables_number       1

loop_
  _symmetry_equiv_pos_as_xyz
  'x, y, z'

loop_
  _atom_site_type_symbol
  _atom_site_label
  _atom_site_symmetry_multiplicity
  _atom_site_fract_x
  _atom_site_fract_y
  _atom_site_fract_z
  _atom_site_occupancy
  _atom_site_charge
Zn  Zn1       1.0  0.47462  0.49186  0.50001  1.0000 0.7822943092
Zn  Zn2       1.0  0.52538  0.50814  0.00001  1.0000 0.7822943092
Zn  Zn3       1.0  0.47462  0.00814  0.00001  1.0000 0.7822943092
Zn  Zn4       1.0  0.52538  0.99186  0.50001  1.0000 0.7822943092
H   H1        1.0  0.36460  0.27470  0.51920  1.0000 0.1247593522
H   H2        1.0  0.63540  0.72530  0.01920  1.0000 0.1264328628
H   H3        1.0  0.36460  0.22530  0.01920  1.0000 0.1264328628
H   H4        1.0  0.63540  0.77470  0.51920  1.0000 0.1247593522
H   H5        1.0  0.13560  0.35200  0.54140  1.0000 0.1388972983
H   H6        1.0  0.86440  0.64800  0.04140  1.0000 0.1388972983
H   H7        1.0  0.13560  0.14800  0.04140  1.0000 0.1388972983
H   H8        1.0  0.86440  0.85200  0.54140  1.0000 0.1388972983
H   H9        1.0  0.81340  0.18050  0.52480  1.0000 0.1388972983
H   H10       1.0  0.18660  0.81950  0.02480  1.0000 0.1388972983
H   H11       1.0  0.81340  0.31950  0.02480  1.0000 0.1388972983
H   H12       1.0  0.18660  0.68050  0.52480  1.0000 0.1388972983
H   H13       1.0  0.04510  0.10260  0.50940  1.0000 0.1264328628
H   H14       1.0  0.95490  0.89740  0.00940  1.0000 0.1264328628
H   H15       1.0  0.04510  0.39740  0.00940  1.0000 0.1264328628
H   H16       1.0  0.95490  0.60260  0.50940  1.0000 0.1264328628
H   H17       1.0  0.95630  0.43880  0.46580  1.0000 0.1705301899
H   H18       1.0  0.04370  0.56120  0.96580  1.0000 0.1705301899
H   H19       1.0  0.95630  0.06120  0.96580  1.0000 0.1705301899
H   H20       1.0  0.04370  0.93880  0.46580  1.0000 0.1705301899
H   H21       1.0  0.90490  0.37050  0.42010  1.0000 0.1619060429
H   H22       1.0  0.09510  0.62950  0.92010  1.0000 0.1619060429
H   H23       1.0  0.90490  0.12950  0.92010  1.0000 0.1619060429
H   H24       1.0  0.09510  0.87050  0.42010  1.0000 0.1619060429
H   H25       1.0  0.78790  0.44100  0.42070  1.0000 0.1705301899
H   H26       1.0  0.21210  0.55900  0.92070  1.0000 0.1705301899
H   H27       1.0  0.78790  0.05900  0.92070  1.0000 0.1705301899
H   H28       1.0  0.21210  0.94100  0.42070  1.0000 0.1705301899
H   H29       1.0  0.64080  0.20750  0.62720  1.0000 0.1705301899
H   H30       1.0  0.35920  0.79250  0.12720  1.0000 0.1705301899
H   H31       1.0  0.64080  0.29250  0.12720  1.0000 0.1705301899
H   H32       1.0  0.35920  0.70750  0.62720  1.0000 0.1705301899
H   H33       1.0  0.79330  0.24630  0.66630  1.0000 0.150843902
H   H34       1.0  0.20670  0.75370  0.16630  1.0000 0.150843902
H   H35       1.0  0.79330  0.25370  0.16630  1.0000 0.150843902
H   H36       1.0  0.20670  0.74630  0.66630  1.0000 0.150843902
H   H37       1.0  0.60250  0.26690  0.68460  1.0000 0.1619060429
H   H38       1.0  0.39750  0.73310  0.18460  1.0000 0.1619060429
H   H39       1.0  0.60250  0.23310  0.18460  1.0000 0.1619060429
H   H40       1.0  0.39750  0.76690  0.68460  1.0000 0.1619060429
H   H41       1.0  0.72630  0.43490  0.22890  1.0000 0.1264328628
H   H42       1.0  0.27370  0.56510  0.72890  1.0000 0.1264328628
H   H43       1.0  0.72630  0.06510  0.72890  1.0000 0.1264328628
H   H44       1.0  0.27370  0.93490  0.22890  1.0000 0.1264328628
H   H45       1.0  0.94460  0.42350  0.31010  1.0000 0.1264328628
H   H46       1.0  0.05540  0.57650  0.81010  1.0000 0.1264328628
H   H47       1.0  0.94460  0.07650  0.81010  1.0000 0.1264328628
H   H48       1.0  0.05540  0.92350  0.31010  1.0000 0.1264328628
H   H49       1.0  0.28120  0.50630  0.17430  1.0000 0.150843902
H   H50       1.0  0.71880  0.49370  0.67430  1.0000 0.150843902
H   H51       1.0  0.28120  0.99370  0.67430  1.0000 0.150843902
H   H52       1.0  0.71880  0.00630  0.17430  1.0000 0.150843902
H   H53       1.0  0.06250  0.51500  0.09210  1.0000 0.1264328628
H   H54       1.0  0.93750  0.48500  0.59210  1.0000 0.1264328628
H   H55       1.0  0.06250  0.98500  0.59210  1.0000 0.1264328628
H   H56       1.0  0.93750  0.01500  0.09210  1.0000 0.1264328628
H   H57       1.0  0.24640  0.59360  0.41250  1.0000 0.1785811755
H   H58       1.0  0.75360  0.40640  0.91250  1.0000 0.1785811755
H   H59       1.0  0.24640  0.90640  0.91250  1.0000 0.1785811755
H   H60       1.0  0.75360  0.09360  0.41250  1.0000 0.1785811755
H   H61       1.0  0.17400  0.59510  0.33620  1.0000 0.1619060429
H   H62       1.0  0.82600  0.40490  0.83620  1.0000 0.1619060429
H   H63       1.0  0.17400  0.90490  0.83620  1.0000 0.1619060429
H   H64       1.0  0.82600  0.09510  0.33620  1.0000 0.1619060429
H   H65       1.0  0.07290  0.55340  0.39490  1.0000 0.1619060429
H   H66       1.0  0.92710  0.44660  0.89490  1.0000 0.1619060429
H   H67       1.0  0.07290  0.94660  0.89490  1.0000 0.1619060429
H   H68       1.0  0.92710  0.05340  0.39490  1.0000 0.1619060429
H   H69       1.0  0.47210  0.30670  0.26990  1.0000 0.1619060429
H   H70       1.0  0.52790  0.69330  0.76990  1.0000 0.1619060429
H   H71       1.0  0.47210  0.19330  0.76990  1.0000 0.1619060429
H   H72       1.0  0.52790  0.80670  0.26990  1.0000 0.1619060429
H   H73       1.0  0.28020  0.31930  0.24750  1.0000 0.1619060429
H   H74       1.0  0.71980  0.68070  0.74750  1.0000 0.1619060429
H   H75       1.0  0.28020  0.18070  0.74750  1.0000 0.1619060429
H   H76       1.0  0.71980  0.81930  0.24750  1.0000 0.1619060429
H   H77       1.0  0.42790  0.36490  0.21210  1.0000 0.1619060429
H   H78       1.0  0.57210  0.63510  0.71210  1.0000 0.1619060429
H   H79       1.0  0.42790  0.13510  0.71210  1.0000 0.1619060429
H   H80       1.0  0.57210  0.86490  0.21210  1.0000 0.1619060429
C   C1        1.0  0.37730  0.13057  0.49890  1.0000 0.5601734877
C   C2        1.0  0.62270  0.86943  0.99890  1.0000 0.5601734877
C   C3        1.0  0.37730  0.36943  0.99890  1.0000 0.5601734877
C   C4        1.0  0.62270  0.63057  0.49890  1.0000 0.5601734877
C   C5        1.0  0.22800  0.18100  0.51217  1.0000 -0.0169698215
C   C6        1.0  0.77200  0.81900  0.01217  1.0000 -0.0169698215
C   C7        1.0  0.22800  0.31900  0.01217  1.0000 -0.0169698215
C   C8        1.0  0.77200  0.68100  0.51217  1.0000 -0.0169698215
C   C9        1.0  0.25350  0.25554  0.52138  1.0000 -0.0770148373
C   C10       1.0  0.74650  0.74446  0.02138  1.0000 -0.0770148373
C   C11       1.0  0.25350  0.24446  0.02138  1.0000 -0.0770148373
C   C12       1.0  0.74650  0.75554  0.52138  1.0000 -0.0770148373
C   C13       1.0  0.11740  0.30198  0.53368  1.0000 -0.1698328476
C   C14       1.0  0.88260  0.69802  0.03368  1.0000 -0.1698328476
C   C15       1.0  0.11740  0.19802  0.03368  1.0000 -0.1698328476
C   C16       1.0  0.88260  0.80198  0.53368  1.0000 -0.1698328476
C   C17       1.0  0.95320  0.27311  0.53433  1.0000 0.1785811755
C   C18       1.0  0.04680  0.72689  0.03433  1.0000 0.1785811755
C   C19       1.0  0.95320  0.22689  0.03433  1.0000 0.1785811755
C   C20       1.0  0.04680  0.77311  0.53433  1.0000 0.1785811755
C   C21       1.0  0.92500  0.19926  0.52463  1.0000 -0.1698328476
C   C22       1.0  0.07500  0.80074  0.02463  1.0000 -0.1698328476
C   C23       1.0  0.92500  0.30074  0.02463  1.0000 -0.1698328476
C   C24       1.0  0.07500  0.69926  0.52463  1.0000 -0.1698328476
C   C25       1.0  0.06300  0.15310  0.51461  1.0000 -0.0881915815
C   C26       1.0  0.93700  0.84690  0.01461  1.0000 -0.0881915815
C   C27       1.0  0.06300  0.34690  0.01461  1.0000 -0.0881915815
C   C28       1.0  0.93700  0.65310  0.51461  1.0000 -0.0881915815
C   C29       1.0  0.86170  0.41014  0.44834  1.0000 -0.5282815336
C   C30       1.0  0.13830  0.58986  0.94834  1.0000 -0.5282815336
C   C31       1.0  0.86170  0.08986  0.94834  1.0000 -0.5282815336
C   C32       1.0  0.13830  0.91014  0.44834  1.0000 -0.5282815336
C   C33       1.0  0.76290  0.37945  0.50756  1.0000 0.3621560395
C   C34       1.0  0.23710  0.62055  0.00756  1.0000 0.3621560395
C   C35       1.0  0.76290  0.12055  0.00756  1.0000 0.3621560395
C   C36       1.0  0.23710  0.87945  0.50756  1.0000 0.3621560395
C   C37       1.0  0.68220  0.31138  0.59400  1.0000 0.3534579039
C   C38       1.0  0.31780  0.68862  0.09400  1.0000 0.3534579039
C   C39       1.0  0.68220  0.18862  0.09400  1.0000 0.3534579039
C   C40       1.0  0.31780  0.81138  0.59400  1.0000 0.3534579039
C   C41       1.0  0.67940  0.25289  0.64770  1.0000 -0.5130807399
C   C42       1.0  0.32060  0.74711  0.14770  1.0000 -0.5130807399
C   C43       1.0  0.67940  0.24711  0.14770  1.0000 -0.5130807399
C   C44       1.0  0.32060  0.75289  0.64770  1.0000 -0.5130807399
C   C45       1.0  0.72660  0.48278  0.10235  1.0000 0.5417665304
C   C46       1.0  0.27340  0.51722  0.60235  1.0000 0.5417665304
C   C47       1.0  0.72660  0.01722  0.60235  1.0000 0.5417665304
C   C48       1.0  0.27340  0.98278  0.10235  1.0000 0.5417665304
C   C49       1.0  0.87350  0.47662  0.15301  1.0000 -0.0169698215
C   C50       1.0  0.12650  0.52338  0.65301  1.0000 -0.0169698215
C   C51       1.0  0.87350  0.02338  0.65301  1.0000 -0.0169698215
C   C52       1.0  0.12650  0.97662  0.15301  1.0000 -0.0169698215
C   C53       1.0  0.83790  0.44940  0.21766  1.0000 -0.0881915815
C   C54       1.0  0.16210  0.55060  0.71766  1.0000 -0.0881915815
C   C55       1.0  0.83790  0.05060  0.71766  1.0000 -0.0881915815
C   C56       1.0  0.16210  0.94940  0.21766  1.0000 -0.0881915815
C   C57       1.0  0.96790  0.44320  0.26637  1.0000 -0.180538924
C   C58       1.0  0.03210  0.55680  0.76637  1.0000 -0.180538924
C   C59       1.0  0.96790  0.05680  0.76637  1.0000 -0.180538924
C   C60       1.0  0.03210  0.94320  0.26637  1.0000 -0.180538924
C   C61       1.0  0.13040  0.46612  0.25041  1.0000 0.1785811755
C   C62       1.0  0.86960  0.53388  0.75041  1.0000 0.1785811755
C   C63       1.0  0.13040  0.03388  0.75041  1.0000 0.1785811755
C   C64       1.0  0.86960  0.96612  0.25041  1.0000 0.1785811755
C   C65       1.0  0.16930  0.49221  0.18549  1.0000 -0.1623495534
C   C66       1.0  0.83070  0.50779  0.68549  1.0000 -0.1623495534
C   C67       1.0  0.16930  0.00779  0.68549  1.0000 -0.1623495534
C   C68       1.0  0.83070  0.99221  0.18549  1.0000 -0.1623495534
C   C69       1.0  0.03820  0.49729  0.13660  1.0000 -0.0770148373
C   C70       1.0  0.96180  0.50271  0.63660  1.0000 -0.0748385131
C   C71       1.0  0.03820  0.00271  0.63660  1.0000 -0.0770148373
C   C72       1.0  0.96180  0.99729  0.13660  1.0000 -0.0770148373
C   C73       1.0  0.18530  0.56594  0.37767  1.0000 -0.5182918623
C   C74       1.0  0.81470  0.43406  0.87767  1.0000 -0.5182918623
C   C75       1.0  0.18530  0.93406  0.87767  1.0000 -0.5182918623
C   C76       1.0  0.81470  0.06594  0.37767  1.0000 -0.5182918623
C   C77       1.0  0.28090  0.49791  0.36157  1.0000 0.3534579039
C   C78       1.0  0.71910  0.50209  0.86157  1.0000 0.3534579039
C   C79       1.0  0.28090  0.00209  0.86157  1.0000 0.3534579039
C   C80       1.0  0.71910  0.99791  0.36157  1.0000 0.3534579039
C   C81       1.0  0.37160  0.39993  0.30845  1.0000 0.3438197285
C   C82       1.0  0.62840  0.60007  0.80845  1.0000 0.3438197285
C   C83       1.0  0.37160  0.10007  0.80845  1.0000 0.3438197285
C   C84       1.0  0.62840  0.89993  0.30845  1.0000 0.3438197285
C   C85       1.0  0.38950  0.34280  0.25490  1.0000 -0.5130807399
C   C86       1.0  0.61050  0.65720  0.75490  1.0000 -0.5130807399
C   C87       1.0  0.38950  0.15720  0.75490  1.0000 -0.5130807399
C   C88       1.0  0.61050  0.84280  0.25490  1.0000 -0.5130807399
N   N1        1.0  0.61660  0.40469  0.53102  1.0000 -0.2563753589
N   N2        1.0  0.38340  0.59531  0.03102  1.0000 -0.2563753589
N   N3        1.0  0.61660  0.09531  0.03102  1.0000 -0.2563753589
N   N4        1.0  0.38340  0.90469  0.53102  1.0000 -0.2563753589
N   N5        1.0  0.56600  0.36175  0.58678  1.0000 -0.2826138824
N   N6        1.0  0.43400  0.63825  0.08678  1.0000 -0.2826138824
N   N7        1.0  0.56600  0.13825  0.08678  1.0000 -0.2826138824
N   N8        1.0  0.43400  0.86175  0.58678  1.0000 -0.2826138824
N   N9        1.0  0.80890  0.32045  0.54593  1.0000 -0.1471389696
N   N10       1.0  0.19110  0.67955  0.04593  1.0000 -0.1471389696
N   N11       1.0  0.80890  0.17955  0.04593  1.0000 -0.1471389696
N   N12       1.0  0.19110  0.82045  0.54593  1.0000 -0.1471389696
N   N13       1.0  0.39790  0.46740  0.39988  1.0000 -0.2714616
N   N14       1.0  0.60210  0.53260  0.89988  1.0000 -0.2714616
N   N15       1.0  0.39790  0.03260  0.89988  1.0000 -0.2714616
N   N16       1.0  0.60210  0.96740  0.39988  1.0000 -0.2714616
N   N17       1.0  0.45630  0.40464  0.36612  1.0000 -0.2982970864
N   N18       1.0  0.54370  0.59536  0.86612  1.0000 -0.2982970864
N   N19       1.0  0.45630  0.09536  0.86612  1.0000 -0.2982970864
N   N20       1.0  0.54370  0.90464  0.36612  1.0000 -0.2982970864
N   N21       1.0  0.26030  0.45757  0.30237  1.0000 -0.1471389696
N   N22       1.0  0.73970  0.54243  0.80237  1.0000 -0.1471389696
N   N23       1.0  0.26030  0.04243  0.80237  1.0000 -0.1471389696
N   N24       1.0  0.73970  0.95757  0.30237  1.0000 -0.1471389696
O   O1        1.0  0.34072  0.06279  0.49404  1.0000 -0.5521610468
O   O2        1.0  0.65928  0.93721  0.99404  1.0000 -0.5521610468
O   O3        1.0  0.34072  0.43721  0.99404  1.0000 -0.5521610468
O   O4        1.0  0.65928  0.56279  0.49404  1.0000 -0.5521610468
O   O5        1.0  0.52320  0.15606  0.49280  1.0000 -0.5601603329
O   O6        1.0  0.47680  0.84394  0.99280  1.0000 -0.5601603329
O   O7        1.0  0.52320  0.34394  0.99280  1.0000 -0.5601603329
O   O8        1.0  0.47680  0.65606  0.49280  1.0000 -0.5601603329
O   O9        1.0  0.76000  0.50621  0.04185  1.0000 -0.5358757019
O   O10       1.0  0.24000  0.49379  0.54185  1.0000 -0.5358757019
O   O11       1.0  0.76000  0.99379  0.54185  1.0000 -0.5358757019
O   O12       1.0  0.24000  0.00621  0.04185  1.0000 -0.5358757019
O   O13       1.0  0.58030  0.46658  0.12061  1.0000 -0.5182918623
O   O14       1.0  0.41970  0.53342  0.62061  1.0000 -0.5182918623
O   O15       1.0  0.58030  0.03342  0.62061  1.0000 -0.5182918623
O   O16       1.0  0.41970  0.96658  0.12061  1.0000 -0.5182918623
