# DDEC6 charges by PACMAN v1.1 (https://github.com/mtap-research/PACMAN-charge/)
data_2013[Co][fet]3[FSR]1
_chemical_formula_sum              "Co4 H100 C132 N20 O16"
_cell_length_a       13.4374
_cell_length_b       16.6277
_cell_length_c       18.2444
_cell_angle_alpha    90
_cell_angle_beta     131.783
_cell_angle_gamma    90

_symmetry_space_group_name_H-M    "P 1"
_symmetry_Int_Tables_number       1

loop_
  _symmetry_equiv_pos_as_xyz
  'x, y, z'

loop_
  _atom_site_type_symbol
  _atom_site_label
  _atom_site_symmetry_multiplicity
  _atom_site_fract_x
  _atom_site_fract_y
  _atom_site_fract_z
  _atom_site_occupancy
  _atom_site_charge
Co  Co1       1.0  0.09149  0.76735  0.21861  1.0000 0.7589603772
Co  Co2       1.0  0.90851  0.26735  0.28139  1.0000 0.7589603772
Co  Co3       1.0  0.90851  0.23265  0.78139  1.0000 0.7589603772
Co  Co4       1.0  0.09149  0.73265  0.71861  1.0000 0.7589603772
H   H1        1.0  0.82510  0.85290  0.06370  1.0000 0.1093428151
H   H2        1.0  0.17490  0.35290  0.43630  1.0000 0.1093428151
H   H3        1.0  0.17490  0.14710  0.93630  1.0000 0.1093428151
H   H4        1.0  0.82510  0.64710  0.56370  1.0000 0.1093428151
H   H5        1.0  0.89460  0.65710  0.20760  1.0000 0.1093428151
H   H6        1.0  0.10540  0.15710  0.29240  1.0000 0.1093428151
H   H7        1.0  0.10540  0.34290  0.79240  1.0000 0.1093428151
H   H8        1.0  0.89460  0.84290  0.70760  1.0000 0.1093428151
H   H9        1.0  0.52040  0.71200  0.96980  1.0000 0.1297395667
H   H10       1.0  0.47960  0.21200  0.53020  1.0000 0.1297395667
H   H11       1.0  0.47960  0.28800  0.03020  1.0000 0.1297395667
H   H12       1.0  0.52040  0.78800  0.46980  1.0000 0.1297395667
H   H13       1.0  0.70740  0.89350  0.91820  1.0000 0.1093428151
H   H14       1.0  0.29260  0.39350  0.58180  1.0000 0.1093428151
H   H15       1.0  0.29260  0.10650  0.08180  1.0000 0.1093428151
H   H16       1.0  0.70740  0.60650  0.41820  1.0000 0.1093428151
H   H17       1.0  0.39180  0.81710  0.87860  1.0000 0.120890627
H   H18       1.0  0.60820  0.31710  0.62140  1.0000 0.120890627
H   H19       1.0  0.60820  0.18290  0.12140  1.0000 0.120890627
H   H20       1.0  0.39180  0.68290  0.37860  1.0000 0.120890627
H   H21       1.0  0.34610  0.98240  0.69860  1.0000 0.1093428151
H   H22       1.0  0.65390  0.48240  0.80140  1.0000 0.1093428151
H   H23       1.0  0.65390  0.01760  0.30140  1.0000 0.1093428151
H   H24       1.0  0.34610  0.51760  0.19860  1.0000 0.1093428151
H   H25       1.0  0.57130  0.97700  0.78530  1.0000 0.1093428151
H   H26       1.0  0.42870  0.47700  0.71470  1.0000 0.1093428151
H   H27       1.0  0.42870  0.02300  0.21470  1.0000 0.1093428151
H   H28       1.0  0.57130  0.52300  0.28530  1.0000 0.1093428151
H   H29       1.0  0.81970  0.53550  0.18770  1.0000 0.120890627
H   H30       1.0  0.18030  0.03550  0.31230  1.0000 0.120890627
H   H31       1.0  0.18030  0.46450  0.81230  1.0000 0.120890627
H   H32       1.0  0.81970  0.96450  0.68770  1.0000 0.120890627
H   H33       1.0  0.52250  0.41940  0.14320  1.0000 0.1093428151
H   H34       1.0  0.47750  0.91940  0.35680  1.0000 0.1093428151
H   H35       1.0  0.47750  0.58060  0.85680  1.0000 0.1093428151
H   H36       1.0  0.52250  0.08060  0.64320  1.0000 0.1093428151
H   H37       1.0  0.38690  0.53060  0.06280  1.0000 0.1093428151
H   H38       1.0  0.61310  0.03060  0.43720  1.0000 0.1093428151
H   H39       1.0  0.61310  0.46940  0.93720  1.0000 0.1093428151
H   H40       1.0  0.38690  0.96940  0.56280  1.0000 0.1093428151
H   H41       1.0  0.46790  0.64470  0.04630  1.0000 0.1093428151
H   H42       1.0  0.53210  0.14470  0.45370  1.0000 0.1093428151
H   H43       1.0  0.53210  0.35530  0.95370  1.0000 0.1093428151
H   H44       1.0  0.46790  0.85530  0.54630  1.0000 0.1093428151
H   H45       1.0  0.17810  0.64360  0.38730  1.0000 0.120890627
H   H46       1.0  0.82190  0.14360  0.11270  1.0000 0.120890627
H   H47       1.0  0.82190  0.35640  0.61270  1.0000 0.120890627
H   H48       1.0  0.17810  0.85640  0.88730  1.0000 0.120890627
H   H49       1.0  0.25950  0.82200  0.56290  1.0000 0.1297395667
H   H50       1.0  0.74050  0.32200  0.93710  1.0000 0.1297395667
H   H51       1.0  0.74050  0.17800  0.43710  1.0000 0.1297395667
H   H52       1.0  0.25950  0.67800  0.06290  1.0000 0.1297395667
H   H53       1.0  0.16390  0.87710  0.40400  1.0000 0.1297395667
H   H54       1.0  0.83610  0.37710  0.09600  1.0000 0.1297395667
H   H55       1.0  0.83610  0.12290  0.59600  1.0000 0.1297395667
H   H56       1.0  0.16390  0.62290  0.90400  1.0000 0.1297395667
H   H57       1.0  0.26610  0.66280  0.61690  1.0000 0.1297395667
H   H58       1.0  0.73390  0.16280  0.88310  1.0000 0.1297395667
H   H59       1.0  0.73390  0.33720  0.38310  1.0000 0.1297395667
H   H60       1.0  0.26610  0.83720  0.11690  1.0000 0.1297395667
H   H61       1.0  0.26720  0.59880  0.55420  1.0000 0.120890627
H   H62       1.0  0.73280  0.09880  0.94580  1.0000 0.120890627
H   H63       1.0  0.73280  0.40120  0.44580  1.0000 0.120890627
H   H64       1.0  0.26720  0.90120  0.05420  1.0000 0.120890627
H   H65       1.0  0.46640  0.60880  0.56140  1.0000 0.120890627
H   H66       1.0  0.53360  0.10880  0.93860  1.0000 0.120890627
H   H67       1.0  0.53360  0.39120  0.43860  1.0000 0.120890627
H   H68       1.0  0.46640  0.89120  0.06140  1.0000 0.120890627
H   H69       1.0  0.69410  0.62050  0.66590  1.0000 0.120890627
H   H70       1.0  0.30590  0.12050  0.83410  1.0000 0.120890627
H   H71       1.0  0.30590  0.37950  0.33410  1.0000 0.120890627
H   H72       1.0  0.69410  0.87950  0.16590  1.0000 0.120890627
H   H73       1.0  0.70060  0.71710  0.86880  1.0000 0.1093428151
H   H74       1.0  0.29940  0.21710  0.63120  1.0000 0.1093428151
H   H75       1.0  0.29940  0.28290  0.13120  1.0000 0.1093428151
H   H76       1.0  0.70060  0.78290  0.36880  1.0000 0.1093428151
H   H77       1.0  0.47210  0.70730  0.76330  1.0000 0.1297395667
H   H78       1.0  0.52790  0.20730  0.73670  1.0000 0.1297395667
H   H79       1.0  0.52790  0.29270  0.23670  1.0000 0.1297395667
H   H80       1.0  0.47210  0.79270  0.26330  1.0000 0.1297395667
H   H81       1.0  0.89520  0.69130  0.80820  1.0000 0.120890627
H   H82       1.0  0.10480  0.19130  0.69180  1.0000 0.120890627
H   H83       1.0  0.10480  0.30870  0.19180  1.0000 0.120890627
H   H84       1.0  0.89520  0.80870  0.30820  1.0000 0.120890627
H   H85       1.0  0.90760  0.62160  0.87170  1.0000 0.145039778
H   H86       1.0  0.09240  0.12160  0.62830  1.0000 0.145039778
H   H87       1.0  0.09240  0.37840  0.12830  1.0000 0.145039778
H   H88       1.0  0.90760  0.87840  0.37170  1.0000 0.145039778
H   H89       1.0  0.99740  0.65690  0.03950  1.0000 0.120890627
H   H90       1.0  0.00260  0.15690  0.46050  1.0000 0.120890627
H   H91       1.0  0.00260  0.34310  0.96050  1.0000 0.120890627
H   H92       1.0  0.99740  0.84310  0.53950  1.0000 0.120890627
H   H93       1.0  0.00820  0.89110  0.03630  1.0000 0.120890627
H   H94       1.0  0.99180  0.39110  0.46370  1.0000 0.120890627
H   H95       1.0  0.99180  0.10890  0.96370  1.0000 0.120890627
H   H96       1.0  0.00820  0.60890  0.53630  1.0000 0.120890627
H   H97       1.0  0.89990  0.84460  0.87100  1.0000 0.120890627
H   H98       1.0  0.10010  0.34460  0.62900  1.0000 0.120890627
H   H99       1.0  0.10010  0.15540  0.12900  1.0000 0.120890627
H   H100      1.0  0.89990  0.65540  0.37100  1.0000 0.120890627
C   C1        1.0  0.79303  0.80586  0.06923  1.0000 0.0168492364
C   C2        1.0  0.20697  0.30586  0.43077  1.0000 0.0168492364
C   C3        1.0  0.20697  0.19414  0.93077  1.0000 0.0168492364
C   C4        1.0  0.79303  0.69414  0.56923  1.0000 0.0168492364
C   C5        1.0  0.83379  0.69153  0.15543  1.0000 0.0088414878
C   C6        1.0  0.16621  0.19153  0.34457  1.0000 0.0088414878
C   C7        1.0  0.16621  0.30847  0.84457  1.0000 0.0088414878
C   C8        1.0  0.83379  0.80847  0.65543  1.0000 0.0088414878
C   C9        1.0  0.69889  0.67332  0.09457  1.0000 0.0403948073
C   C10       1.0  0.30111  0.17332  0.40543  1.0000 0.0403948073
C   C11       1.0  0.30111  0.32668  0.90543  1.0000 0.0403948073
C   C12       1.0  0.69889  0.82668  0.59457  1.0000 0.0403948073
C   C13       1.0  0.61108  0.72393  0.01448  1.0000 -0.1407608895
C   C14       1.0  0.38892  0.22393  0.48552  1.0000 -0.1407608895
C   C15       1.0  0.38892  0.27607  0.98552  1.0000 -0.1407608895
C   C16       1.0  0.61108  0.77607  0.51448  1.0000 -0.1407608895
C   C17       1.0  0.65590  0.79170  0.99992  1.0000 0.0403948073
C   C18       1.0  0.34410  0.29170  0.50008  1.0000 0.0403948073
C   C19       1.0  0.34410  0.20830  0.00008  1.0000 0.0403948073
C   C20       1.0  0.65590  0.70830  0.49992  1.0000 0.0403948073
C   C21       1.0  0.56537  0.84632  0.91427  1.0000 0.0680208689
C   C22       1.0  0.43463  0.34632  0.58573  1.0000 0.0680208689
C   C23       1.0  0.43463  0.15368  0.08573  1.0000 0.0680208689
C   C24       1.0  0.56537  0.65368  0.41427  1.0000 0.0680208689
C   C25       1.0  0.61650  0.89492  0.88390  1.0000 -0.1609057823
C   C26       1.0  0.38350  0.39492  0.61610  1.0000 -0.1609057823
C   C27       1.0  0.38350  0.10508  0.11610  1.0000 -0.1609057823
C   C28       1.0  0.61650  0.60508  0.38390  1.0000 -0.1609057823
C   C29       1.0  0.42839  0.84925  0.85999  1.0000 -0.1521131696
C   C30       1.0  0.57161  0.34925  0.64001  1.0000 -0.1521131696
C   C31       1.0  0.57161  0.15075  0.14001  1.0000 -0.1521131696
C   C32       1.0  0.42839  0.65075  0.35999  1.0000 -0.1521131696
C   C33       1.0  0.34506  0.89939  0.77836  1.0000 -0.0167716743
C   C34       1.0  0.65494  0.39939  0.72164  1.0000 -0.0167716743
C   C35       1.0  0.65494  0.10061  0.22164  1.0000 -0.0167716743
C   C36       1.0  0.34506  0.60061  0.27836  1.0000 -0.0167716743
C   C37       1.0  0.40030  0.94777  0.75190  1.0000 -0.1178677482
C   C38       1.0  0.59970  0.44777  0.74810  1.0000 -0.1178677482
C   C39       1.0  0.59970  0.05223  0.24810  1.0000 -0.1178677482
C   C40       1.0  0.40030  0.55223  0.25190  1.0000 -0.1178677482
C   C41       1.0  0.53510  0.94480  0.80420  1.0000 -0.0904907465
C   C42       1.0  0.46490  0.44480  0.69580  1.0000 -0.0904907465
C   C43       1.0  0.46490  0.05520  0.19580  1.0000 -0.0904907465
C   C44       1.0  0.53510  0.55520  0.30420  1.0000 -0.0904907465
C   C45       1.0  0.19710  0.90280  0.71980  1.0000 0.5598395129
C   C46       1.0  0.80290  0.40280  0.78020  1.0000 0.5598395129
C   C47       1.0  0.80290  0.09720  0.28020  1.0000 0.5598395129
C   C48       1.0  0.19710  0.59720  0.21980  1.0000 0.5598395129
C   C49       1.0  0.65162  0.60182  0.11258  1.0000 0.0680208689
C   C50       1.0  0.34838  0.10182  0.38742  1.0000 0.0680208689
C   C51       1.0  0.34838  0.39818  0.88742  1.0000 0.0680208689
C   C52       1.0  0.65162  0.89818  0.61258  1.0000 0.0680208689
C   C53       1.0  0.73249  0.53473  0.16229  1.0000 -0.172626662
C   C54       1.0  0.26751  0.03473  0.33771  1.0000 -0.172626662
C   C55       1.0  0.26751  0.46527  0.83771  1.0000 -0.172626662
C   C56       1.0  0.73249  0.96527  0.66229  1.0000 -0.172626662
C   C57       1.0  0.68530  0.46663  0.17469  1.0000 -0.0167716743
C   C58       1.0  0.31470  0.96663  0.32531  1.0000 -0.0167716743
C   C59       1.0  0.31470  0.53337  0.82531  1.0000 -0.0167716743
C   C60       1.0  0.68530  0.03337  0.67469  1.0000 -0.0167716743
C   C61       1.0  0.55530  0.46525  0.13640  1.0000 -0.1178677482
C   C62       1.0  0.44470  0.96525  0.36360  1.0000 -0.1178677482
C   C63       1.0  0.44470  0.53475  0.86360  1.0000 -0.1178677482
C   C64       1.0  0.55530  0.03475  0.63640  1.0000 -0.1178677482
C   C65       1.0  0.47410  0.53163  0.08810  1.0000 -0.0904907465
C   C66       1.0  0.52590  0.03163  0.41190  1.0000 -0.0904907465
C   C67       1.0  0.52590  0.46837  0.91190  1.0000 -0.0904907465
C   C68       1.0  0.47410  0.96837  0.58810  1.0000 -0.0904907465
C   C69       1.0  0.52240  0.59964  0.07740  1.0000 -0.1407608895
C   C70       1.0  0.47760  0.09964  0.42260  1.0000 -0.1407608895
C   C71       1.0  0.47760  0.40036  0.92260  1.0000 -0.1407608895
C   C72       1.0  0.52240  0.90036  0.57740  1.0000 -0.1407608895
C   C73       1.0  0.77085  0.39337  0.22275  1.0000 0.5254419109
C   C74       1.0  0.22915  0.89337  0.27725  1.0000 0.5254419109
C   C75       1.0  0.22915  0.60663  0.77725  1.0000 0.5254419109
C   C76       1.0  0.77085  0.10663  0.72275  1.0000 0.5254419109
C   C77       1.0  0.18610  0.69510  0.41070  1.0000 0.0767187511
C   C78       1.0  0.81390  0.19510  0.08930  1.0000 0.0767187511
C   C79       1.0  0.81390  0.30490  0.58930  1.0000 0.0767187511
C   C80       1.0  0.18610  0.80490  0.91070  1.0000 0.0767187511
C   C81       1.0  0.23120  0.79290  0.50840  1.0000 -0.1069092566
C   C82       1.0  0.76880  0.29290  0.99160  1.0000 -0.1069092566
C   C83       1.0  0.76880  0.20710  0.49160  1.0000 -0.1069092566
C   C84       1.0  0.23120  0.70710  0.00840  1.0000 -0.1069092566
C   C85       1.0  0.17900  0.82287  0.42060  1.0000 -0.0391292984
C   C86       1.0  0.82100  0.32287  0.07940  1.0000 -0.0391292984
C   C87       1.0  0.82100  0.17713  0.57940  1.0000 -0.0391292984
C   C88       1.0  0.17900  0.67713  0.92060  1.0000 -0.0391292984
C   C89       1.0  0.29560  0.65250  0.58160  1.0000 -0.172626662
C   C90       1.0  0.70440  0.15250  0.91840  1.0000 -0.172626662
C   C91       1.0  0.70440  0.34750  0.41840  1.0000 -0.172626662
C   C92       1.0  0.29560  0.84750  0.08160  1.0000 -0.172626662
C   C93       1.0  0.44580  0.65770  0.65170  1.0000 0.086782336
C   C94       1.0  0.55420  0.15770  0.84830  1.0000 0.086782336
C   C95       1.0  0.55420  0.34230  0.34830  1.0000 0.086782336
C   C96       1.0  0.44580  0.84230  0.15170  1.0000 0.086782336
C   C97       1.0  0.51360  0.63140  0.62340  1.0000 -0.1521131696
C   C98       1.0  0.48640  0.13140  0.87660  1.0000 -0.1521131696
C   C99       1.0  0.48640  0.36860  0.37660  1.0000 -0.1521131696
C   C100      1.0  0.51360  0.86860  0.12340  1.0000 -0.1521131696
C   C101      1.0  0.64980  0.63820  0.68590  1.0000 -0.1407608895
C   C102      1.0  0.35020  0.13820  0.81410  1.0000 -0.1407608895
C   C103      1.0  0.35020  0.36180  0.31410  1.0000 -0.1407608895
C   C104      1.0  0.64980  0.86180  0.18590  1.0000 -0.1407608895
C   C105      1.0  0.72150  0.67108  0.77820  1.0000 0.0994253789
C   C106      1.0  0.27850  0.17108  0.72180  1.0000 0.0994253789
C   C107      1.0  0.27850  0.32892  0.22180  1.0000 0.0994253789
C   C108      1.0  0.72150  0.82892  0.27820  1.0000 0.0994253789
C   C109      1.0  0.65340  0.69580  0.80630  1.0000 -0.1521131696
C   C110      1.0  0.34660  0.19580  0.69370  1.0000 -0.1521131696
C   C111      1.0  0.34660  0.30420  0.19370  1.0000 -0.1521131696
C   C112      1.0  0.65340  0.80420  0.30630  1.0000 -0.1521131696
C   C113      1.0  0.51650  0.68960  0.74330  1.0000 -0.1407608895
C   C114      1.0  0.48350  0.18960  0.75670  1.0000 -0.1407608895
C   C115      1.0  0.48350  0.31040  0.25670  1.0000 -0.1407608895
C   C116      1.0  0.51650  0.81040  0.24330  1.0000 -0.1407608895
C   C117      1.0  0.87110  0.67490  0.84570  1.0000 -0.172626662
C   C118      1.0  0.12890  0.17490  0.65430  1.0000 -0.172626662
C   C119      1.0  0.12890  0.32510  0.15430  1.0000 -0.172626662
C   C120      1.0  0.87110  0.82510  0.34570  1.0000 -0.172626662
C   C121      1.0  0.98740  0.70976  0.01880  1.0000 0.0994253789
C   C122      1.0  0.01260  0.20976  0.48120  1.0000 0.0994253789
C   C123      1.0  0.01260  0.29024  0.98120  1.0000 0.0994253789
C   C124      1.0  0.98740  0.79024  0.51880  1.0000 0.0994253789
C   C125      1.0  0.99270  0.83766  0.01640  1.0000 -0.0480857615
C   C126      1.0  0.00730  0.33766  0.48360  1.0000 -0.0480857615
C   C127      1.0  0.00730  0.16234  0.98360  1.0000 -0.0480857615
C   C128      1.0  0.99270  0.66234  0.51640  1.0000 -0.0480857615
C   C129      1.0  0.93300  0.81260  0.92490  1.0000 -0.1178677482
C   C130      1.0  0.06700  0.31260  0.57510  1.0000 -0.1178677482
C   C131      1.0  0.06700  0.18740  0.07510  1.0000 -0.1178677482
C   C132      1.0  0.93300  0.68740  0.42490  1.0000 -0.1178677482
N   N1        1.0  0.88090  0.75580  0.14312  1.0000 -0.2280387173
N   N2        1.0  0.11910  0.25580  0.35688  1.0000 -0.2280387173
N   N3        1.0  0.11910  0.24420  0.85688  1.0000 -0.2280387173
N   N4        1.0  0.88090  0.74420  0.64312  1.0000 -0.2280387173
N   N5        1.0  0.15140  0.76134  0.35920  1.0000 -0.2997481564
N   N6        1.0  0.84860  0.26134  0.14080  1.0000 -0.2997481564
N   N7        1.0  0.84860  0.23866  0.64080  1.0000 -0.2997481564
N   N8        1.0  0.15140  0.73866  0.85920  1.0000 -0.2997481564
N   N9        1.0  0.23469  0.71147  0.50183  1.0000 0.0403948073
N   N10       1.0  0.76531  0.21147  0.99817  1.0000 0.0403948073
N   N11       1.0  0.76531  0.28853  0.49817  1.0000 0.0403948073
N   N12       1.0  0.23469  0.78853  0.00183  1.0000 0.0403948073
N   N13       1.0  0.93099  0.73084  0.92752  1.0000 0.0403948073
N   N14       1.0  0.06901  0.23084  0.57248  1.0000 0.0403948073
N   N15       1.0  0.06901  0.26916  0.07248  1.0000 0.0403948073
N   N16       1.0  0.93099  0.76916  0.42752  1.0000 0.0403948073
N   N17       1.0  0.02709  0.77298  0.07582  1.0000 -0.3093204537
N   N18       1.0  0.97291  0.27298  0.42418  1.0000 -0.3093204537
N   N19       1.0  0.97291  0.22702  0.92418  1.0000 -0.3093204537
N   N20       1.0  0.02709  0.72702  0.57582  1.0000 -0.3093204537
O   O1        1.0  0.89450  0.39750  0.26838  1.0000 -0.5487742165
O   O2        1.0  0.10550  0.89750  0.23162  1.0000 -0.5487742165
O   O3        1.0  0.10550  0.60250  0.73162  1.0000 -0.5487742165
O   O4        1.0  0.89450  0.10250  0.76838  1.0000 -0.5487742165
O   O5        1.0  0.71958  0.32746  0.21522  1.0000 -0.5343823174
O   O6        1.0  0.28042  0.82746  0.28478  1.0000 -0.5343823174
O   O7        1.0  0.28042  0.67254  0.78478  1.0000 -0.5343823174
O   O8        1.0  0.71958  0.17254  0.71522  1.0000 -0.5343823174
O   O9        1.0  0.13305  0.95843  0.65915  1.0000 -0.5596941451
O   O10       1.0  0.86695  0.45843  0.84085  1.0000 -0.5596941451
O   O11       1.0  0.86695  0.04157  0.34085  1.0000 -0.5596941451
O   O12       1.0  0.13305  0.54157  0.15915  1.0000 -0.5596941451
O   O13       1.0  0.14455  0.85015  0.73485  1.0000 -0.5762553105
O   O14       1.0  0.85545  0.35015  0.76515  1.0000 -0.5762553105
O   O15       1.0  0.85545  0.14985  0.26515  1.0000 -0.5762553105
O   O16       1.0  0.14455  0.64985  0.23485  1.0000 -0.5762553105
