# DDEC6 charges by PACMAN v1.1 (https://github.com/mtap-research/PACMAN-charge/)
data_2013[Zn][uni]3[FSR]7
_chemical_formula_sum              "Zn6 H66 C54 Br6 N12 O12"
_cell_length_a       17.744
_cell_length_b       17.744
_cell_length_c       10.1715
_cell_angle_alpha    90
_cell_angle_beta     90
_cell_angle_gamma    120

_symmetry_space_group_name_H-M    "P 1"
_symmetry_Int_Tables_number       1

loop_
  _symmetry_equiv_pos_as_xyz
  'x, y, z'

loop_
  _atom_site_type_symbol
  _atom_site_label
  _atom_site_symmetry_multiplicity
  _atom_site_fract_x
  _atom_site_fract_y
  _atom_site_fract_z
  _atom_site_occupancy
  _atom_site_charge
Zn  Zn1       1.0  0.46837  0.92447  0.13189  1.0000 0.6758190328
Zn  Zn2       1.0  0.54390  0.46837  0.29856  1.0000 0.6758190328
Zn  Zn3       1.0  0.07553  0.54390  0.46522  1.0000 0.6758190328
Zn  Zn4       1.0  0.53163  0.07553  0.63189  1.0000 0.6758190328
Zn  Zn5       1.0  0.45610  0.53163  0.79856  1.0000 0.6758190328
Zn  Zn6       1.0  0.92447  0.45610  0.96522  1.0000 0.6758190328
H   H1        1.0  0.55050  0.07280  0.03060  1.0000 0.2471029296
H   H2        1.0  0.47770  0.55050  0.19727  1.0000 0.2471029296
H   H3        1.0  0.92720  0.47770  0.36393  1.0000 0.2471029296
H   H4        1.0  0.44950  0.92720  0.53060  1.0000 0.2471029296
H   H5        1.0  0.52230  0.44950  0.69727  1.0000 0.2471029296
H   H6        1.0  0.07280  0.52230  0.86393  1.0000 0.2471029296
H   H7        1.0  0.64930  0.02830  0.05590  1.0000 0.1399201587
H   H8        1.0  0.62100  0.64930  0.22257  1.0000 0.1399201587
H   H9        1.0  0.97170  0.62100  0.38923  1.0000 0.1399201587
H   H10       1.0  0.35070  0.97170  0.55590  1.0000 0.1399201587
H   H11       1.0  0.37900  0.35070  0.72257  1.0000 0.1399201587
H   H12       1.0  0.02830  0.37900  0.88923  1.0000 0.1399201587
H   H13       1.0  0.65630  0.05460  0.20440  1.0000 0.118278762
H   H14       1.0  0.60170  0.65630  0.37107  1.0000 0.118278762
H   H15       1.0  0.94540  0.60170  0.53773  1.0000 0.118278762
H   H16       1.0  0.34370  0.94540  0.70440  1.0000 0.118278762
H   H17       1.0  0.39830  0.34370  0.87107  1.0000 0.118278762
H   H18       1.0  0.05460  0.39830  0.03773  1.0000 0.118278762
H   H19       1.0  0.59560  0.16000  0.22860  1.0000 0.1009197571
H   H20       1.0  0.43560  0.59560  0.39527  1.0000 0.1009197571
H   H21       1.0  0.84000  0.43560  0.56193  1.0000 0.1009197571
H   H22       1.0  0.40440  0.84000  0.72860  1.0000 0.1009197571
H   H23       1.0  0.56440  0.40440  0.89527  1.0000 0.1009197571
H   H24       1.0  0.16000  0.56440  0.06193  1.0000 0.1009197571
H   H25       1.0  0.88950  0.32930  0.18630  1.0000 0.118278762
H   H26       1.0  0.56020  0.88950  0.35297  1.0000 0.118278762
H   H27       1.0  0.67070  0.56020  0.51963  1.0000 0.118278762
H   H28       1.0  0.11050  0.67070  0.68630  1.0000 0.118278762
H   H29       1.0  0.43980  0.11050  0.85297  1.0000 0.118278762
H   H30       1.0  0.32930  0.43980  0.01963  1.0000 0.118278762
H   H31       1.0  0.66680  0.16260  0.90800  1.0000 0.1479914554
H   H32       1.0  0.50420  0.66680  0.07467  1.0000 0.1479914554
H   H33       1.0  0.83740  0.50420  0.24133  1.0000 0.1479914554
H   H34       1.0  0.33320  0.83740  0.40800  1.0000 0.1479914554
H   H35       1.0  0.49580  0.33320  0.57467  1.0000 0.1479914554
H   H36       1.0  0.16260  0.49580  0.74133  1.0000 0.1479914554
H   H37       1.0  0.78970  0.18870  0.24700  1.0000 0.1479914554
H   H38       1.0  0.60100  0.78970  0.41367  1.0000 0.1479914554
H   H39       1.0  0.81130  0.60100  0.58033  1.0000 0.1479914554
H   H40       1.0  0.21030  0.81130  0.74700  1.0000 0.1479914554
H   H41       1.0  0.39900  0.21030  0.91367  1.0000 0.1479914554
H   H42       1.0  0.18870  0.39900  0.08033  1.0000 0.1479914554
H   H43       1.0  0.76990  0.30480  0.85580  1.0000 0.118278762
H   H44       1.0  0.46510  0.76990  0.02247  1.0000 0.118278762
H   H45       1.0  0.69520  0.46510  0.18913  1.0000 0.118278762
H   H46       1.0  0.23010  0.69520  0.35580  1.0000 0.118278762
H   H47       1.0  0.53490  0.23010  0.52247  1.0000 0.118278762
H   H48       1.0  0.30480  0.53490  0.68913  1.0000 0.118278762
H   H49       1.0  0.49440  0.16100  0.07810  1.0000 0.118278762
H   H50       1.0  0.33340  0.49440  0.24477  1.0000 0.118278762
H   H51       1.0  0.83900  0.33340  0.41143  1.0000 0.118278762
H   H52       1.0  0.50560  0.83900  0.57810  1.0000 0.118278762
H   H53       1.0  0.66667  0.50560  0.74477  1.0000 0.118278762
H   H54       1.0  0.16100  0.66667  0.91143  1.0000 0.118278762
H   H55       1.0  0.46470  0.16260  0.22270  1.0000 0.1479914554
H   H56       1.0  0.30210  0.46470  0.38937  1.0000 0.1479914554
H   H57       1.0  0.83740  0.30210  0.55603  1.0000 0.1479914554
H   H58       1.0  0.53530  0.83740  0.72270  1.0000 0.1479914554
H   H59       1.0  0.69790  0.53530  0.88937  1.0000 0.1479914554
H   H60       1.0  0.16260  0.69790  0.05603  1.0000 0.1479914554
H   H61       1.0  0.41990  0.07570  0.14200  1.0000 0.1334165866
H   H62       1.0  0.34420  0.41990  0.30867  1.0000 0.1334165866
H   H63       1.0  0.92430  0.34420  0.47533  1.0000 0.1334165866
H   H64       1.0  0.58010  0.92430  0.64200  1.0000 0.1334165866
H   H65       1.0  0.65580  0.58010  0.80867  1.0000 0.1334165866
H   H66       1.0  0.07570  0.65580  0.97533  1.0000 0.1334165866
C   C1        1.0  0.71500  0.16000  0.08260  1.0000 0.1399201587
C   C2        1.0  0.55500  0.71500  0.24927  1.0000 0.1399201587
C   C3        1.0  0.84000  0.55500  0.41593  1.0000 0.1399201587
C   C4        1.0  0.28500  0.84000  0.58260  1.0000 0.1399201587
C   C5        1.0  0.44500  0.28500  0.74927  1.0000 0.1399201587
C   C6        1.0  0.16000  0.44500  0.91593  1.0000 0.1399201587
C   C7        1.0  0.50770  0.05230  0.33590  1.0000 0.5737792189
C   C8        1.0  0.45540  0.50770  0.50257  1.0000 0.5737792189
C   C9        1.0  0.94770  0.45540  0.66923  1.0000 0.5737792189
C   C10       1.0  0.49230  0.94770  0.83590  1.0000 0.5737792189
C   C11       1.0  0.54460  0.49230  0.00257  1.0000 0.5737792189
C   C12       1.0  0.05230  0.54460  0.16923  1.0000 0.5737792189
C   C13       1.0  0.64550  0.06850  0.11660  1.0000 -0.1508110529
C   C14       1.0  0.57700  0.64550  0.28327  1.0000 -0.1508110529
C   C15       1.0  0.93150  0.57700  0.44993  1.0000 -0.1508110529
C   C16       1.0  0.35450  0.93150  0.61660  1.0000 -0.1508110529
C   C17       1.0  0.42300  0.35450  0.78327  1.0000 -0.1508110529
C   C18       1.0  0.06850  0.42300  0.94993  1.0000 -0.1508110529
C   C19       1.0  0.54130  0.10610  0.20960  1.0000 0.0129528735
C   C20       1.0  0.43520  0.54130  0.37627  1.0000 0.0129528735
C   C21       1.0  0.89390  0.43520  0.54293  1.0000 0.0129528735
C   C22       1.0  0.45870  0.89390  0.70960  1.0000 0.0129528735
C   C23       1.0  0.56480  0.45870  0.87627  1.0000 0.0129528735
C   C24       1.0  0.10610  0.56480  0.04293  1.0000 0.0129528735
C   C25       1.0  0.84360  0.29550  0.12990  1.0000 0.0720888187
C   C26       1.0  0.54810  0.84360  0.29657  1.0000 0.0720888187
C   C27       1.0  0.70450  0.54810  0.46323  1.0000 0.0720888187
C   C28       1.0  0.15640  0.70450  0.62990  1.0000 0.0720888187
C   C29       1.0  0.45190  0.15640  0.79657  1.0000 0.0720888187
C   C30       1.0  0.29550  0.45190  0.96323  1.0000 0.0720888187
C   C31       1.0  0.71120  0.19550  0.96720  1.0000 -0.1793288703
C   C32       1.0  0.51570  0.71120  0.13387  1.0000 -0.1793288703
C   C33       1.0  0.80450  0.51570  0.30053  1.0000 -0.1793288703
C   C34       1.0  0.28880  0.80450  0.46720  1.0000 -0.1793288703
C   C35       1.0  0.48430  0.28880  0.63387  1.0000 -0.1793288703
C   C36       1.0  0.19550  0.48430  0.80053  1.0000 -0.1793288703
C   C37       1.0  0.78390  0.21090  0.16720  1.0000 -0.2012344763
C   C38       1.0  0.57300  0.78390  0.33387  1.0000 -0.2012344763
C   C39       1.0  0.78910  0.57300  0.50053  1.0000 -0.2012344763
C   C40       1.0  0.21610  0.78910  0.66720  1.0000 -0.2012344763
C   C41       1.0  0.42700  0.21610  0.83387  1.0000 -0.2012344763
C   C42       1.0  0.21090  0.42700  0.00053  1.0000 -0.2012344763
C   C43       1.0  0.77360  0.28130  0.93570  1.0000 0.1009197571
C   C44       1.0  0.49230  0.77360  0.10237  1.0000 0.0948834255
C   C45       1.0  0.71870  0.49230  0.26903  1.0000 0.0948834255
C   C46       1.0  0.22640  0.71870  0.43570  1.0000 0.0948834255
C   C47       1.0  0.50770  0.22640  0.60237  1.0000 0.0948834255
C   C48       1.0  0.28130  0.50770  0.76903  1.0000 0.0948834255
C   C49       1.0  0.47380  0.12840  0.15830  1.0000 -0.4100094205
C   C50       1.0  0.34540  0.47380  0.32497  1.0000 -0.4100094205
C   C51       1.0  0.87160  0.34540  0.49163  1.0000 -0.4100094205
C   C52       1.0  0.52620  0.87160  0.65830  1.0000 -0.4100094205
C   C53       1.0  0.65460  0.52620  0.82497  1.0000 -0.4100094205
C   C54       1.0  0.12840  0.65460  0.99163  1.0000 -0.4100094205
Br  Br1       1.0  0.31859  0.87000  0.10153  1.0000 -0.5383186207
Br  Br2       1.0  0.44859  0.31859  0.26820  1.0000 -0.5383186207
Br  Br3       1.0  0.13000  0.44859  0.43486  1.0000 -0.5383186207
Br  Br4       1.0  0.68141  0.13000  0.60153  1.0000 -0.5383186207
Br  Br5       1.0  0.55141  0.68141  0.76820  1.0000 -0.5383186207
Br  Br6       1.0  0.87000  0.55141  0.93486  1.0000 -0.5383186207
N   N1        1.0  0.55810  0.05580  0.11160  1.0000 -0.3269550319
N   N2        1.0  0.50230  0.55810  0.27827  1.0000 -0.3269550319
N   N3        1.0  0.94420  0.50230  0.44493  1.0000 -0.3269550319
N   N4        1.0  0.44190  0.94420  0.61160  1.0000 -0.3269550319
N   N5        1.0  0.49770  0.44190  0.77827  1.0000 -0.3269550319
N   N6        1.0  0.05580  0.49770  0.94493  1.0000 -0.3269550319
N   N7        1.0  0.83800  0.32990  0.01800  1.0000 -0.2133889362
N   N8        1.0  0.50810  0.83800  0.18467  1.0000 -0.2133889362
N   N9        1.0  0.67010  0.50810  0.35133  1.0000 -0.2133889362
N   N10       1.0  0.16200  0.67010  0.51800  1.0000 -0.2133889362
N   N11       1.0  0.49190  0.16200  0.68467  1.0000 -0.2133889362
N   N12       1.0  0.32990  0.49190  0.85133  1.0000 -0.2133889362
O   O1        1.0  0.48310  0.97267  0.33180  1.0000 -0.5505334005
O   O2        1.0  0.51043  0.48310  0.49847  1.0000 -0.5505334005
O   O3        1.0  0.02733  0.51043  0.66513  1.0000 -0.5505334005
O   O4        1.0  0.51690  0.02733  0.83180  1.0000 -0.5505334005
O   O5        1.0  0.48957  0.51690  0.99847  1.0000 -0.5505334005
O   O6        1.0  0.97267  0.48957  0.16513  1.0000 -0.5505334005
O   O7        1.0  0.50550  0.09330  0.43570  1.0000 -0.5383186207
O   O8        1.0  0.41220  0.50550  0.60237  1.0000 -0.5383186207
O   O9        1.0  0.90670  0.41220  0.76903  1.0000 -0.5383186207
O   O10       1.0  0.49450  0.90670  0.93570  1.0000 -0.5383186207
O   O11       1.0  0.58780  0.49450  0.10237  1.0000 -0.5383186207
O   O12       1.0  0.09330  0.58780  0.26903  1.0000 -0.5383186207
