# DDEC6 charges by PACMAN v1.1 (https://github.com/mtap-research/PACMAN-charge/)
data_2013[Zn][uni]3[FSR]10
_chemical_formula_sum              "Zn6 H90 C72 N12 O24"
_cell_length_a       17.7336
_cell_length_b       17.7336
_cell_length_c       10.3433
_cell_angle_alpha    90
_cell_angle_beta     90
_cell_angle_gamma    120

_symmetry_space_group_name_H-M    "P 1"
_symmetry_Int_Tables_number       1

loop_
  _symmetry_equiv_pos_as_xyz
  'x, y, z'

loop_
  _atom_site_type_symbol
  _atom_site_label
  _atom_site_symmetry_multiplicity
  _atom_site_fract_x
  _atom_site_fract_y
  _atom_site_fract_z
  _atom_site_occupancy
  _atom_site_charge
Zn  Zn1       1.0  0.54447  0.47321  0.15580  1.0000 0.7918507459
Zn  Zn2       1.0  0.07126  0.54447  0.32247  1.0000 0.7918507459
Zn  Zn3       1.0  0.52679  0.07126  0.48913  1.0000 0.7918507459
Zn  Zn4       1.0  0.45553  0.52679  0.65580  1.0000 0.7918507459
Zn  Zn5       1.0  0.92874  0.45553  0.82247  1.0000 0.7918507459
Zn  Zn6       1.0  0.47321  0.92874  0.98913  1.0000 0.7918507459
H   H1        1.0  0.42860  0.10520  0.69650  1.0000 0.1292647767
H   H2        1.0  0.32340  0.42860  0.86317  1.0000 0.1292647767
H   H3        1.0  0.89480  0.32340  0.02983  1.0000 0.1292647767
H   H4        1.0  0.57140  0.89480  0.19650  1.0000 0.1292647767
H   H5        1.0  0.67660  0.57140  0.36317  1.0000 0.1292647767
H   H6        1.0  0.10520  0.67660  0.52983  1.0000 0.1292647767
H   H7        1.0  0.52400  0.22060  0.36820  1.0000 0.1165427151
H   H8        1.0  0.30340  0.52400  0.53487  1.0000 0.1165427151
H   H9        1.0  0.77940  0.30340  0.70153  1.0000 0.1165427151
H   H10       1.0  0.47600  0.77940  0.86820  1.0000 0.1165427151
H   H11       1.0  0.69660  0.47600  0.03487  1.0000 0.1165427151
H   H12       1.0  0.22060  0.69660  0.20153  1.0000 0.1165427151
H   H13       1.0  0.38200  0.20130  0.74840  1.0000 0.150379427
H   H14       1.0  0.18070  0.38200  0.91507  1.0000 0.150379427
H   H15       1.0  0.79870  0.18070  0.08173  1.0000 0.150379427
H   H16       1.0  0.61800  0.79870  0.24840  1.0000 0.150379427
H   H17       1.0  0.81930  0.61800  0.41507  1.0000 0.150379427
H   H18       1.0  0.20130  0.81930  0.58173  1.0000 0.150379427
H   H19       1.0  0.52670  0.37250  0.76570  1.0000 0.1092465968
H   H20       1.0  0.15420  0.52670  0.93237  1.0000 0.1092465968
H   H21       1.0  0.62750  0.15420  0.09903  1.0000 0.1092465968
H   H22       1.0  0.47330  0.62750  0.26570  1.0000 0.1092465968
H   H23       1.0  0.84580  0.47330  0.43237  1.0000 0.1092465968
H   H24       1.0  0.37250  0.84580  0.59903  1.0000 0.1092465968
H   H25       1.0  0.67370  0.47980  0.78920  1.0000 0.0709197274
H   H26       1.0  0.19390  0.67370  0.95587  1.0000 0.0709197274
H   H27       1.0  0.52020  0.19390  0.12253  1.0000 0.0709197274
H   H28       1.0  0.32630  0.52020  0.28920  1.0000 0.0709197274
H   H29       1.0  0.80610  0.32630  0.45587  1.0000 0.0709197274
H   H30       1.0  0.47980  0.80610  0.62253  1.0000 0.0709197274
H   H31       1.0  0.37260  0.35250  0.55380  1.0000 0.1292647767
H   H32       1.0  0.02010  0.37260  0.72047  1.0000 0.1292647767
H   H33       1.0  0.64750  0.02010  0.88713  1.0000 0.1292647767
H   H34       1.0  0.62740  0.64750  0.05380  1.0000 0.1292647767
H   H35       1.0  0.97990  0.62740  0.22047  1.0000 0.1292647767
H   H36       1.0  0.35250  0.97990  0.38713  1.0000 0.1292647767
H   H37       1.0  0.37640  0.33350  0.70120  1.0000 0.1165427151
H   H38       1.0  0.04290  0.37640  0.86787  1.0000 0.1165427151
H   H39       1.0  0.66650  0.04290  0.03453  1.0000 0.1165427151
H   H40       1.0  0.62360  0.66650  0.20120  1.0000 0.1165427151
H   H41       1.0  0.95710  0.62360  0.36787  1.0000 0.1165427151
H   H42       1.0  0.33350  0.95710  0.53453  1.0000 0.1165427151
H   H43       1.0  0.47880  0.31990  0.40660  1.0000 0.150379427
H   H44       1.0  0.15890  0.47880  0.57327  1.0000 0.150379427
H   H45       1.0  0.68010  0.15890  0.73993  1.0000 0.150379427
H   H46       1.0  0.52120  0.68010  0.90660  1.0000 0.150379427
H   H47       1.0  0.84110  0.52120  0.07327  1.0000 0.150379427
H   H48       1.0  0.31990  0.84110  0.23993  1.0000 0.150379427
H   H49       1.0  0.64010  0.57130  0.59920  1.0000 0.1292647767
H   H50       1.0  0.06880  0.64010  0.76587  1.0000 0.1292647767
H   H51       1.0  0.42870  0.06880  0.93253  1.0000 0.1292647767
H   H52       1.0  0.35990  0.42870  0.09920  1.0000 0.1292647767
H   H53       1.0  0.93120  0.35990  0.26587  1.0000 0.1292647767
H   H54       1.0  0.57130  0.93120  0.43253  1.0000 0.1292647767
H   H55       1.0  0.73510  0.59200  0.63050  1.0000 0.1165427151
H   H56       1.0  0.14310  0.73510  0.79717  1.0000 0.1165427151
H   H57       1.0  0.40800  0.14310  0.96383  1.0000 0.1165427151
H   H58       1.0  0.26490  0.40800  0.13050  1.0000 0.1165427151
H   H59       1.0  0.85690  0.26490  0.29717  1.0000 0.1165427151
H   H60       1.0  0.59200  0.85690  0.46383  1.0000 0.1165427151
H   H61       1.0  0.67970  0.60510  0.73680  1.0000 0.1292647767
H   H62       1.0  0.07460  0.67970  0.90347  1.0000 0.1292647767
H   H63       1.0  0.39490  0.07460  0.07013  1.0000 0.1292647767
H   H64       1.0  0.32030  0.39490  0.23680  1.0000 0.1292647767
H   H65       1.0  0.92540  0.32030  0.40347  1.0000 0.1292647767
H   H66       1.0  0.60510  0.92540  0.57013  1.0000 0.1292647767
H   H67       1.0  0.64910  0.37060  0.64730  1.0000 0.1292647767
H   H68       1.0  0.27850  0.64910  0.81397  1.0000 0.1292647767
H   H69       1.0  0.62940  0.27850  0.98063  1.0000 0.1292647767
H   H70       1.0  0.35090  0.62940  0.14730  1.0000 0.1292647767
H   H71       1.0  0.72150  0.35090  0.31397  1.0000 0.1292647767
H   H72       1.0  0.37060  0.72150  0.48063  1.0000 0.1292647767
H   H73       1.0  0.72400  0.45800  0.59000  1.0000 0.1292647767
H   H74       1.0  0.26600  0.72400  0.75667  1.0000 0.1292647767
H   H75       1.0  0.54200  0.26600  0.92333  1.0000 0.1292647767
H   H76       1.0  0.27600  0.54200  0.09000  1.0000 0.1292647767
H   H77       1.0  0.73400  0.27600  0.25667  1.0000 0.1292647767
H   H78       1.0  0.45800  0.73400  0.42333  1.0000 0.1292647767
H   H79       1.0  0.62930  0.41720  0.53440  1.0000 0.1292647767
H   H80       1.0  0.21210  0.62930  0.70107  1.0000 0.1292647767
H   H81       1.0  0.58280  0.21210  0.86773  1.0000 0.1292647767
H   H82       1.0  0.37070  0.58280  0.03440  1.0000 0.1292647767
H   H83       1.0  0.78790  0.37070  0.20107  1.0000 0.1292647767
H   H84       1.0  0.41720  0.78790  0.36773  1.0000 0.1292647767
H   H85       1.0  0.38210  0.23730  0.13050  1.0000 0.0896156481
H   H86       1.0  0.14480  0.38210  0.29717  1.0000 0.0896156481
H   H87       1.0  0.76270  0.14480  0.46383  1.0000 0.0896156481
H   H88       1.0  0.61790  0.76270  0.63050  1.0000 0.0896156481
H   H89       1.0  0.85520  0.61790  0.79717  1.0000 0.0896156481
H   H90       1.0  0.23730  0.85520  0.96383  1.0000 0.0896156481
C   C1        1.0  0.53270  0.47740  0.86110  1.0000 0.5838766398
C   C2        1.0  0.05530  0.53270  0.02777  1.0000 0.5838766398
C   C3        1.0  0.52260  0.05530  0.19443  1.0000 0.5838766398
C   C4        1.0  0.46730  0.52260  0.36110  1.0000 0.5838766398
C   C5        1.0  0.94470  0.46730  0.52777  1.0000 0.5838766398
C   C6        1.0  0.47740  0.94470  0.69443  1.0000 0.5838766398
C   C7        1.0  0.43830  0.14880  0.63770  1.0000 0.1025301294
C   C8        1.0  0.28950  0.43830  0.80437  1.0000 0.1025301294
C   C9        1.0  0.85120  0.28950  0.97103  1.0000 0.1025301294
C   C10       1.0  0.56170  0.85120  0.13770  1.0000 0.1025301294
C   C11       1.0  0.71050  0.56170  0.30437  1.0000 0.1025301294
C   C12       1.0  0.14880  0.71050  0.47103  1.0000 0.1025301294
C   C13       1.0  0.49420  0.21670  0.44410  1.0000 0.0608301413
C   C14       1.0  0.27750  0.49420  0.61077  1.0000 0.0608301413
C   C15       1.0  0.78330  0.27750  0.77743  1.0000 0.0608301413
C   C16       1.0  0.50580  0.78330  0.94410  1.0000 0.0608301413
C   C17       1.0  0.72250  0.50580  0.11077  1.0000 0.0608301413
C   C18       1.0  0.21670  0.72250  0.27743  1.0000 0.0608301413
C   C19       1.0  0.41070  0.20720  0.67060  1.0000 -0.2128090931
C   C20       1.0  0.20350  0.41070  0.83727  1.0000 -0.2128090931
C   C21       1.0  0.79280  0.20350  0.00393  1.0000 -0.2128090931
C   C22       1.0  0.58930  0.79280  0.17060  1.0000 -0.2128090931
C   C23       1.0  0.79650  0.58930  0.33727  1.0000 -0.2128090931
C   C24       1.0  0.20720  0.79650  0.50393  1.0000 -0.2128090931
C   C25       1.0  0.54630  0.43320  0.74290  1.0000 -0.0923179089
C   C26       1.0  0.11310  0.54630  0.90957  1.0000 -0.0923179089
C   C27       1.0  0.56680  0.11310  0.07623  1.0000 -0.0923179089
C   C28       1.0  0.45370  0.56680  0.24290  1.0000 -0.0923179089
C   C29       1.0  0.88690  0.45370  0.40957  1.0000 -0.0923179089
C   C30       1.0  0.43320  0.88690  0.57623  1.0000 -0.0923179089
C   C31       1.0  0.64270  0.47730  0.70950  1.0000 0.1165427151
C   C32       1.0  0.16540  0.64270  0.87617  1.0000 0.1165427151
C   C33       1.0  0.52270  0.16540  0.04283  1.0000 0.1165427151
C   C34       1.0  0.35730  0.52270  0.20950  1.0000 0.1165427151
C   C35       1.0  0.83460  0.35730  0.37617  1.0000 0.1165427151
C   C36       1.0  0.47730  0.83460  0.54283  1.0000 0.1165427151
C   C37       1.0  0.40850  0.34760  0.62050  1.0000 -0.161577314
C   C38       1.0  0.06090  0.40850  0.78717  1.0000 -0.161577314
C   C39       1.0  0.65240  0.06090  0.95383  1.0000 -0.161577314
C   C40       1.0  0.59150  0.65240  0.12050  1.0000 -0.161577314
C   C41       1.0  0.93910  0.59150  0.28717  1.0000 -0.161577314
C   C42       1.0  0.34760  0.93910  0.45383  1.0000 -0.161577314
C   C43       1.0  0.42650  0.27480  0.58550  1.0000 0.1719279092
C   C44       1.0  0.15170  0.42650  0.75217  1.0000 0.1719279092
C   C45       1.0  0.72520  0.15170  0.91883  1.0000 0.1719279092
C   C46       1.0  0.57350  0.72520  0.08550  1.0000 0.1719279092
C   C47       1.0  0.84830  0.57350  0.25217  1.0000 0.1719279092
C   C48       1.0  0.27480  0.84830  0.41883  1.0000 0.1719279092
C   C49       1.0  0.46850  0.27750  0.46790  1.0000 -0.1819143294
C   C50       1.0  0.19100  0.46850  0.63457  1.0000 -0.1819143294
C   C51       1.0  0.72250  0.19100  0.80123  1.0000 -0.1819143294
C   C52       1.0  0.53150  0.72250  0.96790  1.0000 -0.1819143294
C   C53       1.0  0.80900  0.53150  0.13457  1.0000 -0.1819143294
C   C54       1.0  0.27750  0.80900  0.30123  1.0000 -0.1819143294
C   C55       1.0  0.67760  0.56980  0.66500  1.0000 -0.4303374785
C   C56       1.0  0.10780  0.67760  0.83167  1.0000 -0.4303374785
C   C57       1.0  0.43020  0.10780  0.99833  1.0000 -0.4303374785
C   C58       1.0  0.32240  0.43020  0.16500  1.0000 -0.4303374785
C   C59       1.0  0.89220  0.32240  0.33167  1.0000 -0.4303374785
C   C60       1.0  0.56980  0.89220  0.49833  1.0000 -0.4303374785
C   C61       1.0  0.66320  0.42600  0.61120  1.0000 -0.4303374785
C   C62       1.0  0.23720  0.66320  0.77787  1.0000 -0.4303374785
C   C63       1.0  0.57400  0.23720  0.94453  1.0000 -0.4303374785
C   C64       1.0  0.33680  0.57400  0.11120  1.0000 -0.4303374785
C   C65       1.0  0.76280  0.33680  0.27787  1.0000 -0.4303374785
C   C66       1.0  0.42600  0.76280  0.44453  1.0000 -0.4303374785
C   C67       1.0  0.41340  0.29480  0.10240  1.0000 0.4538747372
C   C68       1.0  0.11860  0.41340  0.26907  1.0000 0.4538747372
C   C69       1.0  0.70520  0.11860  0.43573  1.0000 0.4538747372
C   C70       1.0  0.58660  0.70520  0.60240  1.0000 0.4538747372
C   C71       1.0  0.88140  0.58660  0.76907  1.0000 0.4538747372
C   C72       1.0  0.29480  0.88140  0.93573  1.0000 0.4538747372
N   N1        1.0  0.47700  0.15160  0.52930  1.0000 -0.2386581499
N   N2        1.0  0.32540  0.47700  0.69597  1.0000 -0.2386581499
N   N3        1.0  0.84840  0.32540  0.86263  1.0000 -0.2386581499
N   N4        1.0  0.52300  0.84840  0.02930  1.0000 -0.2386581499
N   N5        1.0  0.67460  0.52300  0.19597  1.0000 -0.2386581499
N   N6        1.0  0.15160  0.67460  0.36263  1.0000 -0.2386581499
N   N7        1.0  0.49140  0.43340  0.63410  1.0000 -0.2502031573
N   N8        1.0  0.05800  0.49140  0.80077  1.0000 -0.2502031573
N   N9        1.0  0.56660  0.05800  0.96743  1.0000 -0.2502031573
N   N10       1.0  0.50860  0.56660  0.13410  1.0000 -0.2502031573
N   N11       1.0  0.94200  0.50860  0.30077  1.0000 -0.2502031573
N   N12       1.0  0.43340  0.94200  0.46743  1.0000 -0.2502031573
O   O1        1.0  0.57120  0.47380  0.96190  1.0000 -0.5474755167
O   O2        1.0  0.09740  0.57120  0.12857  1.0000 -0.5474755167
O   O3        1.0  0.52620  0.09740  0.29523  1.0000 -0.5474755167
O   O4        1.0  0.42880  0.52620  0.46190  1.0000 -0.5474755167
O   O5        1.0  0.90260  0.42880  0.62857  1.0000 -0.5474755167
O   O6        1.0  0.47380  0.90260  0.79523  1.0000 -0.5474755167
O   O7        1.0  0.48530  0.51060  0.85210  1.0000 -0.512417215
O   O8        1.0  0.97470  0.48530  0.01877  1.0000 -0.512417215
O   O9        1.0  0.48940  0.97470  0.18543  1.0000 -0.5153290032
O   O10       1.0  0.51470  0.48940  0.35210  1.0000 -0.512417215
O   O11       1.0  0.02530  0.51470  0.51877  1.0000 -0.5153290032
O   O12       1.0  0.51060  0.02530  0.68543  1.0000 -0.512417215
O   O13       1.0  0.47700  0.34830  0.17480  1.0000 -0.5348280667
O   O14       1.0  0.12870  0.47700  0.34147  1.0000 -0.5348280667
O   O15       1.0  0.65170  0.12870  0.50813  1.0000 -0.5348280667
O   O16       1.0  0.52300  0.65170  0.67480  1.0000 -0.5359795092
O   O17       1.0  0.87130  0.52300  0.84147  1.0000 -0.5348280667
O   O18       1.0  0.34830  0.87130  0.00813  1.0000 -0.5348280667
O   O19       1.0  0.38980  0.31190  0.00000  1.0000 -0.512417215
O   O20       1.0  0.07790  0.38980  0.16667  1.0000 -0.512417215
O   O21       1.0  0.68810  0.07790  0.33333  1.0000 -0.512417215
O   O22       1.0  0.61020  0.68810  0.50000  1.0000 -0.512417215
O   O23       1.0  0.92210  0.61020  0.66667  1.0000 -0.512417215
O   O24       1.0  0.31190  0.92210  0.83333  1.0000 -0.512417215
