# DDEC6 charges by PACMAN v1.1 (https://github.com/mtap-research/PACMAN-charge/)
data_2013[Zn][bbf]3[FSR]1
_chemical_formula_sum              "Zn4 H72 C96 N12 O16"
_cell_length_a       9.0531
_cell_length_b       19.218
_cell_length_c       18.2906
_cell_angle_alpha    90
_cell_angle_beta     116.824
_cell_angle_gamma    90

_symmetry_space_group_name_H-M    "P 1"
_symmetry_Int_Tables_number       1

loop_
  _symmetry_equiv_pos_as_xyz
  'x, y, z'

loop_
  _atom_site_type_symbol
  _atom_site_label
  _atom_site_symmetry_multiplicity
  _atom_site_fract_x
  _atom_site_fract_y
  _atom_site_fract_z
  _atom_site_occupancy
  _atom_site_charge
Zn  Zn1       1.0  0.03546  0.81446  0.90305  1.0000 0.7408444836
Zn  Zn2       1.0  0.96454  0.31446  0.59695  1.0000 0.7408444836
Zn  Zn3       1.0  0.96454  0.18554  0.09695  1.0000 0.7408444836
Zn  Zn4       1.0  0.03546  0.68554  0.40305  1.0000 0.7408444836
H   H1        1.0  0.46650  0.90210  0.80350  1.0000 0.1195982883
H   H2        1.0  0.53350  0.40210  0.69650  1.0000 0.1195982883
H   H3        1.0  0.53350  0.09790  0.19650  1.0000 0.1195982883
H   H4        1.0  0.46650  0.59790  0.30350  1.0000 0.1195982883
H   H5        1.0  0.39700  0.82980  0.58520  1.0000 0.1195982883
H   H6        1.0  0.60300  0.32980  0.91480  1.0000 0.1195982883
H   H7        1.0  0.60300  0.17020  0.41480  1.0000 0.1195982883
H   H8        1.0  0.39700  0.67020  0.08520  1.0000 0.1195982883
H   H9        1.0  0.09610  0.76870  0.68130  1.0000 0.1195982883
H   H10       1.0  0.90390  0.26870  0.81870  1.0000 0.1195982883
H   H11       1.0  0.90390  0.23130  0.31870  1.0000 0.1195982883
H   H12       1.0  0.09610  0.73130  0.18130  1.0000 0.1195982883
H   H13       1.0  0.77530  0.92630  0.67390  1.0000 0.1195982883
H   H14       1.0  0.22470  0.42630  0.82610  1.0000 0.1195982883
H   H15       1.0  0.22470  0.07370  0.32610  1.0000 0.1195982883
H   H16       1.0  0.77530  0.57370  0.17390  1.0000 0.1195982883
H   H17       1.0  0.66050  0.86400  0.62710  1.0000 0.1125921425
H   H18       1.0  0.33950  0.36400  0.87290  1.0000 0.1125921425
H   H19       1.0  0.33950  0.13600  0.37290  1.0000 0.1125921425
H   H20       1.0  0.66050  0.63600  0.12710  1.0000 0.1125921425
H   H21       1.0  0.46150  0.02410  0.61450  1.0000 0.1195982883
H   H22       1.0  0.53850  0.52410  0.88550  1.0000 0.1195982883
H   H23       1.0  0.53850  0.97590  0.38550  1.0000 0.1195982883
H   H24       1.0  0.46150  0.47590  0.11450  1.0000 0.1195982883
H   H25       1.0  0.65710  0.90630  0.50060  1.0000 0.1195982883
H   H26       1.0  0.34290  0.40630  0.99940  1.0000 0.1195982883
H   H27       1.0  0.34290  0.09370  0.49940  1.0000 0.1195982883
H   H28       1.0  0.65710  0.59370  0.00060  1.0000 0.1195982883
H   H29       1.0  0.81690  0.75780  0.73760  1.0000 0.1125921425
H   H30       1.0  0.18310  0.25780  0.76240  1.0000 0.1125921425
H   H31       1.0  0.18310  0.24220  0.26240  1.0000 0.1125921425
H   H32       1.0  0.81690  0.74220  0.23760  1.0000 0.1125921425
H   H33       1.0  0.58650  0.69130  0.66860  1.0000 0.1409638106
H   H34       1.0  0.41350  0.19130  0.83140  1.0000 0.1409638106
H   H35       1.0  0.41350  0.30870  0.33140  1.0000 0.1409638106
H   H36       1.0  0.58650  0.80870  0.16860  1.0000 0.1409638106
H   H37       1.0  0.51990  0.68680  0.86900  1.0000 0.1409638106
H   H38       1.0  0.48010  0.18680  0.63100  1.0000 0.1409638106
H   H39       1.0  0.48010  0.31320  0.13100  1.0000 0.1409638106
H   H40       1.0  0.51990  0.81320  0.36900  1.0000 0.1409638106
H   H41       1.0  0.75110  0.75550  0.93370  1.0000 0.1125921425
H   H42       1.0  0.24890  0.25550  0.56630  1.0000 0.1125921425
H   H43       1.0  0.24890  0.24450  0.06630  1.0000 0.1125921425
H   H44       1.0  0.75110  0.74450  0.43370  1.0000 0.1125921425
H   H45       1.0  0.32570  0.62240  0.74990  1.0000 0.1195982883
H   H46       1.0  0.67430  0.12240  0.75010  1.0000 0.1195982883
H   H47       1.0  0.67430  0.37760  0.25010  1.0000 0.1195982883
H   H48       1.0  0.32570  0.87760  0.24990  1.0000 0.1195982883
H   H49       1.0  0.40950  0.60240  0.62530  1.0000 0.1409638106
H   H50       1.0  0.59050  0.10240  0.87470  1.0000 0.1349386229
H   H51       1.0  0.59050  0.39760  0.37470  1.0000 0.1349386229
H   H52       1.0  0.40950  0.89760  0.12530  1.0000 0.1409638106
H   H53       1.0  0.31920  0.49040  0.55400  1.0000 0.1506799116
H   H54       1.0  0.68080  0.99040  0.94600  1.0000 0.1506799116
H   H55       1.0  0.68080  0.50960  0.44600  1.0000 0.1506799116
H   H56       1.0  0.31920  0.00960  0.05400  1.0000 0.1506799116
H   H57       1.0  0.16100  0.39040  0.52700  1.0000 0.1125921425
H   H58       1.0  0.83900  0.89040  0.97300  1.0000 0.1125921425
H   H59       1.0  0.83900  0.60960  0.47300  1.0000 0.1125921425
H   H60       1.0  0.16100  0.10960  0.02700  1.0000 0.1125921425
H   H61       1.0  0.94320  0.45950  0.65320  1.0000 0.1125921425
H   H62       1.0  0.05680  0.95950  0.84680  1.0000 0.1125921425
H   H63       1.0  0.05680  0.54050  0.34680  1.0000 0.1195982883
H   H64       1.0  0.94320  0.04050  0.15320  1.0000 0.1125921425
H   H65       1.0  0.09290  0.55970  0.68300  1.0000 0.1409638106
H   H66       1.0  0.90710  0.05970  0.81700  1.0000 0.1409638106
H   H67       1.0  0.90710  0.44030  0.31700  1.0000 0.1409638106
H   H68       1.0  0.09290  0.94030  0.18300  1.0000 0.1409638106
H   H69       1.0  0.64240  0.93600  0.74690  1.0000 0.2392289295
H   H70       1.0  0.35760  0.43600  0.75310  1.0000 0.2392289295
H   H71       1.0  0.35760  0.06400  0.25310  1.0000 0.2392289295
H   H72       1.0  0.64240  0.56400  0.24690  1.0000 0.2392289295
C   C1        1.0  0.22370  0.84260  0.82090  1.0000 0.5506763115
C   C2        1.0  0.77630  0.34260  0.67910  1.0000 0.5506763115
C   C3        1.0  0.77630  0.15740  0.17910  1.0000 0.5506763115
C   C4        1.0  0.22370  0.65740  0.32090  1.0000 0.5506763115
C   C5        1.0  0.27200  0.83670  0.75250  1.0000 -0.0099721439
C   C6        1.0  0.72800  0.33670  0.74750  1.0000 -0.0099721439
C   C7        1.0  0.72800  0.16330  0.24750  1.0000 -0.0099721439
C   C8        1.0  0.27200  0.66330  0.25250  1.0000 -0.0099721439
C   C9        1.0  0.40750  0.87470  0.75750  1.0000 -0.2097645
C   C10       1.0  0.59250  0.37470  0.74250  1.0000 -0.2097645
C   C11       1.0  0.59250  0.12530  0.24250  1.0000 -0.2097645
C   C12       1.0  0.40750  0.62530  0.25750  1.0000 -0.2097645
C   C13       1.0  0.45680  0.87280  0.69580  1.0000 0.2052843525
C   C14       1.0  0.54320  0.37280  0.80420  1.0000 0.2045448079
C   C15       1.0  0.54320  0.12720  0.30420  1.0000 0.2045448079
C   C16       1.0  0.45680  0.62720  0.19580  1.0000 0.2052843525
C   C17       1.0  0.36760  0.83120  0.62780  1.0000 -0.2097645
C   C18       1.0  0.63240  0.33120  0.87220  1.0000 -0.2097645
C   C19       1.0  0.63240  0.16880  0.37220  1.0000 -0.2097645
C   C20       1.0  0.36760  0.66880  0.12780  1.0000 -0.2097645
C   C21       1.0  0.23370  0.79140  0.62260  1.0000 -0.0029748513
C   C22       1.0  0.76630  0.29140  0.87740  1.0000 -0.0029748513
C   C23       1.0  0.76630  0.20860  0.37740  1.0000 -0.0029748513
C   C24       1.0  0.23370  0.70860  0.12260  1.0000 -0.0029748513
C   C25       1.0  0.18590  0.79470  0.68500  1.0000 -0.1517800511
C   C26       1.0  0.81410  0.29470  0.81500  1.0000 -0.1517800511
C   C27       1.0  0.81410  0.20530  0.31500  1.0000 -0.1517800511
C   C28       1.0  0.18590  0.70530  0.18500  1.0000 -0.1517800511
C   C29       1.0  0.14140  0.74410  0.54950  1.0000 0.5405032887
C   C30       1.0  0.85860  0.24410  0.95050  1.0000 0.5405032887
C   C31       1.0  0.85860  0.25590  0.45050  1.0000 0.5405032887
C   C32       1.0  0.14140  0.75590  0.04950  1.0000 0.5405032887
C   C33       1.0  0.66070  0.91130  0.64550  1.0000 -0.1393880741
C   C34       1.0  0.33930  0.41130  0.85450  1.0000 -0.1393880741
C   C35       1.0  0.33930  0.08870  0.35450  1.0000 -0.1393880741
C   C36       1.0  0.66070  0.58870  0.14550  1.0000 -0.1393880741
C   C37       1.0  0.57240  0.95710  0.57030  1.0000 0.0920062932
C   C38       1.0  0.42760  0.45710  0.92970  1.0000 0.0920062932
C   C39       1.0  0.42760  0.04290  0.42970  1.0000 0.0920062932
C   C40       1.0  0.57240  0.54290  0.07030  1.0000 0.0920062932
C   C41       1.0  0.47780  0.01380  0.56890  1.0000 -0.1393880741
C   C42       1.0  0.52220  0.51380  0.93110  1.0000 -0.1393880741
C   C43       1.0  0.52220  0.98620  0.43110  1.0000 -0.1393880741
C   C44       1.0  0.47780  0.48620  0.06890  1.0000 -0.1393880741
C   C45       1.0  0.59340  0.94420  0.50070  1.0000 -0.1517800511
C   C46       1.0  0.40660  0.44420  0.99930  1.0000 -0.1517800511
C   C47       1.0  0.40660  0.05580  0.49930  1.0000 -0.1517800511
C   C48       1.0  0.59340  0.55580  0.00070  1.0000 -0.1517800511
C   C49       1.0  0.75740  0.74290  0.76490  1.0000 0.0715446818
C   C50       1.0  0.24260  0.24290  0.73510  1.0000 0.0715446818
C   C51       1.0  0.24260  0.25710  0.23510  1.0000 0.0715446818
C   C52       1.0  0.75740  0.75710  0.26490  1.0000 0.0715446818
C   C53       1.0  0.61940  0.70240  0.72330  1.0000 -0.1852982388
C   C54       1.0  0.38060  0.20240  0.77670  1.0000 -0.1852982388
C   C55       1.0  0.38060  0.29760  0.27670  1.0000 -0.1852982388
C   C56       1.0  0.61940  0.79760  0.22330  1.0000 -0.1852982388
C   C57       1.0  0.52920  0.67790  0.76190  1.0000 0.1575548156
C   C58       1.0  0.47080  0.17790  0.73810  1.0000 0.1575548156
C   C59       1.0  0.47080  0.32210  0.23810  1.0000 0.1575548156
C   C60       1.0  0.52920  0.82210  0.26190  1.0000 0.1575548156
C   C61       1.0  0.57980  0.69990  0.84120  1.0000 -0.2007814542
C   C62       1.0  0.42020  0.19990  0.65880  1.0000 -0.2007814542
C   C63       1.0  0.42020  0.30010  0.15880  1.0000 -0.2007814542
C   C64       1.0  0.57980  0.80010  0.34120  1.0000 -0.2007814542
C   C65       1.0  0.71970  0.74150  0.88000  1.0000 0.0920062932
C   C66       1.0  0.28030  0.24150  0.62000  1.0000 0.0920062932
C   C67       1.0  0.28030  0.25850  0.12000  1.0000 0.0920062932
C   C68       1.0  0.71970  0.75850  0.38000  1.0000 0.0920062932
C   C69       1.0  0.39310  0.62850  0.72420  1.0000 -0.1393880741
C   C70       1.0  0.60690  0.12850  0.77580  1.0000 -0.1393880741
C   C71       1.0  0.60690  0.37150  0.27580  1.0000 -0.1393880741
C   C72       1.0  0.39310  0.87150  0.22420  1.0000 -0.1393880741
C   C73       1.0  0.35560  0.59130  0.65670  1.0000 -0.1342549369
C   C74       1.0  0.64440  0.09130  0.84330  1.0000 -0.1342549369
C   C75       1.0  0.64440  0.40870  0.34330  1.0000 -0.1342549369
C   C76       1.0  0.35560  0.90870  0.15670  1.0000 -0.1342549369
C   C77       1.0  0.23510  0.53400  0.62840  1.0000 0.1575548156
C   C78       1.0  0.76490  0.03400  0.87160  1.0000 0.1575548156
C   C79       1.0  0.76490  0.46600  0.37160  1.0000 0.1575548156
C   C80       1.0  0.23510  0.96600  0.12840  1.0000 0.1575548156
C   C81       1.0  0.24750  0.48420  0.57720  1.0000 -0.2007814542
C   C82       1.0  0.75250  0.98420  0.92280  1.0000 -0.2007814542
C   C83       1.0  0.75250  0.51580  0.42280  1.0000 -0.2007814542
C   C84       1.0  0.24750  0.01580  0.07720  1.0000 -0.2007814542
C   C85       1.0  0.15010  0.42430  0.56050  1.0000 0.078126195
C   C86       1.0  0.84990  0.92430  0.93950  1.0000 0.078126195
C   C87       1.0  0.84990  0.57570  0.43950  1.0000 0.078126195
C   C88       1.0  0.15010  0.07570  0.06050  1.0000 0.078126195
C   C89       1.0  0.02250  0.46480  0.63450  1.0000 0.0715446818
C   C90       1.0  0.97750  0.96480  0.86550  1.0000 0.0715446818
C   C91       1.0  0.97750  0.53520  0.36550  1.0000 0.0715446818
C   C92       1.0  0.02250  0.03520  0.13450  1.0000 0.0715446818
C   C93       1.0  0.11320  0.52490  0.65330  1.0000 -0.2007814542
C   C94       1.0  0.88680  0.02490  0.84670  1.0000 -0.2007814542
C   C95       1.0  0.88680  0.47510  0.34670  1.0000 -0.2007814542
C   C96       1.0  0.11320  0.97510  0.15330  1.0000 -0.2007814542
N   N1        1.0  0.59340  0.91070  0.70370  1.0000 -0.3356540025
N   N2        1.0  0.40660  0.41070  0.79630  1.0000 -0.3356540025
N   N3        1.0  0.40660  0.08930  0.29630  1.0000 -0.3356540025
N   N4        1.0  0.59340  0.58930  0.20370  1.0000 -0.3356540025
N   N5        1.0  0.81010  0.76200  0.84380  1.0000 -0.2339822174
N   N6        1.0  0.18990  0.26200  0.65620  1.0000 -0.2339822174
N   N7        1.0  0.18990  0.23800  0.15620  1.0000 -0.2339822174
N   N8        1.0  0.81010  0.73800  0.34380  1.0000 -0.2339822174
N   N9        1.0  0.04240  0.41354  0.59070  1.0000 -0.2339822174
N   N10       1.0  0.95760  0.91354  0.90930  1.0000 -0.2339822174
N   N11       1.0  0.95760  0.58646  0.40930  1.0000 -0.2339822174
N   N12       1.0  0.04240  0.08646  0.09070  1.0000 -0.2339822174
O   O1        1.0  0.09710  0.80788  0.81290  1.0000 -0.5603665457
O   O2        1.0  0.90290  0.30788  0.68710  1.0000 -0.5603665457
O   O3        1.0  0.90290  0.19212  0.18710  1.0000 -0.5603665457
O   O4        1.0  0.09710  0.69212  0.31290  1.0000 -0.5603665457
O   O5        1.0  0.30190  0.88100  0.87980  1.0000 -0.5603665457
O   O6        1.0  0.69810  0.38100  0.62020  1.0000 -0.5603665457
O   O7        1.0  0.69810  0.11900  0.12020  1.0000 -0.5603665457
O   O8        1.0  0.30190  0.61900  0.37980  1.0000 -0.5603665457
O   O9        1.0  0.01990  0.71034  0.54370  1.0000 -0.5789196238
O   O10       1.0  0.98010  0.21034  0.95630  1.0000 -0.5789196238
O   O11       1.0  0.98010  0.28966  0.45630  1.0000 -0.5789196238
O   O12       1.0  0.01990  0.78966  0.04370  1.0000 -0.5789196238
O   O13       1.0  0.19350  0.74054  0.49540  1.0000 -0.5305591867
O   O14       1.0  0.80650  0.24054  0.00460  1.0000 -0.5305591867
O   O15       1.0  0.80650  0.25946  0.50460  1.0000 -0.5305591867
O   O16       1.0  0.19350  0.75946  0.99540  1.0000 -0.5305591867
