# DDEC6 charges by PACMAN v1.1 (https://github.com/mtap-research/PACMAN-charge/)
data_2013[Tb][nan]3[FSR]5
_chemical_formula_sum              "Tb16 H120 C96 N24 O96"
_cell_length_a       19.2155
_cell_length_b       19.2155
_cell_length_c       19.2155
_cell_angle_alpha    95.5634
_cell_angle_beta     95.5634
_cell_angle_gamma    143.717

_symmetry_space_group_name_H-M    "P 1"
_symmetry_Int_Tables_number       1

loop_
  _symmetry_equiv_pos_as_xyz
  'x, y, z'

loop_
  _atom_site_type_symbol
  _atom_site_label
  _atom_site_symmetry_multiplicity
  _atom_site_fract_x
  _atom_site_fract_y
  _atom_site_fract_z
  _atom_site_occupancy
  _atom_site_charge
Tb  Tb1       1.0  0.94255  0.55533  0.04886  1.0000 2.013790925
Tb  Tb2       1.0  0.50647  0.89369  0.95114  1.0000 2.013790925
Tb  Tb3       1.0  0.14369  0.69255  0.88722  1.0000 2.013790925
Tb  Tb4       1.0  0.80533  0.25647  0.11278  1.0000 2.013790925
Tb  Tb5       1.0  0.30745  0.19467  0.45114  1.0000 2.013790925
Tb  Tb6       1.0  0.74353  0.85631  0.54886  1.0000 2.013790925
Tb  Tb7       1.0  0.10631  0.05745  0.61278  1.0000 2.013790925
Tb  Tb8       1.0  0.44467  0.49353  0.38722  1.0000 2.013790925
Tb  Tb9       1.0  0.17376  0.81846  0.22852  1.0000 1.9235066967
Tb  Tb10      1.0  0.58994  0.94524  0.77148  1.0000 1.9235066967
Tb  Tb11      1.0  0.19524  0.92376  0.85530  1.0000 1.9235066967
Tb  Tb12      1.0  0.06846  0.33994  0.14470  1.0000 1.9235066967
Tb  Tb13      1.0  0.07624  0.93154  0.27148  1.0000 1.9235066967
Tb  Tb14      1.0  0.66006  0.80476  0.72852  1.0000 1.9235066967
Tb  Tb15      1.0  0.05476  0.82624  0.64470  1.0000 1.9235066967
Tb  Tb16      1.0  0.18154  0.41006  0.35530  1.0000 1.9235066967
H   H1        1.0  0.76610  0.57650  0.03980  1.0000 0.1499346916
H   H2        1.0  0.53670  0.72630  0.96020  1.0000 0.1499346916
H   H3        1.0  0.97630  0.51610  0.68960  1.0000 0.1499346916
H   H4        1.0  0.82650  0.28670  0.31040  1.0000 0.1499346916
H   H5        1.0  0.48390  0.17350  0.46020  1.0000 0.1499346916
H   H6        1.0  0.71330  0.02370  0.53980  1.0000 0.1499346916
H   H7        1.0  0.27370  0.23390  0.81040  1.0000 0.1499346916
H   H8        1.0  0.42350  0.46330  0.18960  1.0000 0.1499346916
H   H9        1.0  0.71570  0.52830  0.10640  1.0000 0.1403314078
H   H10       1.0  0.42190  0.60930  0.89360  1.0000 0.1403314078
H   H11       1.0  0.85930  0.46570  0.68740  1.0000 0.1403314078
H   H12       1.0  0.77830  0.17190  0.31260  1.0000 0.1403314078
H   H13       1.0  0.53430  0.22170  0.39360  1.0000 0.1403314078
H   H14       1.0  0.82810  0.14070  0.60640  1.0000 0.1403314078
H   H15       1.0  0.39070  0.28430  0.81260  1.0000 0.1403314078
H   H16       1.0  0.47170  0.57810  0.18740  1.0000 0.1403314078
H   H17       1.0  0.73280  0.43290  0.15710  1.0000 0.1499346916
H   H18       1.0  0.27580  0.57570  0.84290  1.0000 0.1499346916
H   H19       1.0  0.82570  0.48280  0.79990  1.0000 0.1499346916
H   H20       1.0  0.68290  0.02580  0.20010  1.0000 0.1499346916
H   H21       1.0  0.51720  0.31710  0.34290  1.0000 0.1499346916
H   H22       1.0  0.97420  0.17430  0.65710  1.0000 0.1499346916
H   H23       1.0  0.42430  0.26720  0.70010  1.0000 0.1499346916
H   H24       1.0  0.56710  0.72420  0.29990  1.0000 0.1499346916
H   H25       1.0  0.60800  0.32230  0.09390  1.0000 0.1499346916
H   H26       1.0  0.22840  0.51410  0.90610  1.0000 0.1499346916
H   H27       1.0  0.76410  0.35800  0.78570  1.0000 0.1499346916
H   H28       1.0  0.57230  0.97840  0.21430  1.0000 0.1499346916
H   H29       1.0  0.64200  0.42770  0.40610  1.0000 0.1499346916
H   H30       1.0  0.02160  0.23590  0.59390  1.0000 0.1499346916
H   H31       1.0  0.48590  0.39200  0.71430  1.0000 0.1499346916
H   H32       1.0  0.67770  0.77160  0.28570  1.0000 0.1499346916
H   H33       1.0  0.14080  0.61550  0.30930  1.0000 0.1403314078
H   H34       1.0  0.30620  0.83150  0.69070  1.0000 0.1403314078
H   H35       1.0  0.08150  0.89080  0.02530  1.0000 0.1403314078
H   H36       1.0  0.86550  0.05620  0.97470  1.0000 0.1403314078
H   H37       1.0  0.10920  0.13450  0.19070  1.0000 0.1403314078
H   H38       1.0  0.94380  0.91850  0.80930  1.0000 0.1403314078
H   H39       1.0  0.16850  0.85920  0.47470  1.0000 0.1403314078
H   H40       1.0  0.38450  0.69380  0.52530  1.0000 0.1403314078
H   H41       1.0  0.03610  0.56480  0.33770  1.0000 0.1499346916
H   H42       1.0  0.22710  0.69840  0.66230  1.0000 0.1499346916
H   H43       1.0  0.94840  0.78610  0.97130  1.0000 0.1499346916
H   H44       1.0  0.81480  0.97710  0.02870  1.0000 0.1499346916
H   H45       1.0  0.21390  0.18520  0.16230  1.0000 0.1499346916
H   H46       1.0  0.02290  0.05160  0.83770  1.0000 0.1499346916
H   H47       1.0  0.30160  0.96390  0.52870  1.0000 0.1499346916
H   H48       1.0  0.43520  0.77290  0.47130  1.0000 0.1499346916
H   H49       1.0  0.32500  0.89230  0.41130  1.0000 0.1403314078
H   H50       1.0  0.48100  0.91370  0.58870  1.0000 0.1403314078
H   H51       1.0  0.16370  0.07500  0.93270  1.0000 0.1403314078
H   H52       1.0  0.14230  0.23100  0.06730  1.0000 0.1403314078
H   H53       1.0  0.92500  0.85770  0.08870  1.0000 0.1403314078
H   H54       1.0  0.76900  0.83630  0.91130  1.0000 0.1403314078
H   H55       1.0  0.08630  0.67500  0.56730  1.0000 0.1403314078
H   H56       1.0  0.10770  0.51900  0.43270  1.0000 0.1403314078
H   H57       1.0  0.29130  0.78470  0.40020  1.0000 0.1217729644
H   H58       1.0  0.38450  0.89110  0.59980  1.0000 0.1217729644
H   H59       1.0  0.14110  0.04130  0.00660  1.0000 0.1217729644
H   H60       1.0  0.03470  0.13450  0.99340  1.0000 0.1217729644
H   H61       1.0  0.95870  0.96530  0.09980  1.0000 0.1217729644
H   H62       1.0  0.86550  0.85890  0.90020  1.0000 0.1217729644
H   H63       1.0  0.10890  0.70870  0.49340  1.0000 0.1217729644
H   H64       1.0  0.21530  0.61550  0.50660  1.0000 0.1217729644
H   H65       1.0  0.42210  0.00160  0.09990  1.0000 0.1499346916
H   H66       1.0  0.90170  0.32220  0.90010  1.0000 0.1499346916
H   H67       1.0  0.57220  0.17210  0.92050  1.0000 0.1499346916
H   H68       1.0  0.25160  0.65170  0.07950  1.0000 0.1499346916
H   H69       1.0  0.82790  0.74840  0.40010  1.0000 0.1499346916
H   H70       1.0  0.34830  0.42780  0.59990  1.0000 0.1499346916
H   H71       1.0  0.67780  0.57790  0.57950  1.0000 0.1499346916
H   H72       1.0  0.99840  0.09830  0.42050  1.0000 0.1499346916
H   H73       1.0  0.40760  0.93280  0.15040  1.0000 0.1403314078
H   H74       1.0  0.78240  0.25720  0.84960  1.0000 0.1403314078
H   H75       1.0  0.50720  0.15760  0.97480  1.0000 0.1403314078
H   H76       1.0  0.18280  0.53240  0.02520  1.0000 0.1403314078
H   H77       1.0  0.84240  0.81720  0.34960  1.0000 0.1403314078
H   H78       1.0  0.46760  0.49280  0.65040  1.0000 0.1403314078
H   H79       1.0  0.74280  0.59240  0.52520  1.0000 0.1403314078
H   H80       1.0  0.06720  0.21760  0.47480  1.0000 0.1403314078
H   H81       1.0  0.45230  0.15070  0.17640  1.0000 0.1403314078
H   H82       1.0  0.97430  0.27590  0.82360  1.0000 0.1403314078
H   H83       1.0  0.52590  0.20230  0.80160  1.0000 0.1403314078
H   H84       1.0  0.40070  0.72430  0.19840  1.0000 0.1403314078
H   H85       1.0  0.79770  0.59930  0.32360  1.0000 0.1403314078
H   H86       1.0  0.27570  0.47410  0.67640  1.0000 0.1403314078
H   H87       1.0  0.72410  0.54770  0.69840  1.0000 0.1403314078
H   H88       1.0  0.84930  0.02570  0.30160  1.0000 0.1403314078
H   H89       1.0  0.33690  0.03860  0.10850  1.0000 0.1499346916
H   H90       1.0  0.93010  0.22840  0.89150  1.0000 0.1499346916
H   H91       1.0  0.47840  0.08690  0.79830  1.0000 0.1499346916
H   H92       1.0  0.28860  0.68010  0.20170  1.0000 0.1499346916
H   H93       1.0  0.91310  0.71140  0.39150  1.0000 0.1499346916
H   H94       1.0  0.31990  0.52160  0.60850  1.0000 0.1499346916
H   H95       1.0  0.77160  0.66310  0.70170  1.0000 0.1499346916
H   H96       1.0  0.96140  0.06990  0.29830  1.0000 0.1499346916
H   H97       1.0  0.69490  0.41470  0.01340  1.0000 0.2557096378
H   H98       1.0  0.40130  0.68150  0.98660  1.0000 0.2557096378
H   H99       1.0  0.93150  0.44490  0.78020  1.0000 0.2557096378
H   H100      1.0  0.66470  0.15130  0.21980  1.0000 0.2557096378
H   H101      1.0  0.55510  0.33530  0.48660  1.0000 0.2557096378
H   H102      1.0  0.84870  0.06850  0.51340  1.0000 0.2557096378
H   H103      1.0  0.31850  0.30510  0.71980  1.0000 0.2557096378
H   H104      1.0  0.58530  0.59870  0.28020  1.0000 0.2557096378
H   H105      1.0  0.12880  0.73620  0.36340  1.0000 0.2431744011
H   H106      1.0  0.37280  0.76540  0.63660  1.0000 0.2431744011
H   H107      1.0  0.01540  0.87880  0.89260  1.0000 0.2431744011
H   H108      1.0  0.98620  0.12280  0.10740  1.0000 0.2431744011
H   H109      1.0  0.12120  0.01380  0.13660  1.0000 0.2431744011
H   H110      1.0  0.87720  0.98460  0.86340  1.0000 0.2431744011
H   H111      1.0  0.23460  0.87120  0.60740  1.0000 0.2431744011
H   H112      1.0  0.26380  0.62720  0.39260  1.0000 0.2431744011
H   H113      1.0  0.42900  0.04310  0.22310  1.0000 0.2505103545
H   H114      1.0  0.82000  0.20590  0.77690  1.0000 0.2505103545
H   H115      1.0  0.45590  0.17900  0.88590  1.0000 0.2505103545
H   H116      1.0  0.29310  0.57000  0.11410  1.0000 0.2505103545
H   H117      1.0  0.82100  0.70690  0.27690  1.0000 0.2505103545
H   H118      1.0  0.43000  0.54410  0.72310  1.0000 0.2505103545
H   H119      1.0  0.79410  0.57100  0.61410  1.0000 0.2505103545
H   H120      1.0  0.95690  0.18000  0.38590  1.0000 0.2505103545
C   C1        1.0  0.90348  0.67570  0.13418  1.0000 0.6843376802
C   C2        1.0  0.54152  0.76930  0.86582  1.0000 0.6843376802
C   C3        1.0  0.01930  0.65348  0.72778  1.0000 0.6843376802
C   C4        1.0  0.92570  0.29152  0.27222  1.0000 0.6843376802
C   C5        1.0  0.34652  0.07430  0.36582  1.0000 0.6843376802
C   C6        1.0  0.70848  0.98070  0.63418  1.0000 0.6843376802
C   C7        1.0  0.23070  0.09652  0.77222  1.0000 0.6843376802
C   C8        1.0  0.32430  0.45848  0.22778  1.0000 0.6843376802
C   C9        1.0  0.77533  0.55887  0.08240  1.0000 -0.2393075331
C   C10       1.0  0.47647  0.69293  0.91760  1.0000 -0.2393075331
C   C11       1.0  0.94293  0.52533  0.71646  1.0000 -0.2393075331
C   C12       1.0  0.80887  0.22647  0.28354  1.0000 -0.2393075331
C   C13       1.0  0.47467  0.19113  0.41760  1.0000 -0.2393075331
C   C14       1.0  0.77353  0.05707  0.58240  1.0000 -0.2393075331
C   C15       1.0  0.30707  0.22467  0.78354  1.0000 -0.2393075331
C   C16       1.0  0.44113  0.52353  0.21646  1.0000 -0.2393075331
C   C17       1.0  0.69540  0.38370  0.10670  1.0000 -0.2393075331
C   C18       1.0  0.27700  0.58870  0.89330  1.0000 -0.2393075331
C   C19       1.0  0.83870  0.44540  0.81170  1.0000 -0.2393075331
C   C20       1.0  0.63370  0.02700  0.18830  1.0000 -0.2393075331
C   C21       1.0  0.55460  0.36630  0.39330  1.0000 -0.2393075331
C   C22       1.0  0.97300  0.16130  0.60670  1.0000 -0.2393075331
C   C23       1.0  0.41130  0.30460  0.68830  1.0000 -0.2393075331
C   C24       1.0  0.61630  0.72300  0.31170  1.0000 -0.2393075331
C   C25       1.0  0.71308  0.32048  0.09976  1.0000 0.6267031626
C   C26       1.0  0.22072  0.61332  0.90024  1.0000 0.6267031626
C   C27       1.0  0.86332  0.46308  0.89260  1.0000 0.6267031626
C   C28       1.0  0.57048  0.97072  0.10740  1.0000 0.6267031626
C   C29       1.0  0.53692  0.42952  0.40024  1.0000 0.6267031626
C   C30       1.0  0.02928  0.13668  0.59976  1.0000 0.6267031626
C   C31       1.0  0.38668  0.28692  0.60740  1.0000 0.6267031626
C   C32       1.0  0.67952  0.77928  0.39260  1.0000 0.6267031626
C   C33       1.0  0.00266  0.54077  0.22723  1.0000 0.6994236307
C   C34       1.0  0.31354  0.77543  0.77277  1.0000 0.6994236307
C   C35       1.0  0.02543  0.75266  0.96189  1.0000 0.6994236307
C   C36       1.0  0.79077  0.06354  0.03811  1.0000 0.6994236307
C   C37       1.0  0.24734  0.20923  0.27277  1.0000 0.6994236307
C   C38       1.0  0.93646  0.97457  0.72723  1.0000 0.6994236307
C   C39       1.0  0.22457  0.99734  0.53811  1.0000 0.6994236307
C   C40       1.0  0.45923  0.68646  0.46189  1.0000 0.6994236307
C   C41       1.0  0.08660  0.61130  0.30570  1.0000 -0.2393075331
C   C42       1.0  0.30560  0.78090  0.69430  1.0000 -0.2393075331
C   C43       1.0  0.03090  0.83660  0.97530  1.0000 -0.2393075331
C   C44       1.0  0.86130  0.05560  0.02470  1.0000 -0.2393075331
C   C45       1.0  0.16340  0.13870  0.19430  1.0000 -0.2393075331
C   C46       1.0  0.94440  0.96910  0.80570  1.0000 -0.2393075331
C   C47       1.0  0.21910  0.91340  0.52470  1.0000 -0.2393075331
C   C48       1.0  0.38870  0.69440  0.47530  1.0000 -0.2393075331
C   C49       1.0  0.29090  0.82570  0.37500  1.0000 -0.2565394147
C   C50       1.0  0.45070  0.91590  0.62500  1.0000 -0.2565394147
C   C51       1.0  0.16590  0.04090  0.96520  1.0000 -0.2565394147
C   C52       1.0  0.07570  0.20070  0.03480  1.0000 -0.2565394147
C   C53       1.0  0.95910  0.92430  0.12500  1.0000 -0.2565394147
C   C54       1.0  0.79930  0.83410  0.87500  1.0000 -0.2565394147
C   C55       1.0  0.08410  0.70910  0.53480  1.0000 -0.2565394147
C   C56       1.0  0.17430  0.54930  0.46520  1.0000 -0.2565394147
C   C57       1.0  0.36770  0.87640  0.32430  1.0000 0.6206411318
C   C58       1.0  0.55210  0.04340  0.67570  1.0000 0.6206411318
C   C59       1.0  0.29340  0.11770  0.99130  1.0000 0.6206411318
C   C60       1.0  0.12640  0.30210  0.00870  1.0000 0.6206411318
C   C61       1.0  0.88230  0.87360  0.17570  1.0000 0.6206411318
C   C62       1.0  0.69790  0.70660  0.82430  1.0000 0.6206411318
C   C63       1.0  0.95660  0.63230  0.50870  1.0000 0.6206411318
C   C64       1.0  0.12360  0.44790  0.49130  1.0000 0.6206411318
C   C65       1.0  0.24393  0.82142  0.07595  1.0000 0.6941433744
C   C66       1.0  0.74547  0.16798  0.92405  1.0000 0.6941433744
C   C67       1.0  0.41798  0.99393  0.92251  1.0000 0.6941433744
C   C68       1.0  0.07142  0.49547  0.07749  1.0000 0.6941433744
C   C69       1.0  0.00607  0.92858  0.42405  1.0000 0.6941433744
C   C70       1.0  0.50453  0.58202  0.57595  1.0000 0.6941433744
C   C71       1.0  0.83202  0.75607  0.57749  1.0000 0.6941433744
C   C72       1.0  0.17858  0.25453  0.42251  1.0000 0.6941433744
C   C73       1.0  0.37020  0.94330  0.12730  1.0000 -0.2486542864
C   C74       1.0  0.81600  0.24290  0.87270  1.0000 -0.2486542864
C   C75       1.0  0.49290  0.12020  0.92690  1.0000 -0.2486542864
C   C76       1.0  0.19330  0.56600  0.07310  1.0000 -0.2486542864
C   C77       1.0  0.87980  0.80670  0.37270  1.0000 -0.2486542864
C   C78       1.0  0.43400  0.50710  0.62730  1.0000 -0.2486542864
C   C79       1.0  0.75710  0.62980  0.57310  1.0000 -0.2486542864
C   C80       1.0  0.05670  0.18400  0.42690  1.0000 -0.2486542864
C   C81       1.0  0.36700  0.06550  0.16150  1.0000 -0.2393075331
C   C82       1.0  0.90400  0.20550  0.83850  1.0000 -0.2393075331
C   C83       1.0  0.45550  0.11700  0.80150  1.0000 -0.2393075331
C   C84       1.0  0.31550  0.65400  0.19850  1.0000 -0.2393075331
C   C85       1.0  0.88300  0.68450  0.33850  1.0000 -0.2393075331
C   C86       1.0  0.34600  0.54450  0.66150  1.0000 -0.2393075331
C   C87       1.0  0.79450  0.63300  0.69850  1.0000 -0.2393075331
C   C88       1.0  0.93450  0.09600  0.30150  1.0000 -0.2393075331
C   C89       1.0  0.29320  0.05780  0.19320  1.0000 0.6206411318
C   C90       1.0  0.86460  0.10000  0.80680  1.0000 0.6206411318
C   C91       1.0  0.35000  0.04320  0.73540  1.0000 0.6206411318
C   C92       1.0  0.30780  0.61460  0.26460  1.0000 0.6206411318
C   C93       1.0  0.95680  0.69220  0.30680  1.0000 0.6206411318
C   C94       1.0  0.38540  0.65000  0.69320  1.0000 0.6206411318
C   C95       1.0  0.90000  0.70680  0.76460  1.0000 0.6206411318
C   C96       1.0  0.94220  0.13540  0.23540  1.0000 0.6206411318
N   N1        1.0  0.75033  0.46333  0.05886  1.0000 -0.3584523304
N   N2        1.0  0.40447  0.69147  0.94114  1.0000 -0.3584523304
N   N3        1.0  0.94147  0.50033  0.78700  1.0000 -0.3584523304
N   N4        1.0  0.71333  0.15447  0.21300  1.0000 -0.3584523304
N   N5        1.0  0.49967  0.28667  0.44114  1.0000 -0.3584523304
N   N6        1.0  0.84553  0.05853  0.55886  1.0000 -0.3584523304
N   N7        1.0  0.30853  0.24967  0.71300  1.0000 -0.3584523304
N   N8        1.0  0.53667  0.59553  0.28700  1.0000 -0.3584523304
N   N9        1.0  0.16284  0.73704  0.33308  1.0000 -0.3654329582
N   N10       1.0  0.40396  0.82976  0.66692  1.0000 -0.3654329582
N   N11       1.0  0.07976  0.91284  0.92580  1.0000 -0.3654329582
N   N12       1.0  0.98704  0.15396  0.07420  1.0000 -0.3654329582
N   N13       1.0  0.08716  0.01296  0.16692  1.0000 -0.3654329582
N   N14       1.0  0.84604  0.92024  0.83308  1.0000 -0.3654329582
N   N15       1.0  0.17024  0.83716  0.57420  1.0000 -0.3654329582
N   N16       1.0  0.26296  0.59604  0.42580  1.0000 -0.3654329582
N   N17       1.0  0.36116  0.99156  0.18392  1.0000 -0.3509037672
N   N18       1.0  0.80764  0.17724  0.81608  1.0000 -0.3509037672
N   N19       1.0  0.42724  0.11116  0.86960  1.0000 -0.3509037672
N   N20       1.0  0.24156  0.55764  0.13040  1.0000 -0.3509037672
N   N21       1.0  0.88884  0.75844  0.31608  1.0000 -0.3509037672
N   N22       1.0  0.44236  0.57276  0.68392  1.0000 -0.3509037672
N   N23       1.0  0.82276  0.63884  0.63040  1.0000 -0.3509037672
N   N24       1.0  0.00844  0.19236  0.36960  1.0000 -0.3509037672
O   O1        1.0  0.97704  0.68510  0.14054  1.0000 -0.702716331
O   O2        1.0  0.54456  0.83650  0.85946  1.0000 -0.702716331
O   O3        1.0  0.08650  0.72704  0.79194  1.0000 -0.702716331
O   O4        1.0  0.93510  0.29456  0.20806  1.0000 -0.702716331
O   O5        1.0  0.27296  0.06490  0.35946  1.0000 -0.702716331
O   O6        1.0  0.70544  0.91350  0.64054  1.0000 -0.702716331
O   O7        1.0  0.16350  0.02296  0.70806  1.0000 -0.702716331
O   O8        1.0  0.31490  0.45544  0.29194  1.0000 -0.702716331
O   O9        1.0  0.92850  0.75633  0.16683  1.0000 -0.6400186895
O   O10       1.0  0.58950  0.76167  0.83317  1.0000 -0.6400186895
O   O11       1.0  0.01167  0.67850  0.67217  1.0000 -0.6400186895
O   O12       1.0  0.00633  0.33950  0.32783  1.0000 -0.6400186895
O   O13       1.0  0.32150  0.99367  0.33317  1.0000 -0.6400186895
O   O14       1.0  0.66050  0.98833  0.66683  1.0000 -0.6400186895
O   O15       1.0  0.23833  0.07150  0.82783  1.0000 -0.6400186895
O   O16       1.0  0.24367  0.41050  0.17217  1.0000 -0.6400186895
O   O17       1.0  0.79488  0.36420  0.06968  1.0000 -0.7395084901
O   O18       1.0  0.29452  0.72520  0.93032  1.0000 -0.7395084901
O   O19       1.0  0.97520  0.54488  0.93068  1.0000 -0.7395084901
O   O20       1.0  0.61420  0.04452  0.06932  1.0000 -0.7395084901
O   O21       1.0  0.45512  0.38580  0.43032  1.0000 -0.7395084901
O   O22       1.0  0.95548  0.02480  0.56968  1.0000 -0.7395084901
O   O23       1.0  0.27480  0.20512  0.56932  1.0000 -0.7395084901
O   O24       1.0  0.63580  0.70548  0.43068  1.0000 -0.7395084901
O   O25       1.0  0.65639  0.23344  0.12403  1.0000 -0.5725869937
O   O26       1.0  0.10941  0.53236  0.87597  1.0000 -0.5725869937
O   O27       1.0  0.78236  0.40639  0.92295  1.0000 -0.5725869937
O   O28       1.0  0.48344  0.85941  0.07705  1.0000 -0.5725869937
O   O29       1.0  0.59361  0.51656  0.37597  1.0000 -0.5725869937
O   O30       1.0  0.14059  0.21764  0.62403  1.0000 -0.5725869937
O   O31       1.0  0.46764  0.34361  0.57705  1.0000 -0.5725869937
O   O32       1.0  0.76656  0.89059  0.42295  1.0000 -0.5725869937
O   O33       1.0  0.02891  0.60305  0.18576  1.0000 -0.7086830838
O   O34       1.0  0.41729  0.84315  0.81424  1.0000 -0.7086830838
O   O35       1.0  0.09315  0.77891  0.92586  1.0000 -0.7086830838
O   O36       1.0  0.85305  0.16729  0.07414  1.0000 -0.7086830838
O   O37       1.0  0.22109  0.14695  0.31424  1.0000 -0.7086830838
O   O38       1.0  0.83271  0.90685  0.68576  1.0000 -0.7086830838
O   O39       1.0  0.15685  0.97109  0.57414  1.0000 -0.7086830838
O   O40       1.0  0.39695  0.58271  0.42586  1.0000 -0.7086830838
O   O41       1.0  0.91857  0.42778  0.20975  1.0000 -0.6400186895
O   O42       1.0  0.21803  0.70882  0.79025  1.0000 -0.6400186895
O   O43       1.0  0.95882  0.66857  0.99079  1.0000 -0.6400186895
O   O44       1.0  0.67778  0.96803  0.00921  1.0000 -0.6400186895
O   O45       1.0  0.33143  0.32222  0.29025  1.0000 -0.6400186895
O   O46       1.0  0.03197  0.04118  0.70975  1.0000 -0.6400186895
O   O47       1.0  0.29118  0.08143  0.50921  1.0000 -0.6400186895
O   O48       1.0  0.57222  0.78197  0.49079  1.0000 -0.6400186895
O   O49       1.0  0.48000  0.95380  0.35340  1.0000 -0.598142366
O   O50       1.0  0.60040  0.12660  0.64660  1.0000 -0.598142366
O   O51       1.0  0.37660  0.23000  0.02620  1.0000 -0.598142366
O   O52       1.0  0.20380  0.35040  0.97380  1.0000 -0.598142366
O   O53       1.0  0.77000  0.79620  0.14660  1.0000 -0.598142366
O   O54       1.0  0.64960  0.62340  0.85340  1.0000 -0.598142366
O   O55       1.0  0.87340  0.52000  0.47380  1.0000 -0.598142366
O   O56       1.0  0.04620  0.39960  0.52620  1.0000 -0.598142366
O   O57       1.0  0.31901  0.84611  0.25872  1.0000 -0.6400186895
O   O58       1.0  0.58739  0.06029  0.74128  1.0000 -0.6400186895
O   O59       1.0  0.31029  0.06901  0.97290  1.0000 -0.6400186895
O   O60       1.0  0.09611  0.33739  0.02710  1.0000 -0.6400186895
O   O61       1.0  0.93099  0.90389  0.24128  1.0000 -0.6400186895
O   O62       1.0  0.66261  0.68971  0.75872  1.0000 -0.6400186895
O   O63       1.0  0.93971  0.68099  0.52710  1.0000 -0.6400186895
O   O64       1.0  0.15389  0.41261  0.47290  1.0000 -0.6400186895
O   O65       1.0  0.15409  0.75922  0.10231  1.0000 -0.719226162
O   O66       1.0  0.65691  0.05178  0.89769  1.0000 -0.719226162
O   O67       1.0  0.30178  0.90409  0.89487  1.0000 -0.719226162
O   O68       1.0  0.00922  0.40691  0.10513  1.0000 -0.719226162
O   O69       1.0  0.09591  0.99078  0.39769  1.0000 -0.719226162
O   O70       1.0  0.59309  0.69822  0.60231  1.0000 -0.719226162
O   O71       1.0  0.94822  0.84591  0.60513  1.0000 -0.719226162
O   O72       1.0  0.24078  0.34309  0.39487  1.0000 -0.719226162
O   O73       1.0  0.23419  0.78681  0.01380  1.0000 -0.6059985562
O   O74       1.0  0.77301  0.22039  0.98620  1.0000 -0.6059985562
O   O75       1.0  0.47039  0.98419  0.94738  1.0000 -0.6059985562
O   O76       1.0  0.03681  0.52301  0.05262  1.0000 -0.6059985562
O   O77       1.0  0.01581  0.96319  0.48620  1.0000 -0.6059985562
O   O78       1.0  0.47699  0.52961  0.51380  1.0000 -0.6059985562
O   O79       1.0  0.77961  0.76581  0.55262  1.0000 -0.6059985562
O   O80       1.0  0.21319  0.22699  0.44738  1.0000 -0.6059985562
O   O81       1.0  0.32580  0.14580  0.20520  1.0000 -0.5119808493
O   O82       1.0  0.94060  0.12060  0.79480  1.0000 -0.5119808493
O   O83       1.0  0.37060  0.07580  0.68000  1.0000 -0.5119808493
O   O84       1.0  0.39580  0.69060  0.32000  1.0000 -0.5119808493
O   O85       1.0  0.92420  0.60420  0.29480  1.0000 -0.5119808493
O   O86       1.0  0.30940  0.62940  0.70520  1.0000 -0.5119808493
O   O87       1.0  0.87940  0.67420  0.82000  1.0000 -0.5119808493
O   O88       1.0  0.85420  0.05940  0.18000  1.0000 -0.5119808493
O   O89       1.0  0.19599  0.95607  0.20566  1.0000 -0.7395084901
O   O90       1.0  0.75041  0.99033  0.79434  1.0000 -0.7395084901
O   O91       1.0  0.24033  0.94599  0.73992  1.0000 -0.7395084901
O   O92       1.0  0.20607  0.50041  0.26008  1.0000 -0.7395084901
O   O93       1.0  0.05401  0.79393  0.29434  1.0000 -0.7395084901
O   O94       1.0  0.49959  0.75967  0.70566  1.0000 -0.7395084901
O   O95       1.0  0.00967  0.80401  0.76008  1.0000 -0.7395084901
O   O96       1.0  0.04393  0.24959  0.23992  1.0000 -0.7395084901
