# DDEC6 charges by PACMAN v1.1 (https://github.com/mtap-research/PACMAN-charge/)
data_2013[Zn][nan]3[FSR]27
_chemical_formula_sum              "Zn3 H24 C38 N12 O8"
_cell_length_a       11.4581
_cell_length_b       11.6819
_cell_length_c       11.8696
_cell_angle_alpha    64.132
_cell_angle_beta     81.202
_cell_angle_gamma    72.663

_symmetry_space_group_name_H-M    "P 1"
_symmetry_Int_Tables_number       1

loop_
  _symmetry_equiv_pos_as_xyz
  'x, y, z'

loop_
  _atom_site_type_symbol
  _atom_site_label
  _atom_site_symmetry_multiplicity
  _atom_site_fract_x
  _atom_site_fract_y
  _atom_site_fract_z
  _atom_site_occupancy
  _atom_site_charge
Zn  Zn1       1.0  0.00000  0.00000  0.50000  1.0000 0.8406551388
Zn  Zn2       1.0  0.00000  0.50000  0.50000  1.0000 0.6589365211
Zn  Zn3       1.0  0.00000  0.00000  0.00000  1.0000 0.6589365211
H   H1        1.0  0.22020  0.00070  0.31200  1.0000 0.1194406789
H   H2        1.0  0.77980  0.99930  0.68800  1.0000 0.1194406789
H   H3        1.0  0.35990  0.59810  0.63260  1.0000 0.1194406789
H   H4        1.0  0.64010  0.40190  0.36740  1.0000 0.1194406789
H   H5        1.0  0.41810  0.88290  0.30040  1.0000 0.1298843977
H   H6        1.0  0.58190  0.11710  0.69960  1.0000 0.1298843977
H   H7        1.0  0.79160  0.62780  0.30020  1.0000 0.1093289685
H   H8        1.0  0.20840  0.37220  0.69980  1.0000 0.1093289685
H   H9        1.0  0.16360  0.72380  0.63380  1.0000 0.1194406789
H   H10       1.0  0.83640  0.27620  0.36620  1.0000 0.1194406789
H   H11       1.0  0.58370  0.72290  0.28520  1.0000 0.1194406789
H   H12       1.0  0.41630  0.27710  0.71480  1.0000 0.1194406789
H   H13       1.0  0.55830  0.55810  0.66090  1.0000 0.1298843977
H   H14       1.0  0.44170  0.44190  0.33910  1.0000 0.1298843977
H   H15       1.0  0.76620  0.47020  0.66370  1.0000 0.1093289685
H   H16       1.0  0.23380  0.52980  0.33630  1.0000 0.1093289685
H   H17       1.0  0.46040  0.80560  0.04860  1.0000 0.1298843977
H   H18       1.0  0.53960  0.19440  0.95140  1.0000 0.1298843977
H   H19       1.0  0.15890  0.18630  0.96840  1.0000 0.1093289685
H   H20       1.0  0.84110  0.81370  0.03160  1.0000 0.1093289685
H   H21       1.0  0.35610  0.19230  0.96530  1.0000 0.1298843977
H   H22       1.0  0.64390  0.80770  0.03470  1.0000 0.1298843977
H   H23       1.0  0.25960  0.81000  0.05430  1.0000 0.1194406789
H   H24       1.0  0.74040  0.19000  0.94570  1.0000 0.1194406789
C   C1        1.0  0.24920  0.91940  0.37770  1.0000 0.0879370595
C   C2        1.0  0.75080  0.08060  0.62230  1.0000 0.0879370595
C   C3        1.0  0.97670  0.77950  0.38050  1.0000 -0.0314339622
C   C4        1.0  0.02330  0.22050  0.61950  1.0000 -0.0314339622
C   C5        1.0  0.96040  0.03320  0.23340  1.0000 0.5757644084
C   C6        1.0  0.03960  0.96680  0.76660  1.0000 0.5757644084
C   C7        1.0  0.54670  0.65630  0.47250  1.0000 0.1003089318
C   C8        1.0  0.45330  0.34370  0.52750  1.0000 0.1003089318
C   C9        1.0  0.33430  0.68040  0.56700  1.0000 -0.199827453
C   C10       1.0  0.66570  0.31960  0.43300  1.0000 -0.199827453
C   C11       1.0  0.36870  0.84940  0.37020  1.0000 -0.199827453
C   C12       1.0  0.63130  0.15060  0.62980  1.0000 -0.199827453
C   C13       1.0  0.74420  0.61580  0.37340  1.0000 0.082538814
C   C14       1.0  0.25580  0.38420  0.62660  1.0000 0.082538814
C   C15       1.0  0.94850  0.75240  0.51610  1.0000 0.5705300477
C   C16       1.0  0.05150  0.24760  0.48390  1.0000 0.5705300477
C   C17       1.0  0.98040  0.88870  0.27020  1.0000 -0.036317056
C   C18       1.0  0.01960  0.11130  0.72980  1.0000 -0.036317056
C   C19       1.0  0.41460  0.72760  0.46860  1.0000 0.1093289685
C   C20       1.0  0.58540  0.27240  0.53140  1.0000 0.1093289685
C   C21       1.0  0.21600  0.75670  0.56690  1.0000 0.1003089318
C   C22       1.0  0.78400  0.24330  0.43310  1.0000 0.1003089318
C   C23       1.0  0.61880  0.67360  0.36340  1.0000 -0.2093373828
C   C24       1.0  0.38120  0.32640  0.63660  1.0000 -0.2093373828
C   C25       1.0  0.60370  0.57610  0.58610  1.0000 -0.1934178614
C   C26       1.0  0.39630  0.42390  0.41390  1.0000 -0.1934178614
C   C27       1.0  0.72910  0.52310  0.58680  1.0000 0.0879370595
C   C28       1.0  0.27090  0.47690  0.41320  1.0000 0.0879370595
C   C29       1.0  0.43440  0.99940  0.00330  1.0000 0.1003089318
C   C30       1.0  0.56560  0.00060  0.99670  1.0000 0.1003089318
C   C31       1.0  0.40080  0.88480  0.03160  1.0000 -0.2093373828
C   C32       1.0  0.59920  0.11520  0.96840  1.0000 -0.2093373828
C   C33       1.0  0.22050  0.10870  0.98480  1.0000 0.0879370595
C   C34       1.0  0.77950  0.89130  0.01520  1.0000 0.0879370595
C   C35       1.0  0.33910  0.11340  0.98170  1.0000 -0.2093373828
C   C36       1.0  0.66090  0.88660  0.01830  1.0000 -0.2093373828
C   C37       1.0  0.27970  0.88830  0.03450  1.0000 0.082538814
C   C38       1.0  0.72030  0.11170  0.96550  1.0000 0.0879370595
N   N1        1.0  0.00320  0.67600  0.34950  1.0000 -0.1934178614
N   N2        1.0  0.99680  0.32400  0.65050  1.0000 -0.1934178614
N   N3        1.0  0.17320  0.87580  0.47490  1.0000 -0.221047053
N   N4        1.0  0.82680  0.12420  0.52510  1.0000 -0.221047053
N   N5        1.0  0.79960  0.54410  0.48280  1.0000 -0.199827453
N   N6        1.0  0.20040  0.45590  0.51720  1.0000 -0.199827453
N   N7        1.0  0.02340  0.71710  0.22650  1.0000 -0.0884943324
N   N8        1.0  0.97660  0.28290  0.77350  1.0000 -0.0884943324
N   N9        1.0  0.00930  0.84630  0.17750  1.0000 -0.1934178614
N   N10       1.0  0.99070  0.15370  0.82250  1.0000 -0.1934178614
N   N11       1.0  0.18870  0.99860  0.01020  1.0000 -0.199827453
N   N12       1.0  0.81130  0.00140  0.98980  1.0000 -0.199827453
O   O1        1.0  0.91640  0.84510  0.55040  1.0000 -0.5313240126
O   O2        1.0  0.08360  0.15490  0.44960  1.0000 -0.5313240126
O   O3        1.0  0.95630  0.63280  0.58850  1.0000 -0.5313240126
O   O4        1.0  0.04370  0.36720  0.41150  1.0000 -0.5313240126
O   O5        1.0  0.95640  0.07780  0.31170  1.0000 -0.5313240126
O   O6        1.0  0.04360  0.92220  0.68830  1.0000 -0.5313240126
O   O7        1.0  0.94790  0.10430  0.11650  1.0000 -0.5313240126
O   O8        1.0  0.05210  0.89570  0.88350  1.0000 -0.5352562758
