# DDEC6 charges by PACMAN v1.1 (https://github.com/mtap-research/PACMAN-charge/)
data_2013[Zn][bcg]3[FSR]1
_chemical_formula_sum              "Zn6 H32 C64 O32"
_cell_length_a       17.3605
_cell_length_b       17.3605
_cell_length_c       18.226
_cell_angle_alpha    86.4669
_cell_angle_beta     93.5331
_cell_angle_gamma    147.325

_symmetry_space_group_name_H-M    "P 1"
_symmetry_Int_Tables_number       1

loop_
  _symmetry_equiv_pos_as_xyz
  'x, y, z'

loop_
  _atom_site_type_symbol
  _atom_site_label
  _atom_site_symmetry_multiplicity
  _atom_site_fract_x
  _atom_site_fract_y
  _atom_site_fract_z
  _atom_site_occupancy
  _atom_site_charge
Zn  Zn1       1.0  0.54609  0.85169  0.51618  1.0000 0.9169084265
Zn  Zn2       1.0  0.85169  0.54609  0.98382  1.0000 0.9169084265
Zn  Zn3       1.0  0.45391  0.14831  0.48382  1.0000 0.9169084265
Zn  Zn4       1.0  0.14831  0.45391  0.01618  1.0000 0.9169084265
Zn  Zn5       1.0  0.50000  0.00000  0.50000  1.0000 1.0130562617
Zn  Zn6       1.0  0.00000  0.50000  0.00000  1.0000 1.0130562617
H   H1        1.0  0.04120  0.46240  0.60890  1.0000 0.1283046945
H   H2        1.0  0.46240  0.04120  0.89110  1.0000 0.1283046945
H   H3        1.0  0.95880  0.53760  0.39110  1.0000 0.1283046945
H   H4        1.0  0.53760  0.95880  0.10890  1.0000 0.1283046945
H   H5        1.0  0.64540  0.14400  0.72020  1.0000 0.1380320114
H   H6        1.0  0.14400  0.64540  0.77980  1.0000 0.1380320114
H   H7        1.0  0.35460  0.85600  0.27980  1.0000 0.1380320114
H   H8        1.0  0.85600  0.35460  0.22020  1.0000 0.1380320114
H   H9        1.0  0.18550  0.68690  0.42150  1.0000 0.1283046945
H   H10       1.0  0.68690  0.18550  0.07850  1.0000 0.1283046945
H   H11       1.0  0.81450  0.31310  0.57850  1.0000 0.1283046945
H   H12       1.0  0.31310  0.81450  0.92150  1.0000 0.1283046945
H   H13       1.0  0.94120  0.19900  0.81700  1.0000 0.1380320114
H   H14       1.0  0.19900  0.94120  0.68300  1.0000 0.1380320114
H   H15       1.0  0.05880  0.80100  0.18300  1.0000 0.1380320114
H   H16       1.0  0.80100  0.05880  0.31700  1.0000 0.1380320114
H   H17       1.0  0.75580  0.24840  0.83200  1.0000 0.1283046945
H   H18       1.0  0.24840  0.75580  0.66800  1.0000 0.1283046945
H   H19       1.0  0.24420  0.75160  0.16800  1.0000 0.1283046945
H   H20       1.0  0.75160  0.24420  0.33200  1.0000 0.1283046945
H   H21       1.0  0.82600  0.08920  0.70590  1.0000 0.1380320114
H   H22       1.0  0.08920  0.82600  0.79410  1.0000 0.1380320114
H   H23       1.0  0.17400  0.91080  0.29410  1.0000 0.1380320114
H   H24       1.0  0.91080  0.17400  0.20590  1.0000 0.1380320114
H   H25       1.0  0.62850  0.67810  0.58160  1.0000 0.1283046945
H   H26       1.0  0.67810  0.62850  0.91840  1.0000 0.1283046945
H   H27       1.0  0.37150  0.32190  0.41840  1.0000 0.1283046945
H   H28       1.0  0.32190  0.37150  0.08160  1.0000 0.1283046945
H   H29       1.0  0.35210  0.43910  0.41380  1.0000 0.1283046945
H   H30       1.0  0.43910  0.35210  0.08620  1.0000 0.1283046945
H   H31       1.0  0.64790  0.56090  0.58620  1.0000 0.1283046945
H   H32       1.0  0.56090  0.64790  0.91380  1.0000 0.1283046945
C   C1        1.0  0.48440  0.65340  0.49040  1.0000 0.5510939791
C   C2        1.0  0.65340  0.48440  0.00960  1.0000 0.5510939791
C   C3        1.0  0.51560  0.34660  0.50960  1.0000 0.5510939791
C   C4        1.0  0.34660  0.51560  0.99040  1.0000 0.5510939791
C   C5        1.0  0.02439  0.47721  0.56490  1.0000 -0.1002802268
C   C6        1.0  0.47721  0.02439  0.93510  1.0000 -0.1002802268
C   C7        1.0  0.97561  0.52279  0.43510  1.0000 -0.1002802268
C   C8        1.0  0.52279  0.97561  0.06490  1.0000 -0.1002802268
C   C9        1.0  0.13665  0.58875  0.51840  1.0000 0.0035435218
C   C10       1.0  0.58875  0.13665  0.98160  1.0000 0.0035435218
C   C11       1.0  0.86335  0.41125  0.48160  1.0000 0.0035435218
C   C12       1.0  0.41125  0.86335  0.01840  1.0000 0.0035435218
C   C13       1.0  0.86114  0.23506  0.83610  1.0000 -0.008327502
C   C14       1.0  0.23506  0.86114  0.66390  1.0000 -0.008327502
C   C15       1.0  0.13886  0.76494  0.16390  1.0000 -0.008327502
C   C16       1.0  0.76494  0.13886  0.33610  1.0000 -0.008327502
C   C17       1.0  0.70453  0.15447  0.73980  1.0000 -0.0904696238
C   C18       1.0  0.15447  0.70453  0.76020  1.0000 -0.0904696238
C   C19       1.0  0.29547  0.84553  0.26020  1.0000 -0.0904696238
C   C20       1.0  0.84553  0.29547  0.23980  1.0000 -0.0904696238
C   C21       1.0  0.72477  0.10563  0.70070  1.0000 -0.0188255406
C   C22       1.0  0.10563  0.72477  0.79930  1.0000 -0.0188255406
C   C23       1.0  0.27523  0.89437  0.29930  1.0000 -0.0188255406
C   C24       1.0  0.89437  0.27523  0.20070  1.0000 -0.0188255406
C   C25       1.0  0.93641  0.30799  0.90790  1.0000 0.6021904014
C   C26       1.0  0.30799  0.93641  0.59210  1.0000 0.6021904014
C   C27       1.0  0.06359  0.69201  0.09210  1.0000 0.6021904014
C   C28       1.0  0.69201  0.06359  0.40790  1.0000 0.6050901844
C   C29       1.0  0.11074  0.61146  0.45290  1.0000 -0.0904696238
C   C30       1.0  0.61146  0.11074  0.04710  1.0000 -0.0904696238
C   C31       1.0  0.88926  0.38854  0.54710  1.0000 -0.0904696238
C   C32       1.0  0.38854  0.88926  0.95290  1.0000 -0.0904696238
C   C33       1.0  0.88099  0.18741  0.79780  1.0000 -0.0904696238
C   C34       1.0  0.18741  0.88099  0.70220  1.0000 -0.0904696238
C   C35       1.0  0.11901  0.81259  0.20220  1.0000 -0.0904696238
C   C36       1.0  0.81259  0.11901  0.29780  1.0000 -0.0904696238
C   C37       1.0  0.65028  0.03552  0.62790  1.0000 0.6021904014
C   C38       1.0  0.03552  0.65028  0.87210  1.0000 0.6021904014
C   C39       1.0  0.34972  0.96448  0.37210  1.0000 0.6021904014
C   C40       1.0  0.96448  0.34972  0.12790  1.0000 0.6021904014
C   C41       1.0  0.77088  0.21732  0.80630  1.0000 -0.0904696238
C   C42       1.0  0.21732  0.77088  0.69370  1.0000 -0.0904696238
C   C43       1.0  0.22912  0.78268  0.19370  1.0000 -0.0904696238
C   C44       1.0  0.78268  0.22912  0.30630  1.0000 -0.0904696238
C   C45       1.0  0.81250  0.12230  0.73080  1.0000 -0.0904696238
C   C46       1.0  0.12230  0.81250  0.76920  1.0000 -0.0904696238
C   C47       1.0  0.18750  0.87770  0.26920  1.0000 -0.0904696238
C   C48       1.0  0.87770  0.18750  0.23080  1.0000 -0.0904696238
C   C49       1.0  0.28383  0.68317  0.53810  1.0000 0.5743670895
C   C50       1.0  0.68317  0.28383  0.96190  1.0000 0.5743670895
C   C51       1.0  0.71617  0.31683  0.46190  1.0000 0.5743670895
C   C52       1.0  0.31683  0.71617  0.03810  1.0000 0.5743670895
C   C53       1.0  0.48982  0.57218  0.49560  1.0000 -0.0188255406
C   C54       1.0  0.57218  0.48982  0.00440  1.0000 -0.025853831
C   C55       1.0  0.51018  0.42782  0.50440  1.0000 -0.0188255406
C   C56       1.0  0.42782  0.51018  0.99560  1.0000 -0.0188255406
C   C57       1.0  0.57678  0.60662  0.54820  1.0000 -0.0721948889
C   C58       1.0  0.60662  0.57678  0.95180  1.0000 -0.0721948889
C   C59       1.0  0.42322  0.39338  0.45180  1.0000 -0.0721948889
C   C60       1.0  0.39338  0.42322  0.04820  1.0000 -0.0721948889
C   C61       1.0  0.41258  0.46502  0.44850  1.0000 -0.084010163
C   C62       1.0  0.46502  0.41258  0.05150  1.0000 -0.084010163
C   C63       1.0  0.58742  0.53498  0.55150  1.0000 -0.084010163
C   C64       1.0  0.53498  0.58742  0.94850  1.0000 -0.084010163
O   O1        1.0  0.65909  0.97811  0.60045  1.0000 -0.5185951457
O   O2        1.0  0.97811  0.65909  0.89955  1.0000 -0.5185951457
O   O3        1.0  0.34091  0.02189  0.39955  1.0000 -0.5185951457
O   O4        1.0  0.02189  0.34091  0.10045  1.0000 -0.5185951457
O   O5        1.0  0.58326  0.03634  0.60088  1.0000 -0.5437202023
O   O6        1.0  0.03634  0.58326  0.89912  1.0000 -0.5437202023
O   O7        1.0  0.41674  0.96366  0.39912  1.0000 -0.5437202023
O   O8        1.0  0.96366  0.41674  0.10088  1.0000 -0.5437202023
O   O9        1.0  0.90041  0.33239  0.94483  1.0000 -0.5490072087
O   O10       1.0  0.33239  0.90041  0.55517  1.0000 -0.5490072087
O   O11       1.0  0.09959  0.66761  0.05517  1.0000 -0.5490072087
O   O12       1.0  0.66761  0.09959  0.44483  1.0000 -0.5490072087
O   O13       1.0  0.30370  0.65410  0.59180  1.0000 -0.4823336841
O   O14       1.0  0.65410  0.30370  0.90820  1.0000 -0.4823336841
O   O15       1.0  0.69630  0.34590  0.40820  1.0000 -0.4823336841
O   O16       1.0  0.34590  0.69630  0.09180  1.0000 -0.4823336841
O   O17       1.0  0.03307  0.34133  0.92598  1.0000 -0.5036018804
O   O18       1.0  0.34133  0.03307  0.57402  1.0000 -0.5036018804
O   O19       1.0  0.96693  0.65867  0.07402  1.0000 -0.5036018804
O   O20       1.0  0.65867  0.96693  0.42598  1.0000 -0.5036018804
O   O21       1.0  0.38607  0.79033  0.49436  1.0000 -0.578243436
O   O22       1.0  0.79033  0.38607  0.00564  1.0000 -0.578243436
O   O23       1.0  0.61393  0.20967  0.50564  1.0000 -0.578243436
O   O24       1.0  0.20967  0.61393  0.99436  1.0000 -0.578243436
O   O25       1.0  0.55444  0.74716  0.53700  1.0000 -0.4608463884
O   O26       1.0  0.74716  0.55444  0.96300  1.0000 -0.4608463884
O   O27       1.0  0.44556  0.25284  0.46300  1.0000 -0.4608463884
O   O28       1.0  0.25284  0.44556  0.03700  1.0000 -0.4608463884
O   O29       1.0  0.41170  0.62630  0.44190  1.0000 -0.4202494041
O   O30       1.0  0.62630  0.41170  0.05810  1.0000 -0.4202494041
O   O31       1.0  0.58830  0.37370  0.55810  1.0000 -0.4202494041
O   O32       1.0  0.37370  0.58830  0.94190  1.0000 -0.4202494041
