# DDEC6 charges by PACMAN v1.1 (https://github.com/mtap-research/PACMAN-charge/)
data_2013[Zn][apo]3[FSR]1
_chemical_formula_sum              "Zn8 H24 C64 O40"
_cell_length_a       14.555
_cell_length_b       12.9256
_cell_length_c       16.784
_cell_angle_alpha    90
_cell_angle_beta     108.565
_cell_angle_gamma    90

_symmetry_space_group_name_H-M    "P 1"
_symmetry_Int_Tables_number       1

loop_
  _symmetry_equiv_pos_as_xyz
  'x, y, z'

loop_
  _atom_site_type_symbol
  _atom_site_label
  _atom_site_symmetry_multiplicity
  _atom_site_fract_x
  _atom_site_fract_y
  _atom_site_fract_z
  _atom_site_occupancy
  _atom_site_charge
Zn  Zn1       1.0  0.81972  0.51378  0.81790  1.0000 0.9503309932
Zn  Zn2       1.0  0.68028  0.01378  0.18210  1.0000 0.9503309932
Zn  Zn3       1.0  0.18028  0.48622  0.18210  1.0000 0.9503309932
Zn  Zn4       1.0  0.31972  0.98622  0.81790  1.0000 0.9503309932
Zn  Zn5       1.0  0.09925  0.44707  0.34551  1.0000 0.9503309932
Zn  Zn6       1.0  0.40075  0.94707  0.65449  1.0000 0.9503309932
Zn  Zn7       1.0  0.90075  0.55293  0.65449  1.0000 0.9503309932
Zn  Zn8       1.0  0.59925  0.05293  0.34551  1.0000 0.9503309932
H   H1        1.0  0.71670  0.33080  0.50150  1.0000 0.1403990972
H   H2        1.0  0.78330  0.83080  0.49850  1.0000 0.1403990972
H   H3        1.0  0.28330  0.66920  0.49850  1.0000 0.1403990972
H   H4        1.0  0.21670  0.16920  0.50150  1.0000 0.1403990972
H   H5        1.0  0.56440  0.07460  0.50910  1.0000 0.1403990972
H   H6        1.0  0.93560  0.57460  0.49090  1.0000 0.1403990972
H   H7        1.0  0.43560  0.92540  0.49090  1.0000 0.1403990972
H   H8        1.0  0.06440  0.42540  0.50910  1.0000 0.1403990972
H   H9        1.0  0.64820  0.26190  0.71040  1.0000 0.1403990972
H   H10       1.0  0.85180  0.76190  0.28960  1.0000 0.1403990972
H   H11       1.0  0.35180  0.73810  0.28960  1.0000 0.1403990972
H   H12       1.0  0.14820  0.23810  0.71040  1.0000 0.1403990972
H   H13       1.0  0.78010  0.23750  0.04280  1.0000 0.1294892523
H   H14       1.0  0.71990  0.73750  0.95720  1.0000 0.1294892523
H   H15       1.0  0.21990  0.76250  0.95720  1.0000 0.1294892523
H   H16       1.0  0.28010  0.26250  0.04280  1.0000 0.1294892523
H   H17       1.0  0.98430  0.27280  0.26760  1.0000 0.147537831
H   H18       1.0  0.51570  0.77280  0.73240  1.0000 0.147537831
H   H19       1.0  0.01570  0.72720  0.73240  1.0000 0.147537831
H   H20       1.0  0.48430  0.22720  0.26760  1.0000 0.1403990972
H   H21       1.0  0.99640  0.44050  0.06920  1.0000 0.147537831
H   H22       1.0  0.50360  0.94050  0.93080  1.0000 0.147537831
H   H23       1.0  0.00360  0.55950  0.93080  1.0000 0.147537831
H   H24       1.0  0.49640  0.05950  0.06920  1.0000 0.147537831
C   C1        1.0  0.75060  0.40050  0.65710  1.0000 0.6043448654
C   C2        1.0  0.74940  0.90050  0.34290  1.0000 0.6043448654
C   C3        1.0  0.24940  0.59950  0.34290  1.0000 0.6043448654
C   C4        1.0  0.25060  0.09950  0.65710  1.0000 0.6043448654
C   C5        1.0  0.69410  0.30920  0.61350  1.0000 -0.0124877481
C   C6        1.0  0.80590  0.80920  0.38650  1.0000 -0.0124877481
C   C7        1.0  0.30590  0.69080  0.38650  1.0000 -0.0124877481
C   C8        1.0  0.19410  0.19080  0.61350  1.0000 -0.0124877481
C   C9        1.0  0.68860  0.28600  0.53050  1.0000 -0.1728769336
C   C10       1.0  0.81140  0.78600  0.46950  1.0000 -0.1728769336
C   C11       1.0  0.31140  0.71400  0.46950  1.0000 -0.1728769336
C   C12       1.0  0.18860  0.21400  0.53050  1.0000 -0.1728769336
C   C13       1.0  0.64170  0.19680  0.49050  1.0000 0.3224616107
C   C14       1.0  0.85830  0.69680  0.50950  1.0000 0.3224616107
C   C15       1.0  0.35830  0.80320  0.50950  1.0000 0.3224616107
C   C16       1.0  0.14170  0.30320  0.49050  1.0000 0.3224616107
C   C17       1.0  0.59660  0.13400  0.53470  1.0000 -0.1814032718
C   C18       1.0  0.90340  0.63400  0.46530  1.0000 -0.1814032718
C   C19       1.0  0.40340  0.86600  0.46530  1.0000 -0.1814032718
C   C20       1.0  0.09660  0.36600  0.53470  1.0000 -0.1814032718
C   C21       1.0  0.59830  0.15740  0.61540  1.0000 0.0108799507
C   C22       1.0  0.90170  0.65740  0.38460  1.0000 0.0108799507
C   C23       1.0  0.40170  0.84260  0.38460  1.0000 0.0108799507
C   C24       1.0  0.09830  0.34260  0.61540  1.0000 0.0108799507
C   C25       1.0  0.54130  0.09430  0.65930  1.0000 0.5504934861
C   C26       1.0  0.95870  0.59430  0.34070  1.0000 0.5504934861
C   C27       1.0  0.45870  0.90570  0.34070  1.0000 0.5504934861
C   C28       1.0  0.04130  0.40570  0.65930  1.0000 0.5504934861
C   C29       1.0  0.64710  0.24570  0.65610  1.0000 -0.0799244195
C   C30       1.0  0.85290  0.74570  0.34390  1.0000 -0.0799244195
C   C31       1.0  0.35290  0.75430  0.34390  1.0000 -0.0799244195
C   C32       1.0  0.14710  0.25430  0.65610  1.0000 -0.0799244195
C   C33       1.0  0.83570  0.37820  0.95260  1.0000 0.5559640136
C   C34       1.0  0.66430  0.87820  0.04740  1.0000 0.5559640136
C   C35       1.0  0.16430  0.62180  0.04740  1.0000 0.5504934861
C   C36       1.0  0.33570  0.12180  0.95260  1.0000 0.5559640136
C   C37       1.0  0.88250  0.34430  0.04230  1.0000 0.0108799507
C   C38       1.0  0.61750  0.84430  0.95770  1.0000 0.0108799507
C   C39       1.0  0.11750  0.65570  0.95770  1.0000 0.0108799507
C   C40       1.0  0.38250  0.15570  0.04230  1.0000 0.0108799507
C   C41       1.0  0.83630  0.26940  0.07640  1.0000 -0.0799244195
C   C42       1.0  0.66370  0.76940  0.92360  1.0000 -0.0799244195
C   C43       1.0  0.16370  0.73060  0.92360  1.0000 -0.0799244195
C   C44       1.0  0.33630  0.23060  0.07640  1.0000 -0.0799244195
C   C45       1.0  0.87490  0.24320  0.16050  1.0000 0.0160218399
C   C46       1.0  0.62510  0.74320  0.83950  1.0000 0.0160218399
C   C47       1.0  0.12510  0.75680  0.83950  1.0000 0.0160218399
C   C48       1.0  0.37490  0.25680  0.16050  1.0000 0.0160218399
C   C49       1.0  0.82440  0.16230  0.19660  1.0000 0.5504934861
C   C50       1.0  0.67560  0.66230  0.80340  1.0000 0.5504934861
C   C51       1.0  0.17560  0.83770  0.80340  1.0000 0.5504934861
C   C52       1.0  0.32440  0.33770  0.19660  1.0000 0.5504934861
C   C53       1.0  0.95880  0.29110  0.21120  1.0000 -0.1918938402
C   C54       1.0  0.54120  0.79110  0.78880  1.0000 -0.1918938402
C   C55       1.0  0.04120  0.70890  0.78880  1.0000 -0.1918938402
C   C56       1.0  0.45880  0.20890  0.21120  1.0000 -0.1918938402
C   C57       1.0  0.00470  0.36630  0.17770  1.0000 0.3224616107
C   C58       1.0  0.49530  0.86630  0.82230  1.0000 0.3224616107
C   C59       1.0  0.99530  0.63370  0.82230  1.0000 0.3224616107
C   C60       1.0  0.50470  0.13370  0.17770  1.0000 0.3224616107
C   C61       1.0  0.96570  0.39140  0.09240  1.0000 -0.1814032718
C   C62       1.0  0.53430  0.89140  0.90760  1.0000 -0.1814032718
C   C63       1.0  0.03430  0.60860  0.90760  1.0000 -0.1814032718
C   C64       1.0  0.46570  0.10860  0.09240  1.0000 -0.1814032718
O   O1        1.0  0.78900  0.45780  0.61600  1.0000 -0.5286875758
O   O2        1.0  0.71100  0.95780  0.38400  1.0000 -0.5286875758
O   O3        1.0  0.21100  0.54220  0.38400  1.0000 -0.5286875758
O   O4        1.0  0.28900  0.04220  0.61600  1.0000 -0.5286875758
O   O5        1.0  0.75530  0.41410  0.73180  1.0000 -0.4782153647
O   O6        1.0  0.74470  0.91410  0.26820  1.0000 -0.4782153647
O   O7        1.0  0.24470  0.58590  0.26820  1.0000 -0.4782153647
O   O8        1.0  0.25530  0.08590  0.73180  1.0000 -0.4782153647
O   O9        1.0  0.64160  0.17710  0.41190  1.0000 -0.4626944456
O   O10       1.0  0.85840  0.67710  0.58810  1.0000 -0.4626944456
O   O11       1.0  0.35840  0.82290  0.58810  1.0000 -0.4657243583
O   O12       1.0  0.14160  0.32290  0.41190  1.0000 -0.4626944456
O   O13       1.0  0.50410  0.01180  0.62220  1.0000 -0.523451129
O   O14       1.0  0.99590  0.51180  0.37780  1.0000 -0.523451129
O   O15       1.0  0.49590  0.98820  0.37780  1.0000 -0.523451129
O   O16       1.0  0.00410  0.48820  0.62220  1.0000 -0.523451129
O   O17       1.0  0.53220  0.12390  0.72570  1.0000 -0.419445673
O   O18       1.0  0.96780  0.62390  0.27430  1.0000 -0.419445673
O   O19       1.0  0.46780  0.87610  0.27430  1.0000 -0.419445673
O   O20       1.0  0.03220  0.37610  0.72570  1.0000 -0.419445673
O   O21       1.0  0.88290  0.44200  0.92360  1.0000 -0.497513296
O   O22       1.0  0.61710  0.94200  0.07640  1.0000 -0.497513296
O   O23       1.0  0.11710  0.55800  0.07640  1.0000 -0.497513296
O   O24       1.0  0.38290  0.05800  0.92360  1.0000 -0.497513296
O   O25       1.0  0.75420  0.34640  0.91150  1.0000 -0.3998888451
O   O26       1.0  0.74580  0.84640  0.08850  1.0000 -0.3998888451
O   O27       1.0  0.24580  0.65360  0.08850  1.0000 -0.3998888451
O   O28       1.0  0.25420  0.15360  0.91150  1.0000 -0.3998888451
O   O29       1.0  0.75300  0.11770  0.14500  1.0000 -0.4782153647
O   O30       1.0  0.74700  0.61770  0.85500  1.0000 -0.4782153647
O   O31       1.0  0.24700  0.88230  0.85500  1.0000 -0.4782153647
O   O32       1.0  0.25300  0.38230  0.14500  1.0000 -0.4782153647
O   O33       1.0  0.85420  0.14050  0.27120  1.0000 -0.4130910206
O   O34       1.0  0.64580  0.64050  0.72880  1.0000 -0.4130910206
O   O35       1.0  0.14580  0.85950  0.72880  1.0000 -0.4130910206
O   O36       1.0  0.35420  0.35950  0.27120  1.0000 -0.4130910206
O   O37       1.0  0.08580  0.41520  0.22750  1.0000 -0.5858368072
O   O38       1.0  0.41420  0.91520  0.77250  1.0000 -0.5849603805
O   O39       1.0  0.91420  0.58480  0.77250  1.0000 -0.5858368072
O   O40       1.0  0.58580  0.08480  0.22750  1.0000 -0.5849603805
