# DDEC6 charges by PACMAN v1.1 (https://github.com/mtap-research/PACMAN-charge/)
data_2013[CdSi][pcu]3[FSR]2
_chemical_formula_sum              "Cd2 Si2 H56 C40 N16 F12"
_cell_length_a       12.895
_cell_length_b       12.895
_cell_length_c       15.893
_cell_angle_alpha    52.9112
_cell_angle_beta     127.089
_cell_angle_gamma    125.097

_symmetry_space_group_name_H-M    "P 1"
_symmetry_Int_Tables_number       1

loop_
  _symmetry_equiv_pos_as_xyz
  'x, y, z'

loop_
  _atom_site_type_symbol
  _atom_site_label
  _atom_site_symmetry_multiplicity
  _atom_site_fract_x
  _atom_site_fract_y
  _atom_site_fract_z
  _atom_site_occupancy
  _atom_site_charge
Cd  Cd1       1.0  0.50000  0.50000  0.50000  1.0000 0.8642094714
Cd  Cd2       1.0  0.50000  0.50000  0.00000  1.0000 0.865962742
Si  Si1       1.0  0.52761  0.52761  0.75000  1.0000 1.6865542514
Si  Si2       1.0  0.47239  0.47239  0.25000  1.0000 1.6865542514
H   H1        1.0  0.24250  0.34130  0.32190  1.0000 0.2958057505
H   H2        1.0  0.34130  0.24250  0.17810  1.0000 0.2958057505
H   H3        1.0  0.75750  0.65870  0.67810  1.0000 0.2958057505
H   H4        1.0  0.65870  0.75750  0.82190  1.0000 0.2958057505
H   H5        1.0  0.65900  0.38200  0.26830  1.0000 0.2922271473
H   H6        1.0  0.38200  0.65900  0.23170  1.0000 0.2922271473
H   H7        1.0  0.34100  0.61800  0.73170  1.0000 0.2922271473
H   H8        1.0  0.61800  0.34100  0.76830  1.0000 0.2922271473
H   H9        1.0  0.27780  0.60460  0.44670  1.0000 0.1495834236
H   H10       1.0  0.60460  0.27780  0.05330  1.0000 0.1495834236
H   H11       1.0  0.72220  0.39540  0.55330  1.0000 0.1495834236
H   H12       1.0  0.39540  0.72220  0.94670  1.0000 0.1495834236
H   H13       1.0  0.11810  0.55470  0.41370  1.0000 0.1442852897
H   H14       1.0  0.55470  0.11810  0.08630  1.0000 0.1442852897
H   H15       1.0  0.88190  0.44530  0.58630  1.0000 0.1442852897
H   H16       1.0  0.44530  0.88190  0.91370  1.0000 0.1442852897
H   H17       1.0  0.20760  0.46140  0.52810  1.0000 0.1668066216
H   H18       1.0  0.46140  0.20760  0.97190  1.0000 0.1668066216
H   H19       1.0  0.79240  0.53860  0.47190  1.0000 0.1668066216
H   H20       1.0  0.53860  0.79240  0.02810  1.0000 0.1668066216
H   H21       1.0  0.00330  0.22630  0.20110  1.0000 0.1583542301
H   H22       1.0  0.22630  0.00330  0.29890  1.0000 0.1583542301
H   H23       1.0  0.99670  0.77370  0.79890  1.0000 0.1583542301
H   H24       1.0  0.77370  0.99670  0.70110  1.0000 0.1583542301
H   H25       1.0  0.88340  0.27180  0.15920  1.0000 0.1583542301
H   H26       1.0  0.27180  0.88340  0.34080  1.0000 0.1583542301
H   H27       1.0  0.11660  0.72820  0.84080  1.0000 0.1583542301
H   H28       1.0  0.72820  0.11660  0.65920  1.0000 0.1583542301
H   H29       1.0  0.99470  0.37390  0.10430  1.0000 0.1583542301
H   H30       1.0  0.37390  0.99470  0.39570  1.0000 0.1583542301
H   H31       1.0  0.00530  0.62610  0.89570  1.0000 0.1583542301
H   H32       1.0  0.62610  0.00530  0.60430  1.0000 0.1583542301
H   H33       1.0  0.85000  0.67320  0.00110  1.0000 0.1583542301
H   H34       1.0  0.67320  0.85000  0.49890  1.0000 0.1583542301
H   H35       1.0  0.15000  0.32680  0.99890  1.0000 0.1583542301
H   H36       1.0  0.32680  0.15000  0.50110  1.0000 0.1583542301
H   H37       1.0  0.96190  0.60450  0.06560  1.0000 0.1495834236
H   H38       1.0  0.60450  0.96190  0.43440  1.0000 0.1495834236
H   H39       1.0  0.03810  0.39550  0.93440  1.0000 0.1495834236
H   H40       1.0  0.39550  0.03810  0.56560  1.0000 0.1495834236
H   H41       1.0  0.80820  0.53800  0.99100  1.0000 0.1583542301
H   H42       1.0  0.53800  0.80820  0.50900  1.0000 0.1583542301
H   H43       1.0  0.19180  0.46200  0.00900  1.0000 0.1583542301
H   H44       1.0  0.46200  0.19180  0.49100  1.0000 0.1583542301
H   H45       1.0  0.77180  0.22400  0.45310  1.0000 0.1495834236
H   H46       1.0  0.22400  0.77180  0.04690  1.0000 0.1495834236
H   H47       1.0  0.22820  0.77600  0.54690  1.0000 0.1495834236
H   H48       1.0  0.77600  0.22820  0.95310  1.0000 0.1495834236
H   H49       1.0  0.90110  0.21450  0.47050  1.0000 0.1583542301
H   H50       1.0  0.21450  0.90110  0.02950  1.0000 0.1583542301
H   H51       1.0  0.09890  0.78550  0.52950  1.0000 0.1583542301
H   H52       1.0  0.78550  0.09890  0.97050  1.0000 0.1583542301
H   H53       1.0  0.91960  0.33320  0.48850  1.0000 0.1583542301
H   H54       1.0  0.33320  0.91960  0.01150  1.0000 0.1583542301
H   H55       1.0  0.08040  0.66680  0.51150  1.0000 0.1583542301
H   H56       1.0  0.66680  0.08040  0.98850  1.0000 0.1583542301
C   C1        1.0  0.19458  0.52502  0.44898  1.0000 -0.4975595909
C   C2        1.0  0.52502  0.19458  0.05102  1.0000 -0.4975595909
C   C3        1.0  0.80542  0.47498  0.55102  1.0000 -0.4975595909
C   C4        1.0  0.47498  0.80542  0.94898  1.0000 -0.4975595909
C   C5        1.0  0.16428  0.45494  0.38510  1.0000 0.213608293
C   C6        1.0  0.45494  0.16428  0.11490  1.0000 0.213608293
C   C7        1.0  0.83572  0.54506  0.61490  1.0000 0.213608293
C   C8        1.0  0.54506  0.83572  0.88510  1.0000 0.213608293
C   C9        1.0  0.03937  0.41409  0.29930  1.0000 -0.1241834553
C   C10       1.0  0.41409  0.03937  0.20070  1.0000 -0.1241834553
C   C11       1.0  0.96063  0.58591  0.70070  1.0000 -0.1241834553
C   C12       1.0  0.58591  0.96063  0.79930  1.0000 -0.1255209389
C   C13       1.0  0.06783  0.36117  0.26387  1.0000 0.1943539885
C   C14       1.0  0.36117  0.06783  0.23613  1.0000 0.1943539885
C   C15       1.0  0.93217  0.63883  0.73613  1.0000 0.1943539885
C   C16       1.0  0.63883  0.93217  0.76387  1.0000 0.1943539885
C   C17       1.0  0.97959  0.30321  0.17426  1.0000 -0.48292304
C   C18       1.0  0.30321  0.97959  0.32574  1.0000 -0.48292304
C   C19       1.0  0.02041  0.69679  0.82574  1.0000 -0.48292304
C   C20       1.0  0.69679  0.02041  0.67426  1.0000 -0.48292304
C   C21       1.0  0.86586  0.58654  0.04154  1.0000 -0.4975595909
C   C22       1.0  0.58654  0.86586  0.45846  1.0000 -0.494460197
C   C23       1.0  0.13414  0.41346  0.95846  1.0000 -0.494460197
C   C24       1.0  0.41346  0.13414  0.54154  1.0000 -0.494460197
C   C25       1.0  0.83087  0.50001  0.14466  1.0000 0.2198339087
C   C26       1.0  0.50001  0.83087  0.35534  1.0000 0.2198339087
C   C27       1.0  0.16913  0.49999  0.85534  1.0000 0.2198339087
C   C28       1.0  0.49999  0.16913  0.64466  1.0000 0.2198339087
C   C29       1.0  0.90752  0.42560  0.25673  1.0000 -0.1255209389
C   C30       1.0  0.42560  0.90752  0.24327  1.0000 -0.1241834553
C   C31       1.0  0.09248  0.57440  0.74327  1.0000 -0.1255209389
C   C32       1.0  0.57440  0.09248  0.75673  1.0000 -0.1255209389
C   C33       1.0  0.83357  0.36743  0.32026  1.0000 0.2013609094
C   C34       1.0  0.36743  0.83357  0.17974  1.0000 0.2013609094
C   C35       1.0  0.16643  0.63257  0.67974  1.0000 0.2013609094
C   C36       1.0  0.63257  0.16643  0.82026  1.0000 0.2013609094
C   C37       1.0  0.85872  0.27688  0.44389  1.0000 -0.48292304
C   C38       1.0  0.27688  0.85872  0.05611  1.0000 -0.48292304
C   C39       1.0  0.14128  0.72312  0.55611  1.0000 -0.48292304
C   C40       1.0  0.72312  0.14128  0.94389  1.0000 -0.48292304
N   N1        1.0  0.26256  0.42704  0.40255  1.0000 -0.2685360442
N   N2        1.0  0.42704  0.26256  0.09745  1.0000 -0.2685360442
N   N3        1.0  0.73744  0.57296  0.59745  1.0000 -0.2685360442
N   N4        1.0  0.57296  0.73744  0.90255  1.0000 -0.2685360442
N   N5        1.0  0.20084  0.36952  0.32779  1.0000 -0.1374743804
N   N6        1.0  0.36952  0.20084  0.17221  1.0000 -0.1374743804
N   N7        1.0  0.79916  0.63048  0.67221  1.0000 -0.1374743804
N   N8        1.0  0.63048  0.79916  0.82779  1.0000 -0.1374743804
N   N9        1.0  0.71692  0.48756  0.13961  1.0000 -0.2685360442
N   N10       1.0  0.48756  0.71692  0.36039  1.0000 -0.2685360442
N   N11       1.0  0.28308  0.51244  0.86039  1.0000 -0.2685360442
N   N12       1.0  0.51244  0.28308  0.63961  1.0000 -0.2685360442
N   N13       1.0  0.72162  0.40622  0.24797  1.0000 -0.1374743804
N   N14       1.0  0.40622  0.72162  0.25203  1.0000 -0.1374743804
N   N15       1.0  0.27838  0.59378  0.75203  1.0000 -0.1374743804
N   N16       1.0  0.59378  0.27838  0.74797  1.0000 -0.1374743804
F   F1        1.0  0.51767  0.54147  0.63181  1.0000 -0.5090954917
F   F2        1.0  0.54147  0.51767  0.86819  1.0000 -0.5090954917
F   F3        1.0  0.48233  0.45853  0.36819  1.0000 -0.5090954917
F   F4        1.0  0.45853  0.48233  0.13181  1.0000 -0.5090954917
F   F5        1.0  0.43215  0.63031  0.66570  1.0000 -0.5090954917
F   F6        1.0  0.63031  0.43215  0.83430  1.0000 -0.5090954917
F   F7        1.0  0.56785  0.36969  0.33430  1.0000 -0.5090954917
F   F8        1.0  0.36969  0.56785  0.16570  1.0000 -0.5090954917
F   F9        1.0  0.67005  0.67005  0.75000  1.0000 -0.5217537302
F   F10       1.0  0.32995  0.32995  0.25000  1.0000 -0.5258389133
F   F11       1.0  0.38906  0.38906  0.75000  1.0000 -0.5217537302
F   F12       1.0  0.61094  0.61094  0.25000  1.0000 -0.5217537302
