# DDEC6 charges by PACMAN v1.1 (https://github.com/mtap-research/PACMAN-charge/)
data_2013[Ce][nan]3[FSR]4
_chemical_formula_sum              "Ce4 H24 C16 S2 O36"
_cell_length_a       6.155
_cell_length_b       7.6486
_cell_length_c       22.019
_cell_angle_alpha    90
_cell_angle_beta     90
_cell_angle_gamma    90

_symmetry_space_group_name_H-M    "P 1"
_symmetry_Int_Tables_number       1

loop_
  _symmetry_equiv_pos_as_xyz
  'x, y, z'

loop_
  _atom_site_type_symbol
  _atom_site_label
  _atom_site_symmetry_multiplicity
  _atom_site_fract_x
  _atom_site_fract_y
  _atom_site_fract_z
  _atom_site_occupancy
  _atom_site_charge
Ce  Ce1       1.0  0.56072  0.47938  0.85422  1.0000 1.9025181146
Ce  Ce2       1.0  0.56072  0.52062  0.14578  1.0000 1.9025181146
Ce  Ce3       1.0  0.43928  0.02062  0.35422  1.0000 1.9025181146
Ce  Ce4       1.0  0.43928  0.97938  0.64578  1.0000 1.9025181146
H   H1        1.0  0.47120  0.85920  0.88530  1.0000 0.3766500564
H   H2        1.0  0.47120  0.14080  0.11470  1.0000 0.3766500564
H   H3        1.0  0.52880  0.64080  0.38530  1.0000 0.3766500564
H   H4        1.0  0.52880  0.35920  0.61470  1.0000 0.3766500564
H   H5        1.0  0.30540  0.76350  0.74360  1.0000 0.3362507136
H   H6        1.0  0.30540  0.23650  0.25640  1.0000 0.3362507136
H   H7        1.0  0.69460  0.73650  0.24360  1.0000 0.3362507136
H   H8        1.0  0.69460  0.26350  0.75640  1.0000 0.3362507136
H   H9        1.0  0.14240  0.90820  0.88260  1.0000 0.1382142739
H   H10       1.0  0.14240  0.09180  0.11740  1.0000 0.1382142739
H   H11       1.0  0.85760  0.59180  0.38260  1.0000 0.1382142739
H   H12       1.0  0.85760  0.40820  0.61740  1.0000 0.1382142739
H   H13       1.0  0.04810  0.00350  0.78810  1.0000 0.1476949067
H   H14       1.0  0.04810  0.99650  0.21190  1.0000 0.1476949067
H   H15       1.0  0.95190  0.49650  0.28810  1.0000 0.1476949067
H   H16       1.0  0.95190  0.50350  0.71190  1.0000 0.1476949067
H   H17       1.0  0.89850  0.26910  0.92300  1.0000 0.3580397875
H   H18       1.0  0.89850  0.73090  0.07700  1.0000 0.3580397875
H   H19       1.0  0.10150  0.23090  0.42300  1.0000 0.3580397875
H   H20       1.0  0.10150  0.76910  0.57700  1.0000 0.3580397875
H   H21       1.0  0.95380  0.33690  0.86870  1.0000 0.3349738331
H   H22       1.0  0.95380  0.66310  0.13130  1.0000 0.3362507136
H   H23       1.0  0.04620  0.16310  0.36870  1.0000 0.3349738331
H   H24       1.0  0.04620  0.83690  0.63130  1.0000 0.3362507136
C   C1        1.0  0.06530  0.67010  0.84335  1.0000 0.6133565516
C   C2        1.0  0.06530  0.32990  0.15665  1.0000 0.6133565516
C   C3        1.0  0.93470  0.82990  0.34335  1.0000 0.6133565516
C   C4        1.0  0.93470  0.17010  0.65665  1.0000 0.6133565516
C   C5        1.0  0.19910  0.83790  0.84894  1.0000 0.0023480688
C   C6        1.0  0.19910  0.16210  0.15106  1.0000 0.0023480688
C   C7        1.0  0.80090  0.66210  0.34894  1.0000 0.0023480688
C   C8        1.0  0.80090  0.33790  0.65106  1.0000 0.0023480688
C   C9        1.0  0.18980  0.94540  0.79023  1.0000 0.0023480688
C   C10       1.0  0.18980  0.05460  0.20977  1.0000 0.0023480688
C   C11       1.0  0.81020  0.55460  0.29023  1.0000 0.0023480688
C   C12       1.0  0.81020  0.44540  0.70977  1.0000 0.0023480688
C   C13       1.0  0.36780  0.08670  0.79219  1.0000 0.6032630117
C   C14       1.0  0.36780  0.91330  0.20781  1.0000 0.6032630117
C   C15       1.0  0.63220  0.41330  0.29219  1.0000 0.6032630117
C   C16       1.0  0.63220  0.58670  0.70781  1.0000 0.6032630117
S   S1        1.0  0.55320  0.50000  0.00000  1.0000 1.4034726829
S   S2        1.0  0.44680  0.00000  0.50000  1.0000 1.4034726829
O   O1        1.0  0.41850  0.38470  0.96179  1.0000 -0.6933786659
O   O2        1.0  0.41850  0.61530  0.03821  1.0000 -0.6933786659
O   O3        1.0  0.58150  0.11530  0.46179  1.0000 -0.6933786659
O   O4        1.0  0.58150  0.88470  0.53821  1.0000 -0.6933786659
O   O5        1.0  0.68700  0.60130  0.95719  1.0000 -0.7258724659
O   O6        1.0  0.68700  0.39870  0.04281  1.0000 -0.7258724659
O   O7        1.0  0.31300  0.89870  0.45719  1.0000 -0.7258724659
O   O8        1.0  0.31300  0.10130  0.54281  1.0000 -0.7258724659
O   O9        1.0  0.16490  0.52740  0.84580  1.0000 -0.5881806303
O   O10       1.0  0.16490  0.47260  0.15420  1.0000 -0.5881806303
O   O11       1.0  0.83510  0.97260  0.34580  1.0000 -0.5881806303
O   O12       1.0  0.83510  0.02740  0.65420  1.0000 -0.5881806303
O   O13       1.0  0.86320  0.68610  0.83676  1.0000 -0.6052913456
O   O14       1.0  0.86320  0.31390  0.16324  1.0000 -0.6052913456
O   O15       1.0  0.13680  0.81390  0.33676  1.0000 -0.6052913456
O   O16       1.0  0.13680  0.18610  0.66324  1.0000 -0.6052913456
O   O17       1.0  0.41660  0.78780  0.86209  1.0000 -0.5073472052
O   O18       1.0  0.41660  0.21220  0.13791  1.0000 -0.5073472052
O   O19       1.0  0.58340  0.71220  0.36209  1.0000 -0.5073472052
O   O20       1.0  0.58340  0.28780  0.63791  1.0000 -0.5073472052
O   O21       1.0  0.21730  0.84160  0.73682  1.0000 -0.5166534572
O   O22       1.0  0.21730  0.15840  0.26318  1.0000 -0.5166534572
O   O23       1.0  0.78270  0.65840  0.23682  1.0000 -0.5166534572
O   O24       1.0  0.78270  0.34160  0.76318  1.0000 -0.5166534572
O   O25       1.0  0.36780  0.19270  0.83551  1.0000 -0.5881806303
O   O26       1.0  0.36780  0.80730  0.16449  1.0000 -0.5881806303
O   O27       1.0  0.63220  0.30730  0.33551  1.0000 -0.5881806303
O   O28       1.0  0.63220  0.69270  0.66449  1.0000 -0.5881806303
O   O29       1.0  0.50630  0.08600  0.75043  1.0000 -0.5881806303
O   O30       1.0  0.50630  0.91400  0.24957  1.0000 -0.5881806303
O   O31       1.0  0.49370  0.41400  0.25043  1.0000 -0.5881806303
O   O32       1.0  0.49370  0.58600  0.74957  1.0000 -0.5881806303
O   O33       1.0  0.86680  0.27150  0.88630  1.0000 -0.7050736933
O   O34       1.0  0.86680  0.72850  0.11370  1.0000 -0.704567471
O   O35       1.0  0.13320  0.22850  0.38630  1.0000 -0.7050736933
O   O36       1.0  0.13320  0.77150  0.61370  1.0000 -0.7050736933
