# DDEC6 charges by PACMAN v1.1 (https://github.com/mtap-research/PACMAN-charge/)
data_2013[Zn][nan]3[FSR]10
_chemical_formula_sum              "Zn4 H44 C38 N4 O20"
_cell_length_a       7.27761
_cell_length_b       7.27761
_cell_length_c       26.931
_cell_angle_alpha    90
_cell_angle_beta     90
_cell_angle_gamma    90.4899

_symmetry_space_group_name_H-M    "P 1"
_symmetry_Int_Tables_number       1

loop_
  _symmetry_equiv_pos_as_xyz
  'x, y, z'

loop_
  _atom_site_type_symbol
  _atom_site_label
  _atom_site_symmetry_multiplicity
  _atom_site_fract_x
  _atom_site_fract_y
  _atom_site_fract_z
  _atom_site_occupancy
  _atom_site_charge
Zn  Zn1       1.0  0.31215  0.96029  0.27905  1.0000 0.8851541248
Zn  Zn2       1.0  0.96029  0.31215  0.72095  1.0000 0.8851541248
Zn  Zn3       1.0  0.46029  0.81215  0.77905  1.0000 0.8851541248
Zn  Zn4       1.0  0.81215  0.46029  0.22095  1.0000 0.8846756187
H   H1        1.0  0.21360  0.21640  0.22480  1.0000 0.3640230117
H   H2        1.0  0.21640  0.21360  0.77520  1.0000 0.3640230117
H   H3        1.0  0.71640  0.71360  0.72480  1.0000 0.3640230117
H   H4        1.0  0.71360  0.71640  0.27520  1.0000 0.3640230117
H   H5        1.0  0.40750  0.22150  0.22570  1.0000 0.3666740623
H   H6        1.0  0.22150  0.40750  0.77430  1.0000 0.3666740623
H   H7        1.0  0.72150  0.90750  0.72570  1.0000 0.3666740623
H   H8        1.0  0.90750  0.72150  0.27430  1.0000 0.3666740623
H   H9        1.0  0.31380  0.67740  0.14050  1.0000 0.1624347647
H   H10       1.0  0.67740  0.31380  0.85950  1.0000 0.1624347647
H   H11       1.0  0.17740  0.81380  0.64050  1.0000 0.1624347647
H   H12       1.0  0.81380  0.17740  0.35950  1.0000 0.1624347647
H   H13       1.0  0.31450  0.88430  0.16080  1.0000 0.1624347647
H   H14       1.0  0.88430  0.31450  0.83920  1.0000 0.1624347647
H   H15       1.0  0.38430  0.81450  0.66080  1.0000 0.1624347647
H   H16       1.0  0.81450  0.38430  0.33920  1.0000 0.1624347647
H   H17       1.0  0.31430  0.33470  0.36280  1.0000 0.1404766408
H   H18       1.0  0.33470  0.31430  0.63720  1.0000 0.1404766408
H   H19       1.0  0.83470  0.81430  0.86280  1.0000 0.1404766408
H   H20       1.0  0.81430  0.83470  0.13720  1.0000 0.1404766408
H   H21       1.0  0.33800  0.54580  0.29980  1.0000 0.1124850628
H   H22       1.0  0.54580  0.33800  0.70020  1.0000 0.1124850628
H   H23       1.0  0.04580  0.83800  0.79980  1.0000 0.1124850628
H   H24       1.0  0.83800  0.04580  0.20020  1.0000 0.1124850628
H   H25       1.0  0.26850  0.95510  0.39230  1.0000 0.1124850628
H   H26       1.0  0.95510  0.26850  0.60770  1.0000 0.1124850628
H   H27       1.0  0.45510  0.76850  0.89230  1.0000 0.1124850628
H   H28       1.0  0.76850  0.45510  0.10770  1.0000 0.1124850628
H   H29       1.0  0.24410  0.75610  0.45850  1.0000 0.1276292135
H   H30       1.0  0.75610  0.24410  0.54150  1.0000 0.1276292135
H   H31       1.0  0.25610  0.74410  0.95850  1.0000 0.1276292135
H   H32       1.0  0.74410  0.25610  0.04150  1.0000 0.1276292135
H   H33       1.0  0.13260  0.40380  0.47680  1.0000 0.1124850628
H   H34       1.0  0.40380  0.13260  0.52320  1.0000 0.1124850628
H   H35       1.0  0.90380  0.63260  0.97680  1.0000 0.1124850628
H   H36       1.0  0.63260  0.90380  0.02320  1.0000 0.1124850628
H   H37       1.0  0.25510  0.25930  0.44710  1.0000 0.1124850628
H   H38       1.0  0.25930  0.25510  0.55290  1.0000 0.1124850628
H   H39       1.0  0.75930  0.75510  0.94710  1.0000 0.1124850628
H   H40       1.0  0.75510  0.75930  0.05290  1.0000 0.1124850628
H   H41       1.0  0.39540  0.52560  0.51610  1.0000 0.0997320214
H   H42       1.0  0.52560  0.39540  0.48390  1.0000 0.0997320214
H   H43       1.0  0.02560  0.89540  0.01610  1.0000 0.0997320214
H   H44       1.0  0.89540  0.02560  0.98390  1.0000 0.0997320214
C   C1        1.0  0.13920  0.71360  0.20013  1.0000 0.6757413116
C   C2        1.0  0.71360  0.13920  0.79987  1.0000 0.6757413116
C   C3        1.0  0.21360  0.63920  0.70013  1.0000 0.6757413116
C   C4        1.0  0.63920  0.21360  0.29987  1.0000 0.6757413116
C   C5        1.0  0.31330  0.75350  0.17099  1.0000 -0.5142990681
C   C6        1.0  0.75350  0.31330  0.82901  1.0000 -0.5142990681
C   C7        1.0  0.25350  0.81330  0.67099  1.0000 -0.5142990681
C   C8        1.0  0.81330  0.25350  0.32901  1.0000 -0.5142990681
C   C9        1.0  0.48570  0.71390  0.20120  1.0000 0.674310979
C   C10       1.0  0.71390  0.48570  0.79880  1.0000 0.674310979
C   C11       1.0  0.21390  0.98570  0.70120  1.0000 0.674310979
C   C12       1.0  0.98570  0.21390  0.29880  1.0000 0.674310979
C   C13       1.0  0.30360  0.46200  0.36993  1.0000 -0.2016371819
C   C14       1.0  0.46200  0.30360  0.63007  1.0000 -0.2016371819
C   C15       1.0  0.96200  0.80360  0.86993  1.0000 -0.2016371819
C   C16       1.0  0.80360  0.96200  0.13007  1.0000 -0.2016371819
C   C17       1.0  0.31740  0.58940  0.33252  1.0000 0.0997320214
C   C18       1.0  0.58940  0.31740  0.66748  1.0000 0.0997320214
C   C19       1.0  0.08940  0.81740  0.83252  1.0000 0.0997320214
C   C20       1.0  0.81740  0.08940  0.16748  1.0000 0.0997320214
C   C21       1.0  0.27730  0.82690  0.38624  1.0000 0.0832430203
C   C22       1.0  0.82690  0.27730  0.61376  1.0000 0.0832430203
C   C23       1.0  0.32690  0.77730  0.88624  1.0000 0.0832430203
C   C24       1.0  0.77730  0.32690  0.11376  1.0000 0.0832430203
C   C25       1.0  0.26230  0.70890  0.42594  1.0000 -0.2125297519
C   C26       1.0  0.70890  0.26230  0.57406  1.0000 -0.2125297519
C   C27       1.0  0.20890  0.76230  0.92594  1.0000 -0.2125297519
C   C28       1.0  0.76230  0.20890  0.07406  1.0000 -0.2125297519
C   C29       1.0  0.27380  0.52120  0.41835  1.0000 0.1737521333
C   C30       1.0  0.52120  0.27380  0.58165  1.0000 0.1737521333
C   C31       1.0  0.02120  0.77380  0.91835  1.0000 0.1737521333
C   C32       1.0  0.77380  0.02120  0.08165  1.0000 0.1737521333
C   C33       1.0  0.25350  0.38550  0.46075  1.0000 -0.2532067108
C   C34       1.0  0.38550  0.25350  0.53925  1.0000 -0.2532067108
C   C35       1.0  0.88550  0.75350  0.96075  1.0000 -0.2532067108
C   C36       1.0  0.75350  0.88550  0.03925  1.0000 -0.2532067108
C   C37       1.0  0.40380  0.40380  0.50000  1.0000 -0.1485088798
C   C38       1.0  0.90380  0.90380  0.00000  1.0000 -0.1485088798
N   N1        1.0  0.30370  0.77030  0.33911  1.0000 -0.2276711906
N   N2        1.0  0.77030  0.30370  0.66089  1.0000 -0.2276711906
N   N3        1.0  0.27030  0.80370  0.83911  1.0000 -0.2276711906
N   N4        1.0  0.80370  0.27030  0.16089  1.0000 -0.2276711906
O   O1        1.0  0.11550  0.80130  0.24093  1.0000 -0.5913507077
O   O2        1.0  0.80130  0.11550  0.75907  1.0000 -0.5913507077
O   O3        1.0  0.30130  0.61550  0.74093  1.0000 -0.5913507077
O   O4        1.0  0.61550  0.30130  0.25907  1.0000 -0.5913507077
O   O5        1.0  0.02860  0.59700  0.18335  1.0000 -0.5684597823
O   O6        1.0  0.59700  0.02860  0.81665  1.0000 -0.5684597823
O   O7        1.0  0.09700  0.52860  0.68335  1.0000 -0.5684597823
O   O8        1.0  0.52860  0.09700  0.31665  1.0000 -0.5684597823
O   O9        1.0  0.50897  0.80103  0.24167  1.0000 -0.5798043641
O   O10       1.0  0.80103  0.50897  0.75833  1.0000 -0.5798043641
O   O11       1.0  0.30103  0.00897  0.74167  1.0000 -0.5798043641
O   O12       1.0  0.00897  0.30103  0.25833  1.0000 -0.5798043641
O   O13       1.0  0.59425  0.59665  0.18469  1.0000 -0.5684597823
O   O14       1.0  0.59665  0.59425  0.81531  1.0000 -0.5684597823
O   O15       1.0  0.09665  0.09425  0.68469  1.0000 -0.5684597823
O   O16       1.0  0.09425  0.09665  0.31531  1.0000 -0.5684597823
O   O17       1.0  0.31203  0.15403  0.22010  1.0000 -0.6734857145
O   O18       1.0  0.15403  0.31203  0.77990  1.0000 -0.6734857145
O   O19       1.0  0.65403  0.81203  0.72010  1.0000 -0.6734857145
O   O20       1.0  0.81203  0.65403  0.27990  1.0000 -0.6734857145
