# DDEC6 charges by PACMAN v1.1 (https://github.com/mtap-research/PACMAN-charge/)
data_2013[Ce][nan]3[FSR]6
_chemical_formula_sum              "Ce4 H24 C16 S2 O36"
_cell_length_a       6.1556
_cell_length_b       7.6439
_cell_length_c       22.013
_cell_angle_alpha    90
_cell_angle_beta     90
_cell_angle_gamma    90

_symmetry_space_group_name_H-M    "P 1"
_symmetry_Int_Tables_number       1

loop_
  _symmetry_equiv_pos_as_xyz
  'x, y, z'

loop_
  _atom_site_type_symbol
  _atom_site_label
  _atom_site_symmetry_multiplicity
  _atom_site_fract_x
  _atom_site_fract_y
  _atom_site_fract_z
  _atom_site_occupancy
  _atom_site_charge
Ce  Ce1       1.0  0.43918  0.47932  0.35423  1.0000 1.9191810964
Ce  Ce2       1.0  0.43918  0.52068  0.64577  1.0000 1.9191810964
Ce  Ce3       1.0  0.56082  0.02068  0.85423  1.0000 1.9191810964
Ce  Ce4       1.0  0.56082  0.97932  0.14577  1.0000 1.9191810964
H   H1        1.0  0.53860  0.84570  0.39050  1.0000 0.3774399935
H   H2        1.0  0.53860  0.15430  0.60950  1.0000 0.3774399935
H   H3        1.0  0.46140  0.65430  0.89050  1.0000 0.3774399935
H   H4        1.0  0.46140  0.34570  0.10950  1.0000 0.3774399935
H   H5        1.0  0.69530  0.76340  0.24350  1.0000 0.3411180926
H   H6        1.0  0.69530  0.23660  0.75650  1.0000 0.3411180926
H   H7        1.0  0.30470  0.73660  0.74350  1.0000 0.3411180926
H   H8        1.0  0.30470  0.26340  0.25650  1.0000 0.3411180926
H   H9        1.0  0.85720  0.90780  0.38280  1.0000 0.1359902052
H   H10       1.0  0.85720  0.09220  0.61720  1.0000 0.1359902052
H   H11       1.0  0.14280  0.59220  0.88280  1.0000 0.1359902052
H   H12       1.0  0.14280  0.40780  0.11720  1.0000 0.1359902052
H   H13       1.0  0.95180  0.00430  0.28800  1.0000 0.1458632229
H   H14       1.0  0.95180  0.99570  0.71200  1.0000 0.1458632229
H   H15       1.0  0.04820  0.49570  0.78800  1.0000 0.1458632229
H   H16       1.0  0.04820  0.50430  0.21200  1.0000 0.1458632229
H   H17       1.0  0.07520  0.27630  0.42060  1.0000 0.3581563114
H   H18       1.0  0.07520  0.72370  0.57940  1.0000 0.3581563114
H   H19       1.0  0.92480  0.22370  0.92060  1.0000 0.3581563114
H   H20       1.0  0.92480  0.77630  0.07940  1.0000 0.3581563114
H   H21       1.0  0.05090  0.33080  0.36390  1.0000 0.3217561943
H   H22       1.0  0.05090  0.66920  0.63610  1.0000 0.3217561943
H   H23       1.0  0.94910  0.16920  0.86390  1.0000 0.3217561943
H   H24       1.0  0.94910  0.83080  0.13610  1.0000 0.3217561943
C   C1        1.0  0.93640  0.66990  0.34310  1.0000 0.6098175002
C   C2        1.0  0.93640  0.33010  0.65690  1.0000 0.6098175002
C   C3        1.0  0.06360  0.83010  0.84310  1.0000 0.6098175002
C   C4        1.0  0.06360  0.16990  0.15690  1.0000 0.6098175002
C   C5        1.0  0.80080  0.83750  0.34910  1.0000 0.0053353102
C   C6        1.0  0.80080  0.16250  0.65090  1.0000 0.0053353102
C   C7        1.0  0.19920  0.66250  0.84910  1.0000 0.0053353102
C   C8        1.0  0.19920  0.33750  0.15090  1.0000 0.0044486206
C   C9        1.0  0.81050  0.94550  0.29010  1.0000 0.0053353102
C   C10       1.0  0.81050  0.05450  0.70990  1.0000 0.0053353102
C   C11       1.0  0.18950  0.55450  0.79010  1.0000 0.0053353102
C   C12       1.0  0.18950  0.44550  0.20990  1.0000 0.0053353102
C   C13       1.0  0.63070  0.08570  0.29240  1.0000 0.6098175002
C   C14       1.0  0.63070  0.91430  0.70760  1.0000 0.6098175002
C   C15       1.0  0.36930  0.41430  0.79240  1.0000 0.6098175002
C   C16       1.0  0.36930  0.58570  0.20760  1.0000 0.6098175002
S   S1        1.0  0.44660  0.50000  0.50000  1.0000 1.4065914629
S   S2        1.0  0.55340  0.00000  0.00000  1.0000 1.4065914629
O   O1        1.0  0.58120  0.38470  0.46168  1.0000 -0.6957824053
O   O2        1.0  0.58120  0.61530  0.53832  1.0000 -0.6957824053
O   O3        1.0  0.41880  0.11530  0.96168  1.0000 -0.6957824053
O   O4        1.0  0.41880  0.88470  0.03832  1.0000 -0.6957824053
O   O5        1.0  0.31160  0.60070  0.45698  1.0000 -0.7263096394
O   O6        1.0  0.31160  0.39930  0.54302  1.0000 -0.7263096394
O   O7        1.0  0.68840  0.89930  0.95698  1.0000 -0.7263096394
O   O8        1.0  0.68840  0.10070  0.04302  1.0000 -0.7263096394
O   O9        1.0  0.83360  0.52740  0.34561  1.0000 -0.5999701442
O   O10       1.0  0.83360  0.47260  0.65439  1.0000 -0.5999701442
O   O11       1.0  0.16640  0.97260  0.84561  1.0000 -0.5999701442
O   O12       1.0  0.16640  0.02740  0.15439  1.0000 -0.5999701442
O   O13       1.0  0.13760  0.68660  0.33662  1.0000 -0.5999701442
O   O14       1.0  0.13760  0.31340  0.66338  1.0000 -0.5999701442
O   O15       1.0  0.86240  0.81340  0.83662  1.0000 -0.5999701442
O   O16       1.0  0.86240  0.18660  0.16338  1.0000 -0.5999701442
O   O17       1.0  0.58460  0.78760  0.36198  1.0000 -0.5021641673
O   O18       1.0  0.58460  0.21240  0.63802  1.0000 -0.5021641673
O   O19       1.0  0.41540  0.71240  0.86198  1.0000 -0.5021641673
O   O20       1.0  0.41540  0.28760  0.13802  1.0000 -0.5021641673
O   O21       1.0  0.78300  0.84170  0.23674  1.0000 -0.5171034308
O   O22       1.0  0.78300  0.15830  0.76326  1.0000 -0.5171034308
O   O23       1.0  0.21700  0.65830  0.73674  1.0000 -0.5171034308
O   O24       1.0  0.21700  0.34170  0.26326  1.0000 -0.5171034308
O   O25       1.0  0.63300  0.19320  0.33570  1.0000 -0.5893970327
O   O26       1.0  0.63300  0.80680  0.66430  1.0000 -0.5893970327
O   O27       1.0  0.36700  0.30680  0.83570  1.0000 -0.5893970327
O   O28       1.0  0.36700  0.69320  0.16430  1.0000 -0.5893970327
O   O29       1.0  0.49330  0.08500  0.25059  1.0000 -0.5893970327
O   O30       1.0  0.49330  0.91500  0.74941  1.0000 -0.5893970327
O   O31       1.0  0.50670  0.41500  0.75059  1.0000 -0.5893970327
O   O32       1.0  0.50670  0.58500  0.24941  1.0000 -0.5893970327
O   O33       1.0  0.13360  0.27120  0.38611  1.0000 -0.7127907994
O   O34       1.0  0.13360  0.72880  0.61389  1.0000 -0.7127907994
O   O35       1.0  0.86640  0.22880  0.88611  1.0000 -0.7127907994
O   O36       1.0  0.86640  0.77120  0.11389  1.0000 -0.7127907994
