# DDEC6 charges by PACMAN v1.1 (https://github.com/mtap-research/PACMAN-charge/)
data_2013[Ni][sit]3[FSR]1
_chemical_formula_sum              "Ni4 H40 C68 N12 O16"
_cell_length_a       14.8549
_cell_length_b       14.8549
_cell_length_c       11.6334
_cell_angle_alpha    72.5606
_cell_angle_beta     107.439
_cell_angle_gamma    83.3287

_symmetry_space_group_name_H-M    "P 1"
_symmetry_Int_Tables_number       1

loop_
  _symmetry_equiv_pos_as_xyz
  'x, y, z'

loop_
  _atom_site_type_symbol
  _atom_site_label
  _atom_site_symmetry_multiplicity
  _atom_site_fract_x
  _atom_site_fract_y
  _atom_site_fract_z
  _atom_site_occupancy
  _atom_site_charge
Ni  Ni1       1.0  0.06663  0.69203  0.88351  1.0000 0.6870876192
Ni  Ni2       1.0  0.30797  0.93337  0.88351  1.0000 0.6870876192
Ni  Ni3       1.0  0.69203  0.06663  0.11649  1.0000 0.6870876192
Ni  Ni4       1.0  0.93337  0.30797  0.11649  1.0000 0.6870876192
H   H1        1.0  0.01020  0.76240  0.07830  1.0000 0.1172808199
H   H2        1.0  0.23760  0.98980  0.07830  1.0000 0.1172808199
H   H3        1.0  0.02630  0.70510  0.29140  1.0000 0.1303538668
H   H4        1.0  0.29490  0.97370  0.29140  1.0000 0.1303538668
H   H5        1.0  0.17030  0.44890  0.32140  1.0000 0.1399593739
H   H6        1.0  0.55110  0.82970  0.32140  1.0000 0.1399593739
H   H7        1.0  0.15120  0.51480  0.10850  1.0000 0.1172808199
H   H8        1.0  0.48520  0.84880  0.10850  1.0000 0.1172808199
H   H9        1.0  0.07110  0.65250  0.50020  1.0000 0.1303538668
H   H10       1.0  0.34750  0.92890  0.50020  1.0000 0.1303538668
H   H11       1.0  0.15970  0.41190  0.81550  1.0000 0.1303538668
H   H12       1.0  0.58810  0.84030  0.81550  1.0000 0.1303538668
H   H13       1.0  0.30360  0.27480  0.88000  1.0000 0.1399593739
H   H14       1.0  0.72520  0.69640  0.88000  1.0000 0.1399593739
H   H15       1.0  0.35930  0.11050  0.95670  1.0000 0.1123491911
H   H16       1.0  0.88950  0.64070  0.95670  1.0000 0.1123491911
H   H17       1.0  0.18110  0.08910  0.64750  1.0000 0.1172808199
H   H18       1.0  0.91090  0.81890  0.64750  1.0000 0.1172808199
H   H19       1.0  0.12520  0.25420  0.55710  1.0000 0.1399593739
H   H20       1.0  0.74580  0.87480  0.55710  1.0000 0.1399593739
H   H21       1.0  0.76240  0.01020  0.92170  1.0000 0.1172808199
H   H22       1.0  0.98980  0.23760  0.92170  1.0000 0.1172808199
H   H23       1.0  0.70510  0.02630  0.70860  1.0000 0.1303538668
H   H24       1.0  0.97370  0.29490  0.70860  1.0000 0.1303538668
H   H25       1.0  0.44890  0.17030  0.67860  1.0000 0.1399593739
H   H26       1.0  0.82970  0.55110  0.67860  1.0000 0.1399593739
H   H27       1.0  0.51480  0.15120  0.89150  1.0000 0.1172808199
H   H28       1.0  0.84880  0.48520  0.89150  1.0000 0.1172808199
H   H29       1.0  0.65250  0.07110  0.49980  1.0000 0.1303538668
H   H30       1.0  0.92890  0.34750  0.49980  1.0000 0.1303538668
H   H31       1.0  0.41190  0.15970  0.18450  1.0000 0.1303538668
H   H32       1.0  0.84030  0.58810  0.18450  1.0000 0.1303538668
H   H33       1.0  0.27480  0.30360  0.12000  1.0000 0.1399593739
H   H34       1.0  0.69640  0.72520  0.12000  1.0000 0.1399593739
H   H35       1.0  0.11050  0.35930  0.04330  1.0000 0.1123491911
H   H36       1.0  0.64070  0.88950  0.04330  1.0000 0.1123491911
H   H37       1.0  0.08910  0.18110  0.35250  1.0000 0.1172808199
H   H38       1.0  0.81890  0.91090  0.35250  1.0000 0.1172808199
H   H39       1.0  0.25420  0.12520  0.44290  1.0000 0.1399593739
H   H40       1.0  0.87480  0.74580  0.44290  1.0000 0.1399593739
C   C1        1.0  0.04320  0.69880  0.12820  1.0000 0.0807199268
C   C2        1.0  0.30120  0.95680  0.12820  1.0000 0.0807199268
C   C3        1.0  0.05280  0.66480  0.25670  1.0000 -0.20066163
C   C4        1.0  0.33520  0.94720  0.25670  1.0000 -0.20066163
C   C5        1.0  0.10250  0.56930  0.33430  1.0000 0.0920506472
C   C6        1.0  0.43070  0.89750  0.33430  1.0000 0.0920506472
C   C7        1.0  0.13810  0.51330  0.27490  1.0000 -0.1681296775
C   C8        1.0  0.48670  0.86190  0.27490  1.0000 -0.1681296775
C   C9        1.0  0.12570  0.55350  0.14610  1.0000 0.1011125176
C   C10       1.0  0.44650  0.87430  0.14610  1.0000 0.1011125176
C   C11       1.0  0.11580  0.52820  0.47250  1.0000 0.1916434182
C   C12       1.0  0.47180  0.88420  0.47250  1.0000 0.1916434182
C   C13       1.0  0.09490  0.58590  0.54080  1.0000 -0.1912056567
C   C14       1.0  0.41410  0.90510  0.54080  1.0000 -0.1912056567
C   C15       1.0  0.11020  0.54160  0.67020  1.0000 0.040906669
C   C16       1.0  0.45840  0.88980  0.67020  1.0000 0.040906669
C   C17       1.0  0.14780  0.44280  0.72840  1.0000 -0.2053059065
C   C18       1.0  0.55720  0.85220  0.72840  1.0000 -0.2053059065
C   C19       1.0  0.16780  0.39000  0.65410  1.0000 0.1916434182
C   C20       1.0  0.61000  0.83220  0.65410  1.0000 0.1916434182
C   C21       1.0  0.20690  0.28450  0.70950  1.0000 0.0920506472
C   C22       1.0  0.71550  0.79310  0.70950  1.0000 0.0920506472
C   C23       1.0  0.27800  0.23860  0.83040  1.0000 -0.20066163
C   C24       1.0  0.76140  0.72200  0.83040  1.0000 -0.20066163
C   C25       1.0  0.31040  0.13960  0.87650  1.0000 0.0739209814
C   C26       1.0  0.86040  0.68960  0.87650  1.0000 0.0739209814
C   C27       1.0  0.20628  0.12708  0.69410  1.0000 0.1011125176
C   C28       1.0  0.87292  0.79372  0.69410  1.0000 0.0920506472
C   C29       1.0  0.17160  0.22640  0.63950  1.0000 -0.1912056567
C   C30       1.0  0.77360  0.82840  0.63950  1.0000 -0.1912056567
C   C31       1.0  0.08767  0.60047  0.74770  1.0000 0.5350901721
C   C32       1.0  0.39953  0.91233  0.74770  1.0000 0.5350901721
C   C33       1.0  0.14610  0.85390  0.87580  1.0000 0.4637716202
C   C34       1.0  0.23320  0.76680  0.91950  1.0000 0.4733513235
C   C35       1.0  0.69880  0.04320  0.87180  1.0000 0.0807199268
C   C36       1.0  0.95680  0.30120  0.87180  1.0000 0.0807199268
C   C37       1.0  0.66480  0.05280  0.74330  1.0000 -0.20066163
C   C38       1.0  0.94720  0.33520  0.74330  1.0000 -0.20066163
C   C39       1.0  0.56930  0.10250  0.66570  1.0000 0.0920506472
C   C40       1.0  0.89750  0.43070  0.66570  1.0000 0.0920506472
C   C41       1.0  0.51330  0.13810  0.72510  1.0000 -0.1681296775
C   C42       1.0  0.86190  0.48670  0.72510  1.0000 -0.1681296775
C   C43       1.0  0.55350  0.12570  0.85390  1.0000 0.1011125176
C   C44       1.0  0.87430  0.44650  0.85390  1.0000 0.1011125176
C   C45       1.0  0.52820  0.11580  0.52750  1.0000 0.1916434182
C   C46       1.0  0.88420  0.47180  0.52750  1.0000 0.1916434182
C   C47       1.0  0.58590  0.09490  0.45920  1.0000 -0.1912056567
C   C48       1.0  0.90510  0.41410  0.45920  1.0000 -0.1912056567
C   C49       1.0  0.54160  0.11020  0.32980  1.0000 0.040906669
C   C50       1.0  0.88980  0.45840  0.32980  1.0000 0.040906669
C   C51       1.0  0.44280  0.14780  0.27160  1.0000 -0.2053059065
C   C52       1.0  0.85220  0.55720  0.27160  1.0000 -0.2053059065
C   C53       1.0  0.39000  0.16780  0.34590  1.0000 0.1916434182
C   C54       1.0  0.83220  0.61000  0.34590  1.0000 0.1916434182
C   C55       1.0  0.28450  0.20690  0.29050  1.0000 0.0920506472
C   C56       1.0  0.79310  0.71550  0.29050  1.0000 0.0920506472
C   C57       1.0  0.23860  0.27800  0.16960  1.0000 -0.20066163
C   C58       1.0  0.72200  0.76140  0.16960  1.0000 -0.20066163
C   C59       1.0  0.13960  0.31040  0.12350  1.0000 0.0739209814
C   C60       1.0  0.68960  0.86040  0.12350  1.0000 0.0739209814
C   C61       1.0  0.12708  0.20628  0.30590  1.0000 0.0920506472
C   C62       1.0  0.79372  0.87292  0.30590  1.0000 0.0920506472
C   C63       1.0  0.22640  0.17160  0.36050  1.0000 -0.1912056567
C   C64       1.0  0.82840  0.77360  0.36050  1.0000 -0.1912056567
C   C65       1.0  0.60047  0.08767  0.25230  1.0000 0.5344581245
C   C66       1.0  0.91233  0.39953  0.25230  1.0000 0.5350901721
C   C67       1.0  0.85390  0.14610  0.12420  1.0000 0.4637716202
C   C68       1.0  0.76680  0.23320  0.08050  1.0000 0.4733513235
N   N1        1.0  0.07934  0.64428  0.07280  1.0000 -0.2286687703
N   N2        1.0  0.35572  0.92066  0.07280  1.0000 -0.2286687703
N   N3        1.0  0.15052  0.43232  0.52770  1.0000 -0.3156924011
N   N4        1.0  0.56768  0.84948  0.52770  1.0000 -0.3156924011
N   N5        1.0  0.27518  0.08294  0.81190  1.0000 -0.2192991548
N   N6        1.0  0.91706  0.72482  0.81190  1.0000 -0.2192991548
N   N7        1.0  0.64428  0.07934  0.92720  1.0000 -0.2286687703
N   N8        1.0  0.92066  0.35572  0.92720  1.0000 -0.2286687703
N   N9        1.0  0.43232  0.15052  0.47230  1.0000 -0.3156924011
N   N10       1.0  0.84948  0.56768  0.47230  1.0000 -0.3156924011
N   N11       1.0  0.08294  0.27518  0.18810  1.0000 -0.2192991548
N   N12       1.0  0.72482  0.91706  0.18810  1.0000 -0.2192991548
O   O1        1.0  0.06750  0.69092  0.69900  1.0000 -0.5108909221
O   O2        1.0  0.30908  0.93250  0.69900  1.0000 -0.5108909221
O   O3        1.0  0.08929  0.55671  0.86020  1.0000 -0.5416725041
O   O4        1.0  0.44329  0.91071  0.86020  1.0000 -0.5416725041
O   O5        1.0  0.21387  0.68551  0.93500  1.0000 -0.4634402157
O   O6        1.0  0.31449  0.78613  0.93500  1.0000 -0.4634402157
O   O7        1.0  0.06412  0.83578  0.85970  1.0000 -0.4872428389
O   O8        1.0  0.16422  0.93588  0.85970  1.0000 -0.4872428389
O   O9        1.0  0.69092  0.06750  0.30100  1.0000 -0.5108909221
O   O10       1.0  0.93250  0.30908  0.30100  1.0000 -0.5108909221
O   O11       1.0  0.55671  0.08929  0.13980  1.0000 -0.5416725041
O   O12       1.0  0.91071  0.44329  0.13980  1.0000 -0.5416725041
O   O13       1.0  0.68551  0.21387  0.06500  1.0000 -0.4634402157
O   O14       1.0  0.78613  0.31449  0.06500  1.0000 -0.4634402157
O   O15       1.0  0.83578  0.06412  0.14030  1.0000 -0.4872428389
O   O16       1.0  0.93588  0.16422  0.14030  1.0000 -0.4872428389
