# DDEC6 charges by PACMAN v1.1 (https://github.com/mtap-research/PACMAN-charge/)
data_2013[Ni][xmz]3[FSR]3
_chemical_formula_sum              "Ni6 H88 C144 N12 O26"
_cell_length_a       18.6549
_cell_length_b       18.6549
_cell_length_c       18.6549
_cell_angle_alpha    102.268
_cell_angle_beta     102.268
_cell_angle_gamma    102.268

_symmetry_space_group_name_H-M    "P 1"
_symmetry_Int_Tables_number       1

loop_
  _symmetry_equiv_pos_as_xyz
  'x, y, z'

loop_
  _atom_site_type_symbol
  _atom_site_label
  _atom_site_symmetry_multiplicity
  _atom_site_fract_x
  _atom_site_fract_y
  _atom_site_fract_z
  _atom_site_occupancy
  _atom_site_charge
Ni  Ni1       1.0  0.81891  0.75000  0.68109  1.0000 0.8751440487
Ni  Ni2       1.0  0.75000  0.68109  0.81891  1.0000 0.8744932852
Ni  Ni3       1.0  0.68109  0.81891  0.75000  1.0000 0.8751440487
Ni  Ni4       1.0  0.18109  0.25000  0.31891  1.0000 0.8744932852
Ni  Ni5       1.0  0.25000  0.31891  0.18109  1.0000 0.8744932852
Ni  Ni6       1.0  0.31891  0.18109  0.25000  1.0000 0.8744932852
H   H1        1.0  0.23510  0.54420  0.26270  1.0000 0.1206974277
H   H2        1.0  0.54420  0.26270  0.23510  1.0000 0.1206974277
H   H3        1.0  0.26270  0.23510  0.54420  1.0000 0.1206974277
H   H4        1.0  0.26490  0.23730  0.95580  1.0000 0.1206974277
H   H5        1.0  0.95580  0.26490  0.23730  1.0000 0.1206974277
H   H6        1.0  0.23730  0.95580  0.26490  1.0000 0.1206974277
H   H7        1.0  0.76490  0.45580  0.73730  1.0000 0.1206974277
H   H8        1.0  0.45580  0.73730  0.76490  1.0000 0.1206974277
H   H9        1.0  0.73730  0.76490  0.45580  1.0000 0.1206974277
H   H10       1.0  0.73510  0.76270  0.04420  1.0000 0.1206974277
H   H11       1.0  0.04420  0.73510  0.76270  1.0000 0.1206974277
H   H12       1.0  0.76270  0.04420  0.73510  1.0000 0.1206974277
H   H13       1.0  0.19380  0.65130  0.29410  1.0000 0.1206974277
H   H14       1.0  0.65130  0.29410  0.19380  1.0000 0.1206974277
H   H15       1.0  0.29410  0.19380  0.65130  1.0000 0.1206974277
H   H16       1.0  0.30620  0.20590  0.84870  1.0000 0.1206974277
H   H17       1.0  0.84870  0.30620  0.20590  1.0000 0.1206974277
H   H18       1.0  0.20590  0.84870  0.30620  1.0000 0.1206974277
H   H19       1.0  0.80620  0.34870  0.70590  1.0000 0.1206974277
H   H20       1.0  0.34870  0.70590  0.80620  1.0000 0.1206974277
H   H21       1.0  0.70590  0.80620  0.34870  1.0000 0.1206974277
H   H22       1.0  0.69380  0.79410  0.15130  1.0000 0.1206974277
H   H23       1.0  0.15130  0.69380  0.79410  1.0000 0.1206974277
H   H24       1.0  0.79410  0.15130  0.69380  1.0000 0.1206974277
H   H25       1.0  0.13380  0.58350  0.46600  1.0000 0.1115787549
H   H26       1.0  0.58350  0.46600  0.13380  1.0000 0.1115787549
H   H27       1.0  0.46600  0.13380  0.58350  1.0000 0.1115787549
H   H28       1.0  0.36620  0.03400  0.91650  1.0000 0.1115787549
H   H29       1.0  0.91650  0.36620  0.03400  1.0000 0.1115787549
H   H30       1.0  0.03400  0.91650  0.36620  1.0000 0.1115787549
H   H31       1.0  0.86620  0.41650  0.53400  1.0000 0.1115787549
H   H32       1.0  0.41650  0.53400  0.86620  1.0000 0.1115787549
H   H33       1.0  0.53400  0.86620  0.41650  1.0000 0.1115787549
H   H34       1.0  0.63380  0.96600  0.08350  1.0000 0.1115787549
H   H35       1.0  0.08350  0.63380  0.96600  1.0000 0.1115787549
H   H36       1.0  0.96600  0.08350  0.63380  1.0000 0.1115787549
H   H37       1.0  0.17320  0.47590  0.43250  1.0000 0.1206974277
H   H38       1.0  0.47590  0.43250  0.17320  1.0000 0.1206974277
H   H39       1.0  0.43250  0.17320  0.47590  1.0000 0.1206974277
H   H40       1.0  0.32680  0.06750  0.02410  1.0000 0.1206974277
H   H41       1.0  0.02410  0.32680  0.06750  1.0000 0.1206974277
H   H42       1.0  0.06750  0.02410  0.32680  1.0000 0.1206974277
H   H43       1.0  0.82680  0.52410  0.56750  1.0000 0.1206974277
H   H44       1.0  0.52410  0.56750  0.82680  1.0000 0.1206974277
H   H45       1.0  0.56750  0.82680  0.52410  1.0000 0.1206974277
H   H46       1.0  0.67320  0.93250  0.97590  1.0000 0.1206974277
H   H47       1.0  0.97590  0.67320  0.93250  1.0000 0.1206974277
H   H48       1.0  0.93250  0.97590  0.67320  1.0000 0.1206974277
H   H49       1.0  0.05990  0.64900  0.46420  1.0000 0.1115787549
H   H50       1.0  0.64900  0.46420  0.05990  1.0000 0.1115787549
H   H51       1.0  0.46420  0.05990  0.64900  1.0000 0.1115787549
H   H52       1.0  0.44010  0.03580  0.85100  1.0000 0.1115787549
H   H53       1.0  0.85100  0.44010  0.03580  1.0000 0.1115787549
H   H54       1.0  0.03580  0.85100  0.44010  1.0000 0.1115787549
H   H55       1.0  0.94010  0.35100  0.53580  1.0000 0.1115787549
H   H56       1.0  0.35100  0.53580  0.94010  1.0000 0.1115787549
H   H57       1.0  0.53580  0.94010  0.35100  1.0000 0.1115787549
H   H58       1.0  0.55990  0.96420  0.14900  1.0000 0.1115787549
H   H59       1.0  0.14900  0.55990  0.96420  1.0000 0.1115787549
H   H60       1.0  0.96420  0.14900  0.55990  1.0000 0.1115787549
H   H61       1.0  0.94100  0.83240  0.48580  1.0000 0.1298226358
H   H62       1.0  0.83240  0.48580  0.94100  1.0000 0.1298226358
H   H63       1.0  0.48580  0.94100  0.83240  1.0000 0.1298226358
H   H64       1.0  0.55900  0.01420  0.66760  1.0000 0.1298226358
H   H65       1.0  0.66760  0.55900  0.01420  1.0000 0.1298226358
H   H66       1.0  0.01420  0.66760  0.55900  1.0000 0.1298226358
H   H67       1.0  0.05900  0.16760  0.51420  1.0000 0.1298226358
H   H68       1.0  0.16760  0.51420  0.05900  1.0000 0.1298226358
H   H69       1.0  0.51420  0.05900  0.16760  1.0000 0.1298226358
H   H70       1.0  0.44100  0.98580  0.33240  1.0000 0.1298226358
H   H71       1.0  0.33240  0.44100  0.98580  1.0000 0.1298226358
H   H72       1.0  0.98580  0.33240  0.44100  1.0000 0.1298226358
H   H73       1.0  0.86530  0.83170  0.56730  1.0000 0.1115787549
H   H74       1.0  0.83170  0.56730  0.86530  1.0000 0.1115787549
H   H75       1.0  0.56730  0.86530  0.83170  1.0000 0.1115787549
H   H76       1.0  0.63470  0.93270  0.66830  1.0000 0.1115787549
H   H77       1.0  0.66830  0.63470  0.93270  1.0000 0.1115787549
H   H78       1.0  0.93270  0.66830  0.63470  1.0000 0.1115787549
H   H79       1.0  0.13470  0.16830  0.43270  1.0000 0.1115787549
H   H80       1.0  0.16830  0.43270  0.13470  1.0000 0.1115787549
H   H81       1.0  0.43270  0.13470  0.16830  1.0000 0.1115787549
H   H82       1.0  0.36530  0.06730  0.33170  1.0000 0.1115787549
H   H83       1.0  0.33170  0.36530  0.06730  1.0000 0.1115787549
H   H84       1.0  0.06730  0.33170  0.36530  1.0000 0.1115787549
H   H85       1.0  0.78997  0.78997  0.78997  1.0000 0.3674136243
H   H86       1.0  0.71003  0.71003  0.71003  1.0000 0.3674136243
H   H87       1.0  0.21003  0.21003  0.21003  1.0000 0.3674136243
H   H88       1.0  0.28997  0.28997  0.28997  1.0000 0.3674136243
C   C1        1.0  0.22195  0.41988  0.31515  1.0000 0.5741724214
C   C2        1.0  0.41988  0.31515  0.22195  1.0000 0.5741724214
C   C3        1.0  0.31515  0.22195  0.41988  1.0000 0.5741724214
C   C4        1.0  0.27805  0.18485  0.08012  1.0000 0.5741724214
C   C5        1.0  0.08012  0.27805  0.18485  1.0000 0.5741724214
C   C6        1.0  0.18485  0.08012  0.27805  1.0000 0.5741724214
C   C7        1.0  0.77805  0.58012  0.68485  1.0000 0.5741724214
C   C8        1.0  0.58012  0.68485  0.77805  1.0000 0.5741724214
C   C9        1.0  0.68485  0.77805  0.58012  1.0000 0.5741724214
C   C10       1.0  0.72195  0.81515  0.91988  1.0000 0.5741724214
C   C11       1.0  0.91988  0.72195  0.81515  1.0000 0.5741724214
C   C12       1.0  0.81515  0.91988  0.72195  1.0000 0.5741724214
C   C13       1.0  0.20177  0.49436  0.33927  1.0000 -0.0191212726
C   C14       1.0  0.49436  0.33927  0.20177  1.0000 -0.0191212726
C   C15       1.0  0.33927  0.20177  0.49436  1.0000 -0.0191212726
C   C16       1.0  0.29823  0.16073  0.00564  1.0000 -0.0191212726
C   C17       1.0  0.00564  0.29823  0.16073  1.0000 -0.0191212726
C   C18       1.0  0.16073  0.00564  0.29823  1.0000 -0.0191212726
C   C19       1.0  0.79823  0.50564  0.66073  1.0000 -0.0191212726
C   C20       1.0  0.50564  0.66073  0.79823  1.0000 -0.0191212726
C   C21       1.0  0.66073  0.79823  0.50564  1.0000 -0.0191212726
C   C22       1.0  0.70177  0.83927  0.99436  1.0000 -0.0191212726
C   C23       1.0  0.99436  0.70177  0.83927  1.0000 -0.0191212726
C   C24       1.0  0.83927  0.99436  0.70177  1.0000 -0.0191212726
C   C25       1.0  0.21150  0.55000  0.30180  1.0000 -0.1116325506
C   C26       1.0  0.55000  0.30180  0.21150  1.0000 -0.1116325506
C   C27       1.0  0.30180  0.21150  0.55000  1.0000 -0.1116325506
C   C28       1.0  0.28850  0.19820  0.95000  1.0000 -0.1116325506
C   C29       1.0  0.95000  0.28850  0.19820  1.0000 -0.1116325506
C   C30       1.0  0.19820  0.95000  0.28850  1.0000 -0.1116325506
C   C31       1.0  0.78850  0.45000  0.69820  1.0000 -0.1116325506
C   C32       1.0  0.45000  0.69820  0.78850  1.0000 -0.1116325506
C   C33       1.0  0.69820  0.78850  0.45000  1.0000 -0.1116325506
C   C34       1.0  0.71150  0.80180  0.05000  1.0000 -0.1116325506
C   C35       1.0  0.05000  0.71150  0.80180  1.0000 -0.1116325506
C   C36       1.0  0.80180  0.05000  0.71150  1.0000 -0.1116325506
C   C37       1.0  0.18670  0.61500  0.32100  1.0000 -0.1244172922
C   C38       1.0  0.61500  0.32100  0.18670  1.0000 -0.1244172922
C   C39       1.0  0.32100  0.18670  0.61500  1.0000 -0.1244172922
C   C40       1.0  0.31330  0.17900  0.88500  1.0000 -0.1244172922
C   C41       1.0  0.88500  0.31330  0.17900  1.0000 -0.1244172922
C   C42       1.0  0.17900  0.88500  0.31330  1.0000 -0.1244172922
C   C43       1.0  0.81330  0.38500  0.67900  1.0000 -0.1244172922
C   C44       1.0  0.38500  0.67900  0.81330  1.0000 -0.1244172922
C   C45       1.0  0.67900  0.81330  0.38500  1.0000 -0.1244172922
C   C46       1.0  0.68670  0.82100  0.11500  1.0000 -0.1244172922
C   C47       1.0  0.11500  0.68670  0.82100  1.0000 -0.1244172922
C   C48       1.0  0.82100  0.11500  0.68670  1.0000 -0.1244172922
C   C49       1.0  0.15200  0.62660  0.37830  1.0000 0.0446834556
C   C50       1.0  0.62660  0.37830  0.15200  1.0000 0.0457478385
C   C51       1.0  0.37830  0.15200  0.62660  1.0000 0.0457478385
C   C52       1.0  0.34800  0.12170  0.87340  1.0000 0.0457478385
C   C53       1.0  0.87340  0.34800  0.12170  1.0000 0.0457478385
C   C54       1.0  0.12170  0.87340  0.34800  1.0000 0.0457478385
C   C55       1.0  0.84800  0.37340  0.62170  1.0000 0.0457478385
C   C56       1.0  0.37340  0.62170  0.84800  1.0000 0.0457478385
C   C57       1.0  0.62170  0.84800  0.37340  1.0000 0.0446834556
C   C58       1.0  0.65200  0.87830  0.12660  1.0000 0.0446834556
C   C59       1.0  0.12660  0.65200  0.87830  1.0000 0.0457478385
C   C60       1.0  0.87830  0.12660  0.65200  1.0000 0.0457478385
C   C61       1.0  0.15100  0.57440  0.42250  1.0000 -0.1578432678
C   C62       1.0  0.57440  0.42250  0.15100  1.0000 -0.1578432678
C   C63       1.0  0.42250  0.15100  0.57440  1.0000 -0.1578432678
C   C64       1.0  0.34900  0.07750  0.92560  1.0000 -0.1578432678
C   C65       1.0  0.92560  0.34900  0.07750  1.0000 -0.1578432678
C   C66       1.0  0.07750  0.92560  0.34900  1.0000 -0.1578432678
C   C67       1.0  0.84900  0.42560  0.57750  1.0000 -0.1578432678
C   C68       1.0  0.42560  0.57750  0.84900  1.0000 -0.1578432678
C   C69       1.0  0.57750  0.84900  0.42560  1.0000 -0.1578432678
C   C70       1.0  0.65100  0.92250  0.07440  1.0000 -0.1578432678
C   C71       1.0  0.07440  0.65100  0.92250  1.0000 -0.1578432678
C   C72       1.0  0.92250  0.07440  0.65100  1.0000 -0.1578432678
C   C73       1.0  0.17510  0.50990  0.40260  1.0000 -0.1116325506
C   C74       1.0  0.50990  0.40260  0.17510  1.0000 -0.1116325506
C   C75       1.0  0.40260  0.17510  0.50990  1.0000 -0.1116325506
C   C76       1.0  0.32490  0.09740  0.99010  1.0000 -0.1116325506
C   C77       1.0  0.99010  0.32490  0.09740  1.0000 -0.1116325506
C   C78       1.0  0.09740  0.99010  0.32490  1.0000 -0.1116325506
C   C79       1.0  0.82490  0.49010  0.59740  1.0000 -0.1116325506
C   C80       1.0  0.49010  0.59740  0.82490  1.0000 -0.1116325506
C   C81       1.0  0.59740  0.82490  0.49010  1.0000 -0.1116325506
C   C82       1.0  0.67510  0.90260  0.00990  1.0000 -0.1116325506
C   C83       1.0  0.00990  0.67510  0.90260  1.0000 -0.1116325506
C   C84       1.0  0.90260  0.00990  0.67510  1.0000 -0.1116325506
C   C85       1.0  0.11870  0.69170  0.39660  1.0000 0.2159493272
C   C86       1.0  0.69170  0.39660  0.11870  1.0000 0.2159493272
C   C87       1.0  0.39660  0.11870  0.69170  1.0000 0.2159493272
C   C88       1.0  0.38130  0.10340  0.80830  1.0000 0.2159493272
C   C89       1.0  0.80830  0.38130  0.10340  1.0000 0.2159493272
C   C90       1.0  0.10340  0.80830  0.38130  1.0000 0.2159493272
C   C91       1.0  0.88130  0.30830  0.60340  1.0000 0.2159493272
C   C92       1.0  0.30830  0.60340  0.88130  1.0000 0.2159493272
C   C93       1.0  0.60340  0.88130  0.30830  1.0000 0.2159493272
C   C94       1.0  0.61870  0.89660  0.19170  1.0000 0.2159493272
C   C95       1.0  0.19170  0.61870  0.89660  1.0000 0.2159493272
C   C96       1.0  0.89660  0.19170  0.61870  1.0000 0.2159493272
C   C97       1.0  0.07070  0.69020  0.44400  1.0000 -0.2474919566
C   C98       1.0  0.69020  0.44400  0.07070  1.0000 -0.2474919566
C   C99       1.0  0.44400  0.07070  0.69020  1.0000 -0.2474919566
C   C100      1.0  0.42930  0.05600  0.80980  1.0000 -0.2474919566
C   C101      1.0  0.80980  0.42930  0.05600  1.0000 -0.2474919566
C   C102      1.0  0.05600  0.80980  0.42930  1.0000 -0.2474919566
C   C103      1.0  0.92930  0.30980  0.55600  1.0000 -0.2474919566
C   C104      1.0  0.30980  0.55600  0.92930  1.0000 -0.2474919566
C   C105      1.0  0.55600  0.92930  0.30980  1.0000 -0.2474919566
C   C106      1.0  0.57070  0.94400  0.19020  1.0000 -0.2474919566
C   C107      1.0  0.19020  0.57070  0.94400  1.0000 -0.2474919566
C   C108      1.0  0.94400  0.19020  0.57070  1.0000 -0.2474919566
C   C109      1.0  0.03855  0.75000  0.46145  1.0000 0.1115787549
C   C110      1.0  0.75000  0.46145  0.03855  1.0000 0.1115787549
C   C111      1.0  0.46145  0.03855  0.75000  1.0000 0.1115787549
C   C112      1.0  0.96145  0.25000  0.53855  1.0000 0.1115787549
C   C113      1.0  0.25000  0.53855  0.96145  1.0000 0.1115787549
C   C114      1.0  0.53855  0.96145  0.25000  1.0000 0.1115787549
C   C115      1.0  0.98715  0.75000  0.51285  1.0000 0.1206974277
C   C116      1.0  0.75000  0.51285  0.98715  1.0000 0.1206974277
C   C117      1.0  0.51285  0.98715  0.75000  1.0000 0.1206974277
C   C118      1.0  0.01285  0.25000  0.48715  1.0000 0.1206974277
C   C119      1.0  0.25000  0.48715  0.01285  1.0000 0.1115787549
C   C120      1.0  0.48715  0.01285  0.25000  1.0000 0.1206974277
C   C121      1.0  0.94100  0.79890  0.51630  1.0000 -0.19870817
C   C122      1.0  0.79890  0.51630  0.94100  1.0000 -0.19870817
C   C123      1.0  0.51630  0.94100  0.79890  1.0000 -0.19870817
C   C124      1.0  0.55900  0.98370  0.70110  1.0000 -0.19870817
C   C125      1.0  0.70110  0.55900  0.98370  1.0000 -0.19870817
C   C126      1.0  0.98370  0.70110  0.55900  1.0000 -0.19870817
C   C127      1.0  0.05900  0.20110  0.48370  1.0000 -0.19870817
C   C128      1.0  0.20110  0.48370  0.05900  1.0000 -0.19870817
C   C129      1.0  0.48370  0.05900  0.20110  1.0000 -0.19870817
C   C130      1.0  0.44100  0.01630  0.29890  1.0000 -0.19870817
C   C131      1.0  0.29890  0.44100  0.01630  1.0000 -0.19870817
C   C132      1.0  0.01630  0.29890  0.44100  1.0000 -0.19870817
C   C133      1.0  0.89500  0.79760  0.56510  1.0000 0.1011425993
C   C134      1.0  0.79760  0.56510  0.89500  1.0000 0.1011425993
C   C135      1.0  0.56510  0.89500  0.79760  1.0000 0.1011425993
C   C136      1.0  0.60500  0.93490  0.70240  1.0000 0.1011425993
C   C137      1.0  0.70240  0.60500  0.93490  1.0000 0.1011425993
C   C138      1.0  0.93490  0.70240  0.60500  1.0000 0.1011425993
C   C139      1.0  0.10500  0.20240  0.43490  1.0000 0.1011425993
C   C140      1.0  0.20240  0.43490  0.10500  1.0000 0.1011425993
C   C141      1.0  0.43490  0.10500  0.20240  1.0000 0.1011425993
C   C142      1.0  0.39500  0.06510  0.29760  1.0000 0.1011425993
C   C143      1.0  0.29760  0.39500  0.06510  1.0000 0.1011425993
C   C144      1.0  0.06510  0.29760  0.39500  1.0000 0.1011425993
N   N1        1.0  0.89070  0.75000  0.60930  1.0000 -0.1844861665
N   N2        1.0  0.75000  0.60930  0.89070  1.0000 -0.1853554555
N   N3        1.0  0.60930  0.89070  0.75000  1.0000 -0.1853554555
N   N4        1.0  0.10930  0.25000  0.39070  1.0000 -0.1853554555
N   N5        1.0  0.25000  0.39070  0.10930  1.0000 -0.1853554555
N   N6        1.0  0.39070  0.10930  0.25000  1.0000 -0.1844861665
N   N7        1.0  0.13512  0.75000  0.36488  1.0000 -0.3388959327
N   N8        1.0  0.75000  0.36488  0.13512  1.0000 -0.3388959327
N   N9        1.0  0.36488  0.13512  0.75000  1.0000 -0.3388959327
N   N10       1.0  0.86488  0.25000  0.63512  1.0000 -0.3388959327
N   N11       1.0  0.25000  0.63512  0.86488  1.0000 -0.3388959327
N   N12       1.0  0.63512  0.86488  0.25000  1.0000 -0.3388959327
O   O1        1.0  0.75000  0.75000  0.75000  1.0000 -0.6967370965
O   O2        1.0  0.25000  0.25000  0.25000  1.0000 -0.6967370965
O   O3        1.0  0.25735  0.41466  0.26547  1.0000 -0.5364981898
O   O4        1.0  0.41466  0.26547  0.25735  1.0000 -0.5364981898
O   O5        1.0  0.26547  0.25735  0.41466  1.0000 -0.5364981898
O   O6        1.0  0.24265  0.23453  0.08534  1.0000 -0.5364981898
O   O7        1.0  0.08534  0.24265  0.23453  1.0000 -0.5364981898
O   O8        1.0  0.23453  0.08534  0.24265  1.0000 -0.5364981898
O   O9        1.0  0.74265  0.58534  0.73453  1.0000 -0.5364981898
O   O10       1.0  0.58534  0.73453  0.74265  1.0000 -0.5364981898
O   O11       1.0  0.73453  0.74265  0.58534  1.0000 -0.5364981898
O   O12       1.0  0.75735  0.76547  0.91466  1.0000 -0.5364981898
O   O13       1.0  0.91466  0.75735  0.76547  1.0000 -0.5364981898
O   O14       1.0  0.76547  0.91466  0.75735  1.0000 -0.5364981898
O   O15       1.0  0.20100  0.36923  0.34685  1.0000 -0.553152875
O   O16       1.0  0.36923  0.34685  0.20100  1.0000 -0.553152875
O   O17       1.0  0.34685  0.20100  0.36923  1.0000 -0.553152875
O   O18       1.0  0.29900  0.15315  0.13077  1.0000 -0.553152875
O   O19       1.0  0.13077  0.29900  0.15315  1.0000 -0.553152875
O   O20       1.0  0.15315  0.13077  0.29900  1.0000 -0.553152875
O   O21       1.0  0.79900  0.63077  0.65315  1.0000 -0.553152875
O   O22       1.0  0.63077  0.65315  0.79900  1.0000 -0.553152875
O   O23       1.0  0.65315  0.79900  0.63077  1.0000 -0.553152875
O   O24       1.0  0.70100  0.84685  0.86923  1.0000 -0.553152875
O   O25       1.0  0.86923  0.70100  0.84685  1.0000 -0.553152875
O   O26       1.0  0.84685  0.86923  0.70100  1.0000 -0.553152875
