# DDEC6 charges by PACMAN v1.1 (https://github.com/mtap-research/PACMAN-charge/)
data_2013[Gd][nan]3[FSR]1
_chemical_formula_sum              "Gd16 H120 C96 N24 O96"
_cell_length_a       19.2163
_cell_length_b       19.2163
_cell_length_c       19.2163
_cell_angle_alpha    95.5434
_cell_angle_beta     95.5434
_cell_angle_gamma    143.785

_symmetry_space_group_name_H-M    "P 1"
_symmetry_Int_Tables_number       1

loop_
  _symmetry_equiv_pos_as_xyz
  'x, y, z'

loop_
  _atom_site_type_symbol
  _atom_site_label
  _atom_site_symmetry_multiplicity
  _atom_site_fract_x
  _atom_site_fract_y
  _atom_site_fract_z
  _atom_site_occupancy
  _atom_site_charge
Gd  Gd1       1.0  0.67271  0.44383  0.35568  1.0000 1.8856547951
Gd  Gd2       1.0  0.08815  0.31703  0.64432  1.0000 1.8856547951
Gd  Gd3       1.0  0.56703  0.42271  0.72888  1.0000 1.8856547951
Gd  Gd4       1.0  0.69383  0.83815  0.27112  1.0000 1.8856547951
Gd  Gd5       1.0  0.57729  0.30617  0.14432  1.0000 1.8856547951
Gd  Gd6       1.0  0.16185  0.43297  0.85568  1.0000 1.8856547951
Gd  Gd7       1.0  0.68297  0.32729  0.77112  1.0000 1.8856547951
Gd  Gd8       1.0  0.55617  0.91185  0.22888  1.0000 1.8856547951
Gd  Gd9       1.0  0.43966  0.39088  0.38712  1.0000 1.9783343106
Gd  Gd10      1.0  0.00376  0.05254  0.61288  1.0000 1.9783343106
Gd  Gd11      1.0  0.30254  0.18966  0.54878  1.0000 1.9783343106
Gd  Gd12      1.0  0.64088  0.75376  0.45122  1.0000 1.9783343106
Gd  Gd13      1.0  0.81034  0.35912  0.11288  1.0000 1.9783343106
Gd  Gd14      1.0  0.24624  0.69746  0.88712  1.0000 1.9783343106
Gd  Gd15      1.0  0.94746  0.56034  0.95122  1.0000 1.9783343106
Gd  Gd16      1.0  0.60912  0.99624  0.04878  1.0000 1.9783343106
H   H1        1.0  0.19100  0.17700  0.28000  1.0000 0.2593460671
H   H2        1.0  0.89700  0.91100  0.72000  1.0000 0.2593460671
H   H3        1.0  0.16100  0.94100  0.51400  1.0000 0.2593460671
H   H4        1.0  0.42700  0.64700  0.48600  1.0000 0.2593460671
H   H5        1.0  0.05900  0.57300  0.22000  1.0000 0.2593460671
H   H6        1.0  0.35300  0.83900  0.78000  1.0000 0.2593460671
H   H7        1.0  0.08900  0.80900  0.98600  1.0000 0.2593460671
H   H8        1.0  0.82300  0.10300  0.01400  1.0000 0.2593460671
H   H9        1.0  0.93300  0.70700  0.38800  1.0000 0.253184992
H   H10       1.0  0.31900  0.54500  0.61200  1.0000 0.253184992
H   H11       1.0  0.79500  0.68300  0.72600  1.0000 0.253184992
H   H12       1.0  0.95700  0.06900  0.27400  1.0000 0.253184992
H   H13       1.0  0.31700  0.04300  0.11200  1.0000 0.253184992
H   H14       1.0  0.93100  0.20500  0.88800  1.0000 0.253184992
H   H15       1.0  0.45500  0.06700  0.77400  1.0000 0.253184992
H   H16       1.0  0.29300  0.68100  0.22600  1.0000 0.253184992
H   H17       1.0  0.21360  0.10610  0.18750  1.0000 0.1426522016
H   H18       1.0  0.91860  0.02610  0.81250  1.0000 0.1426522016
H   H19       1.0  0.27610  0.96360  0.60750  1.0000 0.1426522016
H   H20       1.0  0.35610  0.66860  0.39250  1.0000 0.1426522016
H   H21       1.0  0.03640  0.64390  0.31250  1.0000 0.1426522016
H   H22       1.0  0.33140  0.72390  0.68750  1.0000 0.1426522016
H   H23       1.0  0.97390  0.78640  0.89250  1.0000 0.1426522016
H   H24       1.0  0.89390  0.08140  0.10750  1.0000 0.1426522016
H   H25       1.0  0.26180  0.22170  0.18890  1.0000 0.1502296938
H   H26       1.0  0.03280  0.07290  0.81110  1.0000 0.1502296938
H   H27       1.0  0.32290  0.01180  0.54010  1.0000 0.1502296938
H   H28       1.0  0.47170  0.78280  0.45990  1.0000 0.1502296938
H   H29       1.0  0.98820  0.52830  0.31110  1.0000 0.1502296938
H   H30       1.0  0.21720  0.67710  0.68890  1.0000 0.1502296938
H   H31       1.0  0.92710  0.73820  0.95990  1.0000 0.1502296938
H   H32       1.0  0.77830  0.96720  0.04010  1.0000 0.1502296938
H   H33       1.0  0.62100  0.25800  0.38900  1.0000 0.244342289
H   H34       1.0  0.86900  0.23200  0.61100  1.0000 0.244342289
H   H35       1.0  0.48200  0.37100  0.86300  1.0000 0.244342289
H   H36       1.0  0.50800  0.61900  0.13700  1.0000 0.244342289
H   H37       1.0  0.62900  0.49200  0.11100  1.0000 0.244342289
H   H38       1.0  0.38100  0.51800  0.88900  1.0000 0.244342289
H   H39       1.0  0.76800  0.37900  0.63700  1.0000 0.244342289
H   H40       1.0  0.74200  0.13100  0.36300  1.0000 0.244342289
H   H41       1.0  0.90410  0.75170  0.47660  1.0000 0.1426522016
H   H42       1.0  0.27510  0.42750  0.52340  1.0000 0.1426522016
H   H43       1.0  0.67750  0.65410  0.65240  1.0000 0.1426522016
H   H44       1.0  0.00170  0.02510  0.34760  1.0000 0.1426522016
H   H45       1.0  0.34590  0.99830  0.02340  1.0000 0.1426522016
H   H46       1.0  0.97490  0.32250  0.97660  1.0000 0.1426522016
H   H47       1.0  0.57250  0.09590  0.84760  1.0000 0.1426522016
H   H48       1.0  0.24830  0.72490  0.15240  1.0000 0.1426522016
H   H49       1.0  0.92280  0.82010  0.42370  1.0000 0.1502296938
H   H50       1.0  0.39640  0.49910  0.57630  1.0000 0.1502296938
H   H51       1.0  0.74910  0.67280  0.60270  1.0000 0.1502296938
H   H52       1.0  0.07010  0.14640  0.39730  1.0000 0.1502296938
H   H53       1.0  0.32720  0.92990  0.07630  1.0000 0.1502296938
H   H54       1.0  0.85360  0.25090  0.92370  1.0000 0.1502296938
H   H55       1.0  0.50090  0.07720  0.89730  1.0000 0.1502296938
H   H56       1.0  0.17990  0.60360  0.10270  1.0000 0.1502296938
H   H57       1.0  0.10670  0.01070  0.28520  1.0000 0.1426522016
H   H58       1.0  0.72550  0.82150  0.71480  1.0000 0.1426522016
H   H59       1.0  0.07150  0.85670  0.59600  1.0000 0.1426522016
H   H60       1.0  0.26070  0.47550  0.40400  1.0000 0.1426522016
H   H61       1.0  0.14330  0.73930  0.21480  1.0000 0.1426522016
H   H62       1.0  0.52450  0.92850  0.78520  1.0000 0.1426522016
H   H63       1.0  0.17850  0.89330  0.90400  1.0000 0.1426522016
H   H64       1.0  0.98930  0.27450  0.09600  1.0000 0.1426522016
H   H65       1.0  0.23320  0.07520  0.30040  1.0000 0.1502296938
H   H66       1.0  0.77480  0.93280  0.69960  1.0000 0.1502296938
H   H67       1.0  0.18280  0.98320  0.65800  1.0000 0.1502296938
H   H68       1.0  0.32520  0.52480  0.34200  1.0000 0.1502296938
H   H69       1.0  0.01680  0.67480  0.19960  1.0000 0.1502296938
H   H70       1.0  0.47520  0.81720  0.80040  1.0000 0.1502296938
H   H71       1.0  0.06720  0.76680  0.84200  1.0000 0.1502296938
H   H72       1.0  0.92480  0.22520  0.15800  1.0000 0.1502296938
H   H73       1.0  0.52680  0.18810  0.46750  1.0000 0.1502296938
H   H74       1.0  0.72060  0.05930  0.53250  1.0000 0.1502296938
H   H75       1.0  0.30930  0.27680  0.83870  1.0000 0.1502296938
H   H76       1.0  0.43810  0.47060  0.16130  1.0000 0.1502296938
H   H77       1.0  0.72320  0.56190  0.03250  1.0000 0.1502296938
H   H78       1.0  0.52940  0.69070  0.96750  1.0000 0.1502296938
H   H79       1.0  0.94070  0.47320  0.66130  1.0000 0.1502296938
H   H80       1.0  0.81190  0.27940  0.33870  1.0000 0.1502296938
H   H81       1.0  0.63490  0.32020  0.52390  1.0000 0.1329874425
H   H82       1.0  0.79630  0.11100  0.47610  1.0000 0.1329874425
H   H83       1.0  0.36100  0.38490  0.81470  1.0000 0.1329874425
H   H84       1.0  0.57020  0.54630  0.18530  1.0000 0.1329874425
H   H85       1.0  0.61510  0.42980  0.97610  1.0000 0.1329874425
H   H86       1.0  0.45370  0.63900  0.02390  1.0000 0.1329874425
H   H87       1.0  0.88900  0.36510  0.68530  1.0000 0.1329874425
H   H88       1.0  0.67980  0.20370  0.31470  1.0000 0.1329874425
H   H89       1.0  0.83390  0.72670  0.30120  1.0000 0.1502296938
H   H90       1.0  0.42550  0.53270  0.69880  1.0000 0.1502296938
H   H91       1.0  0.78270  0.58390  0.60720  1.0000 0.1502296938
H   H92       1.0  0.97670  0.17550  0.39280  1.0000 0.1502296938
H   H93       1.0  0.41610  0.02330  0.19880  1.0000 0.1502296938
H   H94       1.0  0.82450  0.21730  0.80120  1.0000 0.1502296938
H   H95       1.0  0.46730  0.16610  0.89280  1.0000 0.1502296938
H   H96       1.0  0.27330  0.57450  0.10720  1.0000 0.1502296938
H   H97       1.0  0.95400  0.78210  0.30350  1.0000 0.1426522016
H   H98       1.0  0.47860  0.65050  0.69650  1.0000 0.1426522016
H   H99       1.0  0.90050  0.70400  0.67190  1.0000 0.1426522016
H   H100      1.0  0.03210  0.22860  0.32810  1.0000 0.1426522016
H   H101      1.0  0.29600  0.96790  0.19650  1.0000 0.1426522016
H   H102      1.0  0.77140  0.09950  0.80350  1.0000 0.1426522016
H   H103      1.0  0.34950  0.04600  0.82810  1.0000 0.1426522016
H   H104      1.0  0.21790  0.52140  0.17190  1.0000 0.1426522016
H   H105      1.0  0.77990  0.37410  0.50100  1.0000 0.1189868479
H   H106      1.0  0.87310  0.27890  0.49900  1.0000 0.1189868479
H   H107      1.0  0.52890  0.52990  0.90580  1.0000 0.1189868479
H   H108      1.0  0.62410  0.62310  0.09420  1.0000 0.1189868479
H   H109      1.0  0.47010  0.37590  0.99900  1.0000 0.1189868479
H   H110      1.0  0.37690  0.47110  0.00100  1.0000 0.1189868479
H   H111      1.0  0.72110  0.22010  0.59420  1.0000 0.1189868479
H   H112      1.0  0.62590  0.12690  0.40580  1.0000 0.1189868479
H   H113      1.0  0.81370  0.39860  0.42710  1.0000 0.1329874425
H   H114      1.0  0.97150  0.38660  0.57290  1.0000 0.1329874425
H   H115      1.0  0.63660  0.56370  0.91510  1.0000 0.1329874425
H   H116      1.0  0.64860  0.72150  0.08490  1.0000 0.1329874425
H   H117      1.0  0.43630  0.35140  0.07290  1.0000 0.1329874425
H   H118      1.0  0.27850  0.36340  0.92710  1.0000 0.1329874425
H   H119      1.0  0.61340  0.18630  0.58490  1.0000 0.1329874425
H   H120      1.0  0.60140  0.02850  0.41510  1.0000 0.1329874425
C   C1        1.0  0.27280  0.18990  0.21610  1.0000 -0.246800986
C   C2        1.0  0.97380  0.05670  0.78390  1.0000 -0.246800986
C   C3        1.0  0.30670  0.02280  0.58290  1.0000 -0.246800986
C   C4        1.0  0.43990  0.72380  0.41710  1.0000 -0.246800986
C   C5        1.0  0.97720  0.56010  0.28390  1.0000 -0.246800986
C   C6        1.0  0.27620  0.69330  0.71610  1.0000 -0.246800986
C   C7        1.0  0.94330  0.72720  0.91710  1.0000 -0.246800986
C   C8        1.0  0.81010  0.02620  0.08290  1.0000 -0.246800986
C   C9        1.0  0.21030  0.10990  0.39320  1.0000 0.6220737724
C   C10       1.0  0.71670  0.81710  0.60680  1.0000 0.6220737724
C   C11       1.0  0.06710  0.96030  0.60040  1.0000 0.6220737724
C   C12       1.0  0.35990  0.46670  0.39960  1.0000 0.6220737724
C   C13       1.0  0.03970  0.64010  0.10680  1.0000 0.6220737724
C   C14       1.0  0.53330  0.93290  0.89320  1.0000 0.6220737724
C   C15       1.0  0.18290  0.78970  0.89960  1.0000 0.6220737724
C   C16       1.0  0.89010  0.28330  0.10040  1.0000 0.6220737724
C   C17       1.0  0.74520  0.66790  0.42390  1.0000 0.6908519446
C   C18       1.0  0.24400  0.32130  0.57610  1.0000 0.6908519446
C   C19       1.0  0.57130  0.49520  0.57730  1.0000 0.6908519446
C   C20       1.0  0.91790  0.99400  0.42270  1.0000 0.6908519446
C   C21       1.0  0.50480  0.08210  0.07610  1.0000 0.6908519446
C   C22       1.0  0.00600  0.42870  0.92390  1.0000 0.6908519446
C   C23       1.0  0.67870  0.25480  0.92270  1.0000 0.6908519446
C   C24       1.0  0.33210  0.75600  0.07730  1.0000 0.6908519446
C   C25       1.0  0.40050  0.26720  0.22590  1.0000 0.6737545609
C   C26       1.0  0.04130  0.17460  0.77410  1.0000 0.6737545609
C   C27       1.0  0.42460  0.15050  0.63330  1.0000 0.6737545609
C   C28       1.0  0.51720  0.79130  0.36670  1.0000 0.6737545609
C   C29       1.0  0.84950  0.48280  0.27410  1.0000 0.6737545609
C   C30       1.0  0.20870  0.57540  0.72590  1.0000 0.6737545609
C   C31       1.0  0.82540  0.59950  0.86670  1.0000 0.6737545609
C   C32       1.0  0.73280  0.95870  0.13330  1.0000 0.6737545609
C   C33       1.0  0.86910  0.73960  0.42870  1.0000 -0.2623522327
C   C34       1.0  0.31090  0.44040  0.57130  1.0000 -0.2623522327
C   C35       1.0  0.69040  0.61910  0.62950  1.0000 -0.2623522327
C   C36       1.0  0.98960  0.06090  0.37050  1.0000 -0.2623522327
C   C37       1.0  0.38090  0.01040  0.07130  1.0000 -0.2623522327
C   C38       1.0  0.93910  0.30960  0.92870  1.0000 -0.2623522327
C   C39       1.0  0.55960  0.13090  0.87050  1.0000 -0.2623522327
C   C40       1.0  0.26040  0.68910  0.12950  1.0000 -0.2623522327
C   C41       1.0  0.19400  0.08630  0.31170  1.0000 -0.23028302
C   C42       1.0  0.77460  0.88230  0.68830  1.0000 -0.23028302
C   C43       1.0  0.13230  0.94400  0.60770  1.0000 -0.23028302
C   C44       1.0  0.33630  0.52460  0.39230  1.0000 -0.23028302
C   C45       1.0  0.05600  0.66370  0.18830  1.0000 -0.23028302
C   C46       1.0  0.47540  0.86770  0.81170  1.0000 -0.23028302
C   C47       1.0  0.11770  0.80600  0.89230  1.0000 -0.23028302
C   C48       1.0  0.91370  0.22540  0.10770  1.0000 -0.23028302
C   C49       1.0  0.50260  0.27460  0.46220  1.0000 0.700015205
C   C50       1.0  0.81240  0.04040  0.53780  1.0000 0.700015205
C   C51       1.0  0.29040  0.25260  0.72800  1.0000 0.700015205
C   C52       1.0  0.52460  0.56240  0.27200  1.0000 0.700015205
C   C53       1.0  0.74740  0.47540  0.03780  1.0000 0.700015205
C   C54       1.0  0.43760  0.70960  0.96220  1.0000 0.700015205
C   C55       1.0  0.95960  0.49740  0.77200  1.0000 0.700015205
C   C56       1.0  0.72540  0.18760  0.22800  1.0000 0.700015205
C   C57       1.0  0.58120  0.27270  0.47390  1.0000 -0.23028302
C   C58       1.0  0.79880  0.10730  0.52610  1.0000 -0.23028302
C   C59       1.0  0.35730  0.33120  0.80850  1.0000 -0.23028302
C   C60       1.0  0.52270  0.54880  0.19150  1.0000 -0.23028302
C   C61       1.0  0.66880  0.47730  0.02610  1.0000 -0.23028302
C   C62       1.0  0.45120  0.64270  0.97390  1.0000 -0.23028302
C   C63       1.0  0.89270  0.41880  0.69150  1.0000 -0.23028302
C   C64       1.0  0.72730  0.20120  0.30850  1.0000 -0.23028302
C   C65       1.0  0.86900  0.70900  0.30360  1.0000 -0.2235287492
C   C66       1.0  0.40540  0.56540  0.69640  1.0000 -0.2235287492
C   C67       1.0  0.81540  0.61900  0.66000  1.0000 -0.2235287492
C   C68       1.0  0.95900  0.15540  0.34000  1.0000 -0.2235287492
C   C69       1.0  0.38100  0.04100  0.19640  1.0000 -0.2235287492
C   C70       1.0  0.84460  0.18460  0.80360  1.0000 -0.2235287492
C   C71       1.0  0.43460  0.13100  0.84000  1.0000 -0.2235287492
C   C72       1.0  0.29100  0.59460  0.16000  1.0000 -0.2235287492
C   C73       1.0  0.79590  0.60080  0.23650  1.0000 0.6220737724
C   C74       1.0  0.36430  0.55940  0.76350  1.0000 0.6220737724
C   C75       1.0  0.80940  0.54590  0.69510  1.0000 0.6220737724
C   C76       1.0  0.85080  0.11430  0.30490  1.0000 0.6220737724
C   C77       1.0  0.45410  0.14920  0.26350  1.0000 0.6220737724
C   C78       1.0  0.88570  0.19060  0.73650  1.0000 0.6220737724
C   C79       1.0  0.44060  0.20410  0.80490  1.0000 0.6220737724
C   C80       1.0  0.39920  0.63570  0.19510  1.0000 0.6220737724
C   C81       1.0  0.86770  0.53970  0.49140  1.0000 0.6220737724
C   C82       1.0  0.04830  0.37630  0.50860  1.0000 0.6220737724
C   C83       1.0  0.62630  0.61770  0.82800  1.0000 0.6220737724
C   C84       1.0  0.78970  0.79830  0.17200  1.0000 0.6220737724
C   C85       1.0  0.38230  0.21030  0.00860  1.0000 0.6220737724
C   C86       1.0  0.20170  0.37370  0.99140  1.0000 0.6220737724
C   C87       1.0  0.62370  0.13230  0.67200  1.0000 0.6220737724
C   C88       1.0  0.46030  0.95170  0.32800  1.0000 0.6220737724
C   C89       1.0  0.78120  0.40170  0.46090  1.0000 -0.237136227
C   C90       1.0  0.94080  0.32030  0.53910  1.0000 -0.237136227
C   C91       1.0  0.57030  0.53120  0.87950  1.0000 -0.237136227
C   C92       1.0  0.65170  0.69080  0.12050  1.0000 -0.237136227
C   C93       1.0  0.46880  0.34830  0.03910  1.0000 -0.237136227
C   C94       1.0  0.30920  0.42970  0.96090  1.0000 -0.237136227
C   C95       1.0  0.67970  0.21880  0.62050  1.0000 -0.237136227
C   C96       1.0  0.59830  0.05920  0.37950  1.0000 -0.237136227
N   N1        1.0  0.24740  0.18820  0.28720  1.0000 -0.352460618
N   N2        1.0  0.90100  0.96020  0.71280  1.0000 -0.352460618
N   N3        1.0  0.21020  0.99740  0.55920  1.0000 -0.352460618
N   N4        1.0  0.43820  0.65100  0.44080  1.0000 -0.352460618
N   N5        1.0  0.00260  0.56180  0.21280  1.0000 -0.352460618
N   N6        1.0  0.34900  0.78980  0.78720  1.0000 -0.352460618
N   N7        1.0  0.03980  0.75260  0.94080  1.0000 -0.352460618
N   N8        1.0  0.81180  0.09900  0.05920  1.0000 -0.352460618
N   N9        1.0  0.86480  0.67740  0.37160  1.0000 -0.352460618
N   N10       1.0  0.30580  0.49320  0.62840  1.0000 -0.352460618
N   N11       1.0  0.74320  0.61480  0.68740  1.0000 -0.352460618
N   N12       1.0  0.92740  0.05580  0.31260  1.0000 -0.352460618
N   N13       1.0  0.38520  0.07260  0.12840  1.0000 -0.352460618
N   N14       1.0  0.94420  0.25680  0.87160  1.0000 -0.352460618
N   N15       1.0  0.50680  0.13520  0.81260  1.0000 -0.352460618
N   N16       1.0  0.32260  0.69420  0.18740  1.0000 -0.352460618
N   N17       1.0  0.65660  0.32250  0.42330  1.0000 -0.3589696408
N   N18       1.0  0.89920  0.23330  0.57670  1.0000 -0.3589696408
N   N19       1.0  0.48330  0.40660  0.83410  1.0000 -0.3589696408
N   N20       1.0  0.57250  0.64920  0.16590  1.0000 -0.3589696408
N   N21       1.0  0.59340  0.42750  0.07670  1.0000 -0.3589696408
N   N22       1.0  0.35080  0.51670  0.92330  1.0000 -0.3589696408
N   N23       1.0  0.76670  0.34340  0.66590  1.0000 -0.3589696408
N   N24       1.0  0.67750  0.10080  0.33410  1.0000 -0.3589696408
O   O1        1.0  0.42630  0.26130  0.17260  1.0000 -0.578140621
O   O2        1.0  0.08870  0.25370  0.82740  1.0000 -0.578140621
O   O3        1.0  0.50370  0.17630  0.66500  1.0000 -0.578140621
O   O4        1.0  0.51130  0.83870  0.33500  1.0000 -0.578140621
O   O5        1.0  0.82370  0.48870  0.32740  1.0000 -0.578140621
O   O6        1.0  0.16130  0.49630  0.67260  1.0000 -0.578140621
O   O7        1.0  0.74630  0.57370  0.83500  1.0000 -0.578140621
O   O8        1.0  0.73870  0.91130  0.16500  1.0000 -0.578140621
O   O9        1.0  0.15340  0.02750  0.42230  1.0000 -0.5679827155
O   O10       1.0  0.60520  0.73110  0.57770  1.0000 -0.5679827155
O   O11       1.0  0.98110  0.90340  0.62590  1.0000 -0.5679827155
O   O12       1.0  0.27750  0.35520  0.37410  1.0000 -0.5679827155
O   O13       1.0  0.09660  0.72250  0.07770  1.0000 -0.5679827155
O   O14       1.0  0.64480  0.01890  0.92230  1.0000 -0.5679827155
O   O15       1.0  0.26890  0.84660  0.87410  1.0000 -0.5679827155
O   O16       1.0  0.97250  0.39480  0.12590  1.0000 -0.5679827155
O   O17       1.0  0.65260  0.55050  0.39450  1.0000 -0.7179912114
O   O18       1.0  0.15600  0.25810  0.60550  1.0000 -0.7179912114
O   O19       1.0  0.50810  0.40260  0.60210  1.0000 -0.7179912114
O   O20       1.0  0.80050  0.90600  0.39790  1.0000 -0.7179912114
O   O21       1.0  0.59740  0.19950  0.10550  1.0000 -0.7179912114
O   O22       1.0  0.09400  0.49190  0.89450  1.0000 -0.7179912114
O   O23       1.0  0.74190  0.34740  0.89790  1.0000 -0.7179912114
O   O24       1.0  0.44950  0.84400  0.10210  1.0000 -0.7179912114
O   O25       1.0  0.29170  0.22180  0.43010  1.0000 -0.7300282986
O   O26       1.0  0.79170  0.86160  0.56990  1.0000 -0.7300282986
O   O27       1.0  0.11160  0.04170  0.56990  1.0000 -0.7300282986
O   O28       1.0  0.47180  0.54170  0.43010  1.0000 -0.7300282986
O   O29       1.0  0.95830  0.52820  0.06990  1.0000 -0.7300282986
O   O30       1.0  0.45830  0.88840  0.93010  1.0000 -0.7300282986
O   O31       1.0  0.13840  0.70830  0.93010  1.0000 -0.7300282986
O   O32       1.0  0.77820  0.20830  0.06990  1.0000 -0.7300282986
O   O33       1.0  0.73470  0.72000  0.44810  1.0000 -0.6012012185
O   O34       1.0  0.27190  0.28660  0.55190  1.0000 -0.6012012185
O   O35       1.0  0.53660  0.48470  0.51470  1.0000 -0.6012012185
O   O36       1.0  0.97000  0.02190  0.48530  1.0000 -0.6012012185
O   O37       1.0  0.51530  0.03000  0.05190  1.0000 -0.6012012185
O   O38       1.0  0.97810  0.46340  0.94810  1.0000 -0.6012012185
O   O39       1.0  0.71340  0.26530  0.98530  1.0000 -0.6012012185
O   O40       1.0  0.28000  0.72810  0.01470  1.0000 -0.6012012185
O   O41       1.0  0.47460  0.33360  0.29180  1.0000 -0.7179912114
O   O42       1.0  0.04180  0.18280  0.70820  1.0000 -0.7179912114
O   O43       1.0  0.43280  0.22460  0.64100  1.0000 -0.7179912114
O   O44       1.0  0.58360  0.79180  0.35900  1.0000 -0.7179912114
O   O45       1.0  0.77540  0.41640  0.20820  1.0000 -0.7179912114
O   O46       1.0  0.20820  0.56720  0.79180  1.0000 -0.7179912114
O   O47       1.0  0.81720  0.52540  0.85900  1.0000 -0.7179912114
O   O48       1.0  0.66640  0.95820  0.14100  1.0000 -0.7179912114
O   O49       1.0  0.69670  0.49090  0.23980  1.0000 -0.7300282986
O   O50       1.0  0.25110  0.45690  0.76020  1.0000 -0.7300282986
O   O51       1.0  0.70690  0.44670  0.70580  1.0000 -0.7300282986
O   O52       1.0  0.74090  0.00110  0.29420  1.0000 -0.7300282986
O   O53       1.0  0.55330  0.25910  0.26020  1.0000 -0.7300282986
O   O54       1.0  0.99890  0.29310  0.73980  1.0000 -0.7300282986
O   O55       1.0  0.54310  0.30330  0.79420  1.0000 -0.7300282986
O   O56       1.0  0.50910  0.74890  0.20580  1.0000 -0.7300282986
O   O57       1.0  0.41520  0.20440  0.48980  1.0000 -0.6473163189
O   O58       1.0  0.71460  0.92540  0.51020  1.0000 -0.6473163189
O   O59       1.0  0.17540  0.16520  0.71080  1.0000 -0.6473163189
O   O60       1.0  0.45440  0.46460  0.28920  1.0000 -0.6473163189
O   O61       1.0  0.83480  0.54560  0.01020  1.0000 -0.6473163189
O   O62       1.0  0.53540  0.82460  0.98980  1.0000 -0.6473163189
O   O63       1.0  0.07460  0.58480  0.78920  1.0000 -0.6473163189
O   O64       1.0  0.79560  0.28540  0.21080  1.0000 -0.6473163189
O   O65       1.0  0.52670  0.34060  0.42650  1.0000 -0.6820448459
O   O66       1.0  0.91410  0.10020  0.57350  1.0000 -0.6820448459
O   O67       1.0  0.35020  0.27670  0.68610  1.0000 -0.6820448459
O   O68       1.0  0.59060  0.66410  0.31390  1.0000 -0.6820448459
O   O69       1.0  0.72330  0.40940  0.07350  1.0000 -0.6820448459
O   O70       1.0  0.33590  0.64980  0.92650  1.0000 -0.6820448459
O   O71       1.0  0.89980  0.47330  0.81390  1.0000 -0.6820448459
O   O72       1.0  0.65940  0.08590  0.18610  1.0000 -0.6820448459
O   O73       1.0  0.81670  0.55570  0.47460  1.0000 -0.666362253
O   O74       1.0  0.08110  0.34210  0.52540  1.0000 -0.666362253
O   O75       1.0  0.59210  0.56670  0.76100  1.0000 -0.666362253
O   O76       1.0  0.80570  0.83110  0.23900  1.0000 -0.666362253
O   O77       1.0  0.43330  0.19430  0.02540  1.0000 -0.666362253
O   O78       1.0  0.16890  0.40790  0.97460  1.0000 -0.666362253
O   O79       1.0  0.65790  0.18330  0.73900  1.0000 -0.666362253
O   O80       1.0  0.44430  0.91890  0.26100  1.0000 -0.666362253
O   O81       1.0  0.83180  0.62270  0.18150  1.0000 -0.523861167
O   O82       1.0  0.44120  0.65030  0.81850  1.0000 -0.523861167
O   O83       1.0  0.90030  0.58180  0.70910  1.0000 -0.523861167
O   O84       1.0  0.87270  0.19120  0.29090  1.0000 -0.523861167
O   O85       1.0  0.41820  0.12730  0.31850  1.0000 -0.523861167
O   O86       1.0  0.80880  0.09970  0.68150  1.0000 -0.523861167
O   O87       1.0  0.34970  0.16820  0.79090  1.0000 -0.523861167
O   O88       1.0  0.37730  0.55880  0.20910  1.0000 -0.523861167
O   O89       1.0  0.97830  0.61720  0.52350  1.0000 -0.6012012185
O   O90       1.0  0.09370  0.45480  0.47650  1.0000 -0.6012012185
O   O91       1.0  0.70480  0.72830  0.86110  1.0000 -0.6012012185
O   O92       1.0  0.86720  0.84370  0.13890  1.0000 -0.6012012185
O   O93       1.0  0.27170  0.13280  0.97650  1.0000 -0.6012012185
O   O94       1.0  0.15630  0.29520  0.02350  1.0000 -0.6012012185
O   O95       1.0  0.54520  0.02170  0.63890  1.0000 -0.6012012185
O   O96       1.0  0.38280  0.90630  0.36110  1.0000 -0.6012012185
