# DDEC6 charges by PACMAN v1.1 (https://github.com/mtap-research/PACMAN-charge/)
data_2013[Zn][sod]3[FSR]2
_chemical_formula_sum              "Zn4 H48 C84 N8 O28"
_cell_length_a       14.288
_cell_length_b       14.288
_cell_length_c       16.3416
_cell_angle_alpha    88.1815
_cell_angle_beta     91.8185
_cell_angle_gamma    54.5004

_symmetry_space_group_name_H-M    "P 1"
_symmetry_Int_Tables_number       1

loop_
  _symmetry_equiv_pos_as_xyz
  'x, y, z'

loop_
  _atom_site_type_symbol
  _atom_site_label
  _atom_site_symmetry_multiplicity
  _atom_site_fract_x
  _atom_site_fract_y
  _atom_site_fract_z
  _atom_site_occupancy
  _atom_site_charge
Zn  Zn1       1.0  0.00768  0.31474  0.85797  1.0000 0.8471272199
Zn  Zn2       1.0  0.31474  0.00768  0.14203  1.0000 0.8471272199
Zn  Zn3       1.0  0.99232  0.68526  0.14203  1.0000 0.8471272199
Zn  Zn4       1.0  0.68526  0.99232  0.85797  1.0000 0.8471272199
H   H1        1.0  0.59570  0.99010  0.62070  1.0000 0.1298147572
H   H2        1.0  0.99010  0.59570  0.37930  1.0000 0.1298147572
H   H3        1.0  0.40430  0.00990  0.37930  1.0000 0.1298147572
H   H4        1.0  0.00990  0.40430  0.62070  1.0000 0.1298147572
H   H5        1.0  0.81330  0.18670  0.77670  1.0000 0.1406574
H   H6        1.0  0.18670  0.81330  0.22330  1.0000 0.1406574
H   H7        1.0  0.09610  0.45430  0.84070  1.0000 0.1203451177
H   H8        1.0  0.45430  0.09610  0.15930  1.0000 0.1203451177
H   H9        1.0  0.90390  0.54570  0.15930  1.0000 0.1203451177
H   H10       1.0  0.54570  0.90390  0.84070  1.0000 0.1203451177
H   H11       1.0  0.74300  0.84500  0.55040  1.0000 0.1298147572
H   H12       1.0  0.84500  0.74300  0.44960  1.0000 0.1298147572
H   H13       1.0  0.25700  0.15500  0.44960  1.0000 0.1298147572
H   H14       1.0  0.15500  0.25700  0.55040  1.0000 0.1298147572
H   H15       1.0  0.21450  0.15090  0.76090  1.0000 0.1406574
H   H16       1.0  0.15090  0.21450  0.23910  1.0000 0.1406574
H   H17       1.0  0.78550  0.84910  0.23910  1.0000 0.1406574
H   H18       1.0  0.84910  0.78550  0.76090  1.0000 0.1406574
H   H19       1.0  0.36270  0.36270  0.00000  1.0000 0.1406574
H   H20       1.0  0.63730  0.63730  0.00000  1.0000 0.1406574
H   H21       1.0  0.38520  0.29100  0.72140  1.0000 0.1633845775
H   H22       1.0  0.29100  0.38520  0.27860  1.0000 0.1633845775
H   H23       1.0  0.61480  0.70900  0.27860  1.0000 0.1633845775
H   H24       1.0  0.70900  0.61480  0.72140  1.0000 0.1633845775
H   H25       1.0  0.76360  0.39420  0.58450  1.0000 0.1203451177
H   H26       1.0  0.39420  0.76360  0.41550  1.0000 0.1203451177
H   H27       1.0  0.23640  0.60580  0.41550  1.0000 0.1203451177
H   H28       1.0  0.60580  0.23640  0.58450  1.0000 0.1203451177
H   H29       1.0  0.41310  0.86390  0.57910  1.0000 0.1406574
H   H30       1.0  0.86390  0.41310  0.42090  1.0000 0.1406574
H   H31       1.0  0.58690  0.13610  0.42090  1.0000 0.1406574
H   H32       1.0  0.13610  0.58690  0.57910  1.0000 0.1406574
H   H33       1.0  0.24690  0.44890  0.78950  1.0000 0.1533747746
H   H34       1.0  0.44890  0.24690  0.21050  1.0000 0.1533747746
H   H35       1.0  0.75310  0.55110  0.21050  1.0000 0.1533747746
H   H36       1.0  0.55110  0.75310  0.78950  1.0000 0.1533747746
H   H37       1.0  0.36330  0.08910  0.95200  1.0000 0.1406574
H   H38       1.0  0.08910  0.36330  0.04800  1.0000 0.1406574
H   H39       1.0  0.63670  0.91090  0.04800  1.0000 0.1406574
H   H40       1.0  0.91090  0.63670  0.95200  1.0000 0.1406574
H   H41       1.0  0.56000  0.71880  0.50930  1.0000 0.1298147572
H   H42       1.0  0.71880  0.56000  0.49070  1.0000 0.1298147572
H   H43       1.0  0.44000  0.28120  0.49070  1.0000 0.1298147572
H   H44       1.0  0.28120  0.44000  0.50930  1.0000 0.1298147572
H   H45       1.0  0.46480  0.09860  0.68900  1.0000 0.2970096974
H   H46       1.0  0.09860  0.46480  0.31100  1.0000 0.2970096974
H   H47       1.0  0.53520  0.90140  0.31100  1.0000 0.2970096974
H   H48       1.0  0.90140  0.53520  0.68900  1.0000 0.2970096974
C   C1        1.0  0.66907  0.76459  0.52218  1.0000 0.0710656533
C   C2        1.0  0.76459  0.66907  0.47782  1.0000 0.0710656533
C   C3        1.0  0.33093  0.23541  0.47782  1.0000 0.0710656533
C   C4        1.0  0.23541  0.33093  0.52218  1.0000 0.0710656533
C   C5        1.0  0.58828  0.93536  0.59855  1.0000 -0.1112453554
C   C6        1.0  0.93536  0.58828  0.40145  1.0000 -0.1112453554
C   C7        1.0  0.41172  0.06464  0.40145  1.0000 -0.1112453554
C   C8        1.0  0.06464  0.41172  0.59855  1.0000 -0.1112453554
C   C9        1.0  0.77800  0.22200  0.72530  1.0000 -0.0854131
C   C10       1.0  0.22200  0.77800  0.27470  1.0000 -0.0854131
C   C11       1.0  0.87440  0.32356  0.73057  1.0000 0.5710544197
C   C12       1.0  0.32356  0.87440  0.26943  1.0000 0.5710544197
C   C13       1.0  0.12560  0.67644  0.26943  1.0000 0.5710544197
C   C14       1.0  0.67644  0.12560  0.73057  1.0000 0.5710544197
C   C15       1.0  0.49926  0.15822  0.93918  1.0000 0.5583759455
C   C16       1.0  0.15822  0.49926  0.06082  1.0000 0.5583759455
C   C17       1.0  0.50074  0.84178  0.06082  1.0000 0.5583759455
C   C18       1.0  0.84178  0.50074  0.93918  1.0000 0.5583759455
C   C19       1.0  0.31434  0.20366  0.73345  1.0000 0.1960603802
C   C20       1.0  0.20366  0.31434  0.26655  1.0000 0.1960603802
C   C21       1.0  0.68566  0.79634  0.26655  1.0000 0.1960603802
C   C22       1.0  0.79634  0.68566  0.73345  1.0000 0.1960603802
C   C23       1.0  0.38101  0.21691  0.97094  1.0000 -0.0126745278
C   C24       1.0  0.21691  0.38101  0.02906  1.0000 -0.0126745278
C   C25       1.0  0.61899  0.78309  0.02906  1.0000 -0.0126745278
C   C26       1.0  0.78309  0.61899  0.97094  1.0000 -0.0126745278
C   C27       1.0  0.15152  0.39038  0.81352  1.0000 0.0710656533
C   C28       1.0  0.39038  0.15152  0.18648  1.0000 0.0710656533
C   C29       1.0  0.84848  0.60962  0.18648  1.0000 0.0710656533
C   C30       1.0  0.60962  0.84848  0.81352  1.0000 0.0710656533
C   C31       1.0  0.48889  0.94197  0.60819  1.0000 -0.035858373
C   C32       1.0  0.94197  0.48889  0.39181  1.0000 -0.035858373
C   C33       1.0  0.51111  0.05803  0.39181  1.0000 -0.035858373
C   C34       1.0  0.05803  0.51111  0.60819  1.0000 -0.035858373
C   C35       1.0  0.67678  0.84800  0.55622  1.0000 -0.1334186586
C   C36       1.0  0.84800  0.67678  0.44378  1.0000 -0.1334186586
C   C37       1.0  0.32322  0.15200  0.44378  1.0000 -0.1334186586
C   C38       1.0  0.15200  0.32322  0.55622  1.0000 -0.1334186586
C   C39       1.0  0.38896  0.03208  0.65419  1.0000 0.4573842643
C   C40       1.0  0.03208  0.38896  0.34581  1.0000 0.4573842643
C   C41       1.0  0.61104  0.96792  0.34581  1.0000 0.4573842643
C   C42       1.0  0.96792  0.61104  0.65419  1.0000 0.4573842643
C   C43       1.0  0.22138  0.21124  0.76623  1.0000 -0.0010334096
C   C44       1.0  0.21124  0.22138  0.23377  1.0000 -0.0010334096
C   C45       1.0  0.77862  0.78876  0.23377  1.0000 -0.0010334096
C   C46       1.0  0.78876  0.77862  0.76623  1.0000 -0.0010334096
C   C47       1.0  0.32610  0.32610  0.00000  1.0000 -0.1160158606
C   C48       1.0  0.67390  0.67390  0.00000  1.0000 -0.1160158606
C   C49       1.0  0.32396  0.29384  0.74246  1.0000 -0.0998692473
C   C50       1.0  0.29384  0.32396  0.25754  1.0000 -0.0998692473
C   C51       1.0  0.67604  0.70616  0.25754  1.0000 -0.0998692473
C   C52       1.0  0.70616  0.67604  0.74246  1.0000 -0.0998692473
C   C53       1.0  0.74990  0.34450  0.61015  1.0000 -0.0791577341
C   C54       1.0  0.34450  0.74990  0.38985  1.0000 -0.0791577341
C   C55       1.0  0.25010  0.65550  0.38985  1.0000 -0.0791577341
C   C56       1.0  0.65550  0.25010  0.61015  1.0000 -0.0791577341
C   C57       1.0  0.47973  0.86013  0.57375  1.0000 -0.0791577341
C   C58       1.0  0.86013  0.47973  0.42625  1.0000 -0.0791577341
C   C59       1.0  0.52027  0.13987  0.42625  1.0000 -0.0791577341
C   C60       1.0  0.13987  0.52027  0.57375  1.0000 -0.0791577341
C   C61       1.0  0.79991  0.29529  0.68796  1.0000 -0.0307865383
C   C62       1.0  0.29529  0.79991  0.31204  1.0000 -0.0307865383
C   C63       1.0  0.20009  0.70471  0.31204  1.0000 -0.0307865383
C   C64       1.0  0.70471  0.20009  0.68796  1.0000 -0.0307865383
C   C65       1.0  0.24169  0.38761  0.78290  1.0000 -0.0998692473
C   C66       1.0  0.38761  0.24169  0.21710  1.0000 -0.0998692473
C   C67       1.0  0.75831  0.61239  0.21710  1.0000 -0.0998692473
C   C68       1.0  0.61239  0.75831  0.78290  1.0000 -0.0998692473
C   C69       1.0  0.67950  0.32050  0.57020  1.0000 -0.0202143982
C   C70       1.0  0.32050  0.67950  0.42980  1.0000 -0.0202143982
C   C71       1.0  0.21696  0.21696  0.00000  1.0000 -0.0737841221
C   C72       1.0  0.78304  0.78304  0.00000  1.0000 -0.0737841221
C   C73       1.0  0.32648  0.16244  0.97119  1.0000 -0.1353952678
C   C74       1.0  0.16244  0.32648  0.02881  1.0000 -0.1353952678
C   C75       1.0  0.67352  0.83756  0.02881  1.0000 -0.1353952678
C   C76       1.0  0.83756  0.67352  0.97119  1.0000 -0.1353952678
C   C77       1.0  0.63150  0.36850  0.48470  1.0000 0.5384130387
C   C78       1.0  0.36850  0.63150  0.51530  1.0000 0.5384130387
C   C79       1.0  0.56806  0.77306  0.53173  1.0000 -0.1112453554
C   C80       1.0  0.77306  0.56806  0.46827  1.0000 -0.1112453554
C   C81       1.0  0.43194  0.22694  0.46827  1.0000 -0.1112453554
C   C82       1.0  0.22694  0.43194  0.53173  1.0000 -0.1112453554
C   C83       1.0  0.15799  0.15799  0.00000  1.0000 0.6075069813
C   C84       1.0  0.84201  0.84201  0.00000  1.0000 0.6075069813
N   N1        1.0  0.14159  0.30383  0.80529  1.0000 -0.2281906361
N   N2        1.0  0.30383  0.14159  0.19471  1.0000 -0.2281906361
N   N3        1.0  0.85841  0.69617  0.19471  1.0000 -0.2281906361
N   N4        1.0  0.69617  0.85841  0.80529  1.0000 -0.2281906361
N   N5        1.0  0.39951  0.10867  0.69127  1.0000 -0.3519471156
N   N6        1.0  0.10867  0.39951  0.30873  1.0000 -0.3519471156
N   N7        1.0  0.60049  0.89133  0.30873  1.0000 -0.3519471156
N   N8        1.0  0.89133  0.60049  0.69127  1.0000 -0.3519471156
O   O1        1.0  0.87548  0.40394  0.70340  1.0000 -0.560088137
O   O2        1.0  0.40394  0.87548  0.29660  1.0000 -0.560088137
O   O3        1.0  0.12452  0.59606  0.29660  1.0000 -0.560088137
O   O4        1.0  0.59606  0.12452  0.70340  1.0000 -0.560088137
O   O5        1.0  0.93241  0.26061  0.79543  1.0000 -0.5157199295
O   O6        1.0  0.26061  0.93241  0.20457  1.0000 -0.5157199295
O   O7        1.0  0.06759  0.73939  0.20457  1.0000 -0.5157199295
O   O8        1.0  0.73939  0.06759  0.79543  1.0000 -0.5157199295
O   O9        1.0  0.65745  0.42845  0.44972  1.0000 -0.44653416
O   O10       1.0  0.42845  0.65745  0.55028  1.0000 -0.44653416
O   O11       1.0  0.34255  0.57155  0.55028  1.0000 -0.44653416
O   O12       1.0  0.57155  0.34255  0.44972  1.0000 -0.44653416
O   O13       1.0  0.30171  0.03607  0.65663  1.0000 -0.4439741265
O   O14       1.0  0.03607  0.30171  0.34337  1.0000 -0.4439741265
O   O15       1.0  0.69829  0.96393  0.34337  1.0000 -0.44653416
O   O16       1.0  0.96393  0.69829  0.65663  1.0000 -0.4439741265
O   O17       1.0  0.53216  0.07096  0.89754  1.0000 -0.560088137
O   O18       1.0  0.07096  0.53216  0.10246  1.0000 -0.560088137
O   O19       1.0  0.46784  0.92904  0.10246  1.0000 -0.560088137
O   O20       1.0  0.92904  0.46784  0.89754  1.0000 -0.560088137
O   O21       1.0  0.55802  0.19284  0.95431  1.0000 -0.4835096316
O   O22       1.0  0.19284  0.55802  0.04569  1.0000 -0.4835096316
O   O23       1.0  0.44198  0.80716  0.04569  1.0000 -0.4835096316
O   O24       1.0  0.80716  0.44198  0.95431  1.0000 -0.4835096316
O   O25       1.0  0.07486  0.19262  0.94909  1.0000 -0.4835096316
O   O26       1.0  0.19262  0.07486  0.05091  1.0000 -0.4835096316
O   O27       1.0  0.92514  0.80738  0.05091  1.0000 -0.4835096316
O   O28       1.0  0.80738  0.92514  0.94909  1.0000 -0.4835096316
