# DDEC6 charges by PACMAN v1.1 (https://github.com/mtap-research/PACMAN-charge/)
data_2013[Zn][ths]3[FSR]1
_chemical_formula_sum              "Zn12 H96 C144 I24 N48"
_cell_length_a       19.1101
_cell_length_b       19.1101
_cell_length_c       30.659
_cell_angle_alpha    79.507
_cell_angle_beta     100.493
_cell_angle_gamma    134.208

_symmetry_space_group_name_H-M    "P 1"
_symmetry_Int_Tables_number       1

loop_
  _symmetry_equiv_pos_as_xyz
  'x, y, z'

loop_
  _atom_site_type_symbol
  _atom_site_label
  _atom_site_symmetry_multiplicity
  _atom_site_fract_x
  _atom_site_fract_y
  _atom_site_fract_z
  _atom_site_occupancy
  _atom_site_charge
Zn  Zn1       1.0  0.31300  0.39860  0.72020  1.0000 0.4416242012
Zn  Zn2       1.0  0.60140  0.68700  0.22020  1.0000 0.4416242012
Zn  Zn3       1.0  0.26067  0.94173  0.88044  1.0000 0.4633589336
Zn  Zn4       1.0  0.05827  0.73933  0.38044  1.0000 0.4633589336
Zn  Zn5       1.0  0.98720  0.26360  0.54263  1.0000 0.4719911018
Zn  Zn6       1.0  0.73640  0.01280  0.04263  1.0000 0.4719911018
Zn  Zn7       1.0  0.25364  0.03156  0.17270  1.0000 0.4416242012
Zn  Zn8       1.0  0.96844  0.74636  0.67270  1.0000 0.451110944
Zn  Zn9       1.0  0.31052  0.49248  0.00820  1.0000 0.451110944
Zn  Zn10      1.0  0.50752  0.68948  0.50820  1.0000 0.451110944
Zn  Zn11      1.0  0.57909  0.16811  0.34847  1.0000 0.4416242012
Zn  Zn12      1.0  0.83189  0.42091  0.84847  1.0000 0.4416242012
H   H1        1.0  0.44450  0.60570  0.68910  1.0000 0.1031162209
H   H2        1.0  0.39430  0.55550  0.18910  1.0000 0.1031162209
H   H3        1.0  0.60780  0.74360  0.68640  1.0000 0.1387041895
H   H4        1.0  0.25640  0.39220  0.18640  1.0000 0.1387041895
H   H5        1.0  0.66710  0.61970  0.78120  1.0000 0.1387041895
H   H6        1.0  0.38030  0.33290  0.28120  1.0000 0.1387041895
H   H7        1.0  0.50990  0.46550  0.76540  1.0000 0.1084148601
H   H8        1.0  0.53450  0.49010  0.26540  1.0000 0.1084148601
H   H9        1.0  0.09100  0.21640  0.61250  1.0000 0.1084148601
H   H10       1.0  0.78360  0.90900  0.11250  1.0000 0.1084148601
H   H11       1.0  0.05460  0.09600  0.66580  1.0000 0.1312290598
H   H12       1.0  0.90400  0.94540  0.16580  1.0000 0.1312290598
H   H13       1.0  0.77300  0.95380  0.63250  1.0000 0.1312290598
H   H14       1.0  0.04620  0.22700  0.13250  1.0000 0.1312290598
H   H15       1.0  0.81440  0.07640  0.58010  1.0000 0.1031162209
H   H16       1.0  0.92360  0.18560  0.08010  1.0000 0.1031162209
H   H17       1.0  0.04730  0.81210  0.87320  1.0000 0.1084148601
H   H18       1.0  0.18790  0.95270  0.37320  1.0000 0.1084148601
H   H19       1.0  0.91830  0.76970  0.82320  1.0000 0.1312290598
H   H20       1.0  0.23030  0.08170  0.32320  1.0000 0.1312290598
H   H21       1.0  0.11980  0.01340  0.74740  1.0000 0.1212614128
H   H22       1.0  0.98660  0.88020  0.24740  1.0000 0.1212614128
H   H23       1.0  0.23720  0.04300  0.80150  1.0000 0.1084148601
H   H24       1.0  0.95700  0.76280  0.30150  1.0000 0.1084148601
H   H25       1.0  0.78700  0.19060  0.51220  1.0000 0.1031162209
H   H26       1.0  0.80940  0.21300  0.01220  1.0000 0.1031162209
H   H27       1.0  0.64430  0.05850  0.47160  1.0000 0.1387041895
H   H28       1.0  0.94150  0.35570  0.97160  1.0000 0.1387041895
H   H29       1.0  0.80550  0.04310  0.41840  1.0000 0.1387041895
H   H30       1.0  0.95690  0.19450  0.91840  1.0000 0.1387041895
H   H31       1.0  0.94070  0.17790  0.45610  1.0000 0.1084148601
H   H32       1.0  0.82210  0.05930  0.95610  1.0000 0.1084148601
H   H33       1.0  0.16800  0.74640  0.33180  1.0000 0.1084148601
H   H34       1.0  0.25360  0.83200  0.83180  1.0000 0.1084148601
H   H35       1.0  0.30930  0.78410  0.32930  1.0000 0.1387041895
H   H36       1.0  0.21590  0.69070  0.82930  1.0000 0.1387041895
H   H37       1.0  0.38520  0.85940  0.45410  1.0000 0.1387041895
H   H38       1.0  0.14060  0.61480  0.95410  1.0000 0.1387041895
H   H39       1.0  0.24500  0.83180  0.45100  1.0000 0.1084148601
H   H40       1.0  0.16820  0.75500  0.95100  1.0000 0.1084148601
H   H41       1.0  0.71200  0.79400  0.30450  1.0000 0.1084148601
H   H42       1.0  0.20600  0.28800  0.80450  1.0000 0.1084148601
H   H43       1.0  0.68080  0.83540  0.36110  1.0000 0.1312290598
H   H44       1.0  0.16460  0.31920  0.86110  1.0000 0.1312290598
H   H45       1.0  0.43190  0.73550  0.29320  1.0000 0.1387041895
H   H46       1.0  0.26450  0.56810  0.79320  1.0000 0.1387041895
H   H47       1.0  0.48510  0.72990  0.23010  1.0000 0.1031162209
H   H48       1.0  0.27010  0.51490  0.73010  1.0000 0.1031162209
H   H49       1.0  0.06550  0.94830  0.11390  1.0000 0.1084148601
H   H50       1.0  0.05170  0.93450  0.61390  1.0000 0.1084148601
H   H51       1.0  0.89560  0.82120  0.12080  1.0000 0.1387041895
H   H52       1.0  0.17880  0.10440  0.62080  1.0000 0.1387041895
H   H53       1.0  0.95150  0.68010  0.21160  1.0000 0.1387041895
H   H54       1.0  0.31990  0.04850  0.71160  1.0000 0.1387041895
H   H55       1.0  0.11320  0.82820  0.21830  1.0000 0.1084148601
H   H56       1.0  0.17180  0.88680  0.71830  1.0000 0.1084148601
H   H57       1.0  0.33510  0.40230  0.09910  1.0000 0.1084148601
H   H58       1.0  0.59770  0.66490  0.59910  1.0000 0.1084148601
H   H59       1.0  0.45710  0.39970  0.12420  1.0000 0.1312290598
H   H60       1.0  0.60030  0.54290  0.62420  1.0000 0.1312290598
H   H61       1.0  0.65340  0.68280  0.07750  1.0000 0.1387041895
H   H62       1.0  0.31720  0.34660  0.57750  1.0000 0.1312290598
H   H63       1.0  0.52990  0.65130  0.02730  1.0000 0.1084148601
H   H64       1.0  0.34870  0.47010  0.52730  1.0000 0.1084148601
H   H65       1.0  0.74890  0.36370  0.30670  1.0000 0.1031162209
H   H66       1.0  0.63630  0.25110  0.80670  1.0000 0.1031162209
H   H67       1.0  0.79530  0.47930  0.24800  1.0000 0.1312290598
H   H68       1.0  0.52070  0.20470  0.74800  1.0000 0.1312290598
H   H69       1.0  0.50680  0.32440  0.22600  1.0000 0.1387041895
H   H70       1.0  0.67560  0.49320  0.72600  1.0000 0.1387041895
H   H71       1.0  0.47240  0.22020  0.28870  1.0000 0.1084148601
H   H72       1.0  0.77980  0.52760  0.78870  1.0000 0.1084148601
H   H73       1.0  0.64200  0.30620  0.40980  1.0000 0.1084148601
H   H74       1.0  0.69380  0.35800  0.90980  1.0000 0.1084148601
H   H75       1.0  0.77940  0.43200  0.45090  1.0000 0.1387041895
H   H76       1.0  0.56800  0.22060  0.95090  1.0000 0.1387041895
H   H77       1.0  0.92840  0.37140  0.41990  1.0000 0.1387041895
H   H78       1.0  0.62860  0.07160  0.91990  1.0000 0.1387041895
H   H79       1.0  0.78950  0.25510  0.37530  1.0000 0.1084148601
H   H80       1.0  0.74490  0.21050  0.87530  1.0000 0.1084148601
H   H81       1.0  0.10690  0.74330  0.64370  1.0000 0.1031162209
H   H82       1.0  0.25670  0.89310  0.14370  1.0000 0.1031162209
H   H83       1.0  0.10270  0.64090  0.60880  1.0000 0.1312290598
H   H84       1.0  0.35910  0.89730  0.10880  1.0000 0.1312290598
H   H85       1.0  0.86050  0.56230  0.53720  1.0000 0.1312290598
H   H86       1.0  0.43770  0.13950  0.03720  1.0000 0.1312290598
H   H87       1.0  0.87160  0.65600  0.58130  1.0000 0.1084148601
H   H88       1.0  0.34400  0.12840  0.08130  1.0000 0.1084148601
H   H89       1.0  0.34310  0.62670  0.44320  1.0000 0.1031162209
H   H90       1.0  0.37330  0.65690  0.94320  1.0000 0.1031162209
H   H91       1.0  0.18490  0.56570  0.43890  1.0000 0.1387041895
H   H92       1.0  0.43430  0.81510  0.93890  1.0000 0.1387041895
H   H93       1.0  0.23020  0.61920  0.56690  1.0000 0.1387041895
H   H94       1.0  0.38080  0.76980  0.06690  1.0000 0.1387041895
H   H95       1.0  0.37710  0.65690  0.57200  1.0000 0.1084148601
H   H96       1.0  0.34310  0.62290  0.07200  1.0000 0.1084148601
C   C1        1.0  0.49130  0.60450  0.70510  1.0000 0.0692577804
C   C2        1.0  0.39550  0.50870  0.20510  1.0000 0.0692577804
C   C3        1.0  0.58910  0.68750  0.70440  1.0000 -0.1727451659
C   C4        1.0  0.31250  0.41090  0.20440  1.0000 -0.1727451659
C   C5        1.0  0.66150  0.69450  0.72810  1.0000 0.0692577804
C   C6        1.0  0.30550  0.33850  0.22810  1.0000 0.0692577804
C   C7        1.0  0.62530  0.61450  0.75690  1.0000 -0.1802240661
C   C8        1.0  0.38550  0.37470  0.25690  1.0000 -0.1802240661
C   C9        1.0  0.52790  0.52450  0.75180  1.0000 0.0897241209
C   C10       1.0  0.47550  0.47210  0.25180  1.0000 0.0897241209
C   C11       1.0  0.76770  0.78690  0.73040  1.0000 0.3682510951
C   C12       1.0  0.21310  0.23230  0.23040  1.0000 0.3682510951
C   C13       1.0  0.88090  0.93350  0.69370  1.0000 0.3801917333
C   C14       1.0  0.06650  0.11910  0.19370  1.0000 0.3801917333
C   C15       1.0  0.92530  0.87470  0.75150  1.0000 0.3893695721
C   C16       1.0  0.12530  0.07470  0.25150  1.0000 0.3893695721
C   C17       1.0  0.02390  0.16070  0.61670  1.0000 0.0897241209
C   C18       1.0  0.83930  0.97610  0.11670  1.0000 0.0897241209
C   C19       1.0  0.00340  0.08900  0.64880  1.0000 -0.1607072979
C   C20       1.0  0.91100  0.99660  0.14880  1.0000 -0.1607072979
C   C21       1.0  0.90690  0.00690  0.65530  1.0000 0.0520426108
C   C22       1.0  0.99310  0.09310  0.15530  1.0000 0.0520426108
C   C23       1.0  0.84010  0.00790  0.62850  1.0000 -0.1607072979
C   C24       1.0  0.99210  0.15990  0.12850  1.0000 -0.1607072979
C   C25       1.0  0.86410  0.08110  0.59720  1.0000 0.0797659083
C   C26       1.0  0.91890  0.13590  0.09720  1.0000 0.0797659083
C   C27       1.0  0.06160  0.84820  0.84500  1.0000 0.0692577804
C   C28       1.0  0.15180  0.93840  0.34500  1.0000 0.0692577804
C   C29       1.0  0.98420  0.82660  0.81730  1.0000 -0.1331558342
C   C30       1.0  0.17340  0.01580  0.31730  1.0000 -0.1331558342
C   C31       1.0  0.00610  0.88990  0.78110  1.0000 0.0520426108
C   C32       1.0  0.11010  0.99390  0.28110  1.0000 0.0520426108
C   C33       1.0  0.10210  0.96910  0.77300  1.0000 -0.1503574955
C   C34       1.0  0.03090  0.89790  0.27300  1.0000 -0.1410486848
C   C35       1.0  0.17150  0.98170  0.80350  1.0000 0.0692577804
C   C36       1.0  0.01830  0.82850  0.30350  1.0000 0.0692577804
C   C37       1.0  0.78900  0.15300  0.49700  1.0000 0.0692577804
C   C38       1.0  0.84700  0.21100  0.99700  1.0000 0.0692577804
C   C39       1.0  0.70480  0.07720  0.47010  1.0000 -0.1410486848
C   C40       1.0  0.92280  0.29520  0.97010  1.0000 -0.1410486848
C   C41       1.0  0.70770  0.03290  0.44380  1.0000 0.0520426108
C   C42       1.0  0.96710  0.29230  0.94380  1.0000 0.0520426108
C   C43       1.0  0.79790  0.06890  0.43890  1.0000 -0.1410486848
C   C44       1.0  0.93110  0.20210  0.93890  1.0000 -0.1410486848
C   C45       1.0  0.87710  0.14270  0.46420  1.0000 0.0520426108
C   C46       1.0  0.85730  0.12290  0.96420  1.0000 0.0520426108
C   C47       1.0  0.62350  0.95610  0.41410  1.0000 0.3893695721
C   C48       1.0  0.04390  0.37650  0.91410  1.0000 0.3893695721
C   C49       1.0  0.46290  0.85910  0.39140  1.0000 0.3801917333
C   C50       1.0  0.14090  0.53710  0.89140  1.0000 0.3801917333
C   C51       1.0  0.55360  0.85040  0.36010  1.0000 0.3893695721
C   C52       1.0  0.14960  0.44640  0.86010  1.0000 0.3893695721
C   C53       1.0  0.21370  0.77170  0.35720  1.0000 0.0692577804
C   C54       1.0  0.22830  0.78630  0.85720  1.0000 0.0692577804
C   C55       1.0  0.29840  0.79440  0.35550  1.0000 -0.1503574955
C   C56       1.0  0.20560  0.70160  0.85550  1.0000 -0.1503574955
C   C57       1.0  0.36810  0.83190  0.39070  1.0000 0.0520426108
C   C58       1.0  0.16810  0.63190  0.89070  1.0000 0.0520426108
C   C59       1.0  0.34340  0.83980  0.42740  1.0000 -0.1503574955
C   C60       1.0  0.16020  0.65660  0.92740  1.0000 -0.1607072979
C   C61       1.0  0.25670  0.81890  0.42610  1.0000 0.0897241209
C   C62       1.0  0.18110  0.74330  0.92610  1.0000 0.0897241209
C   C63       1.0  0.65410  0.78190  0.30260  1.0000 0.0897241209
C   C64       1.0  0.21810  0.34590  0.80260  1.0000 0.0897241209
C   C65       1.0  0.63930  0.81270  0.33430  1.0000 -0.1410486848
C   C66       1.0  0.18730  0.36070  0.83430  1.0000 -0.1410486848
C   C67       1.0  0.56500  0.81100  0.32720  1.0000 0.0692577804
C   C68       1.0  0.18900  0.43500  0.82720  1.0000 0.0692577804
C   C69       1.0  0.49520  0.75880  0.29330  1.0000 -0.1607072979
C   C70       1.0  0.24120  0.50480  0.79330  1.0000 -0.1607072979
C   C71       1.0  0.51660  0.73940  0.25920  1.0000 0.0797659083
C   C72       1.0  0.26060  0.48340  0.75920  1.0000 0.0797659083
C   C73       1.0  0.04070  0.89650  0.13650  1.0000 0.0692577804
C   C74       1.0  0.10350  0.95930  0.63650  1.0000 0.0692577804
C   C75       1.0  0.94070  0.81770  0.13680  1.0000 -0.1503574955
C   C76       1.0  0.18230  0.05930  0.63680  1.0000 -0.1503574955
C   C77       1.0  0.90990  0.73430  0.16120  1.0000 0.0692577804
C   C78       1.0  0.26570  0.09010  0.66120  1.0000 0.0692577804
C   C79       1.0  0.97350  0.73650  0.19270  1.0000 -0.1503574955
C   C80       1.0  0.26350  0.02650  0.69270  1.0000 -0.1503574955
C   C81       1.0  0.06930  0.82350  0.19550  1.0000 0.0797659083
C   C82       1.0  0.17650  0.93070  0.69550  1.0000 0.0797659083
C   C83       1.0  0.80460  0.64260  0.16490  1.0000 0.3608799824
C   C84       1.0  0.35740  0.19540  0.66490  1.0000 0.3608799824
C   C85       1.0  0.64520  0.55340  0.14110  1.0000 0.3682510951
C   C86       1.0  0.44660  0.35480  0.64110  1.0000 0.3682510951
C   C87       1.0  0.68550  0.49350  0.19560  1.0000 0.3608799824
C   C88       1.0  0.50650  0.31450  0.69560  1.0000 0.3608799824
C   C89       1.0  0.39890  0.44990  0.08880  1.0000 0.060157999
C   C90       1.0  0.55010  0.60110  0.58880  1.0000 0.060157999
C   C91       1.0  0.47320  0.45680  0.10920  1.0000 -0.1410486848
C   C92       1.0  0.54320  0.52680  0.60920  1.0000 -0.1410486848
C   C93       1.0  0.57050  0.54330  0.10880  1.0000 0.060157999
C   C94       1.0  0.45670  0.42950  0.60880  1.0000 0.060157999
C   C95       1.0  0.58890  0.61910  0.07820  1.0000 -0.1503574955
C   C96       1.0  0.38090  0.41110  0.57820  1.0000 -0.1503574955
C   C97       1.0  0.51500  0.60180  0.04960  1.0000 0.0897241209
C   C98       1.0  0.39820  0.48500  0.54960  1.0000 0.0897241209
C   C99       1.0  0.69880  0.35780  0.28920  1.0000 0.0692577804
C   C100      1.0  0.64220  0.30120  0.78920  1.0000 0.0692577804
C   C101      1.0  0.72910  0.42750  0.25490  1.0000 -0.1503574955
C   C102      1.0  0.57250  0.27090  0.75490  1.0000 -0.1503574955
C   C103      1.0  0.65290  0.41430  0.23140  1.0000 0.0692577804
C   C104      1.0  0.58570  0.34710  0.73140  1.0000 0.0692577804
C   C105      1.0  0.55950  0.33510  0.24380  1.0000 -0.1896151318
C   C106      1.0  0.66490  0.44050  0.74380  1.0000 -0.1896151318
C   C107      1.0  0.53740  0.27100  0.28000  1.0000 0.0897241209
C   C108      1.0  0.72900  0.46260  0.78000  1.0000 0.0897241209
C   C109      1.0  0.69860  0.31560  0.41460  1.0000 0.0797659083
C   C110      1.0  0.68440  0.30140  0.91460  1.0000 0.0797659083
C   C111      1.0  0.77950  0.38930  0.43930  1.0000 -0.1503574955
C   C112      1.0  0.61070  0.22050  0.93930  1.0000 -0.1503574955
C   C113      1.0  0.86130  0.40210  0.44760  1.0000 0.0692577804
C   C114      1.0  0.59790  0.13870  0.94760  1.0000 0.0692577804
C   C115      1.0  0.86890  0.35510  0.42050  1.0000 -0.1503574955
C   C116      1.0  0.64490  0.13110  0.92050  1.0000 -0.1503574955
C   C117      1.0  0.78600  0.28520  0.39520  1.0000 0.0692577804
C   C118      1.0  0.71480  0.21400  0.89520  1.0000 0.0692577804
C   C119      1.0  0.94930  0.48110  0.47460  1.0000 0.3801917333
C   C120      1.0  0.51890  0.05070  0.97460  1.0000 0.3801917333
C   C121      1.0  0.01050  0.57750  0.53010  1.0000 0.3893695721
C   C122      1.0  0.42250  0.98950  0.03010  1.0000 0.3893695721
C   C123      1.0  0.10510  0.56690  0.50150  1.0000 0.3893695721
C   C124      1.0  0.43310  0.89490  0.00150  1.0000 0.3893695721
C   C125      1.0  0.05040  0.69760  0.62450  1.0000 0.0520426108
C   C126      1.0  0.30240  0.94960  0.12450  1.0000 0.0520426108
C   C127      1.0  0.05860  0.64940  0.60030  1.0000 -0.1410486848
C   C128      1.0  0.35060  0.94140  0.10030  1.0000 -0.1410486848
C   C129      1.0  0.99550  0.61450  0.56230  1.0000 0.0449025804
C   C130      1.0  0.38550  0.00450  0.06230  1.0000 0.0449025804
C   C131      1.0  0.91450  0.60150  0.55850  1.0000 -0.1331558342
C   C132      1.0  0.39850  0.08550  0.05850  1.0000 -0.1410486848
C   C133      1.0  0.91790  0.65010  0.58810  1.0000 0.060157999
C   C134      1.0  0.34990  0.08210  0.08810  1.0000 0.060157999
C   C135      1.0  0.31850  0.62270  0.46880  1.0000 0.0797659083
C   C136      1.0  0.37730  0.68150  0.96880  1.0000 0.0797659083
C   C137      1.0  0.22680  0.59040  0.46540  1.0000 -0.1331558342
C   C138      1.0  0.40960  0.77320  0.96540  1.0000 -0.1331558342
C   C139      1.0  0.19990  0.59510  0.50080  1.0000 0.060157999
C   C140      1.0  0.40490  0.80010  0.00080  1.0000 0.060157999
C   C141      1.0  0.25280  0.61920  0.54170  1.0000 -0.1331558342
C   C142      1.0  0.38080  0.74720  0.04170  1.0000 -0.1331558342
C   C143      1.0  0.34020  0.64380  0.54420  1.0000 0.0797659083
C   C144      1.0  0.35620  0.65980  0.04420  1.0000 0.0797659083
I   I1        1.0  0.28813  0.24867  0.74480  1.0000 -0.4207734814
I   I2        1.0  0.75133  0.71187  0.24480  1.0000 -0.4207734814
I   I3        1.0  0.24645  0.42235  0.64478  1.0000 -0.4326147547
I   I4        1.0  0.57765  0.75355  0.14478  1.0000 -0.4326147547
I   I5        1.0  0.41919  0.06041  0.84068  1.0000 -0.4655225328
I   I6        1.0  0.93959  0.58081  0.34068  1.0000 -0.4655225328
I   I7        1.0  0.23893  0.96347  0.95350  1.0000 -0.4326147547
I   I8        1.0  0.03653  0.76107  0.45350  1.0000 -0.4326147547
I   I9        1.0  0.13779  0.34113  0.50500  1.0000 -0.4326147547
I   I10       1.0  0.65887  0.86221  0.00500  1.0000 -0.4326147547
I   I11       1.0  0.95764  0.34756  0.58054  1.0000 -0.4326147547
I   I12       1.0  0.65244  0.04236  0.08054  1.0000 -0.4326147547
I   I13       1.0  0.32128  0.00692  0.24727  1.0000 -0.4114474705
I   I14       1.0  0.99308  0.67872  0.74727  1.0000 -0.4114474705
I   I15       1.0  0.28284  0.18256  0.14937  1.0000 -0.4326147547
I   I16       1.0  0.81744  0.71716  0.64937  1.0000 -0.4326147547
I   I17       1.0  0.33741  0.47359  0.93613  1.0000 -0.4207734814
I   I18       1.0  0.52641  0.66259  0.43613  1.0000 -0.4207734814
I   I19       1.0  0.15271  0.36949  0.04510  1.0000 -0.4372125617
I   I20       1.0  0.63051  0.84729  0.54510  1.0000 -0.4372125617
I   I21       1.0  0.60752  0.08308  0.31144  1.0000 -0.4207734814
I   I22       1.0  0.91692  0.39248  0.81144  1.0000 -0.4207734814
I   I23       1.0  0.42921  0.09133  0.38565  1.0000 -0.4207734814
I   I24       1.0  0.90867  0.57079  0.88565  1.0000 -0.4207734814
N   N1        1.0  0.46150  0.52270  0.72790  1.0000 -0.1727451659
N   N2        1.0  0.47730  0.53850  0.22790  1.0000 -0.1727451659
N   N3        1.0  0.78790  0.85490  0.69900  1.0000 -0.3786568891
N   N4        1.0  0.14510  0.21210  0.19900  1.0000 -0.3786568891
N   N5        1.0  0.95250  0.94630  0.72040  1.0000 -0.3786568891
N   N6        1.0  0.05370  0.04750  0.22040  1.0000 -0.3786568891
N   N7        1.0  0.83060  0.79200  0.76040  1.0000 -0.3901828191
N   N8        1.0  0.20800  0.16940  0.26040  1.0000 -0.3901828191
N   N9        1.0  0.95890  0.15930  0.59120  1.0000 -0.1727451659
N   N10       1.0  0.84070  0.04110  0.09120  1.0000 -0.1727451659
N   N11       1.0  0.15540  0.91640  0.83530  1.0000 -0.1896151318
N   N12       1.0  0.08360  0.84460  0.33530  1.0000 -0.1896151318
N   N13       1.0  0.86930  0.16830  0.50020  1.0000 -0.1896151318
N   N14       1.0  0.83170  0.13070  0.00020  1.0000 -0.1896151318
N   N15       1.0  0.53620  0.92340  0.41760  1.0000 -0.3697168878
N   N16       1.0  0.07660  0.46380  0.91760  1.0000 -0.3697168878
N   N17       1.0  0.46960  0.82460  0.35990  1.0000 -0.3901828191
N   N18       1.0  0.17540  0.53040  0.85990  1.0000 -0.3901828191
N   N19       1.0  0.63560  0.91820  0.38530  1.0000 -0.3901828191
N   N20       1.0  0.08180  0.36440  0.88530  1.0000 -0.3901828191
N   N21       1.0  0.19100  0.78240  0.39190  1.0000 -0.1802240661
N   N22       1.0  0.21760  0.80900  0.89190  1.0000 -0.1802240661
N   N23       1.0  0.58520  0.73580  0.26930  1.0000 -0.1802240661
N   N24       1.0  0.26420  0.41480  0.76930  1.0000 -0.1802240661
N   N25       1.0  0.10400  0.90200  0.16740  1.0000 -0.1802240661
N   N26       1.0  0.09800  0.89600  0.66740  1.0000 -0.1802240661
N   N27       1.0  0.73730  0.63630  0.13640  1.0000 -0.3786568891
N   N28       1.0  0.36370  0.26270  0.63640  1.0000 -0.3786568891
N   N29       1.0  0.61210  0.48570  0.17500  1.0000 -0.3786568891
N   N30       1.0  0.51430  0.38790  0.67500  1.0000 -0.3786568891
N   N31       1.0  0.78190  0.57070  0.19540  1.0000 -0.3786568891
N   N32       1.0  0.42930  0.21810  0.69540  1.0000 -0.3786568891
N   N33       1.0  0.42110  0.51550  0.05250  1.0000 -0.1802240661
N   N34       1.0  0.48450  0.57890  0.55250  1.0000 -0.1802240661
N   N35       1.0  0.60840  0.28260  0.30160  1.0000 -0.1896151318
N   N36       1.0  0.71740  0.39160  0.80160  1.0000 -0.1896151318
N   N37       1.0  0.69940  0.25720  0.39730  1.0000 -0.1896151318
N   N38       1.0  0.74280  0.30060  0.89730  1.0000 -0.1896151318
N   N39       1.0  0.93010  0.50730  0.50430  1.0000 -0.3901828191
N   N40       1.0  0.49270  0.06990  0.00430  1.0000 -0.3901828191
N   N41       1.0  0.09630  0.60630  0.52890  1.0000 -0.3786568891
N   N42       1.0  0.39370  0.90370  0.02890  1.0000 -0.3786568891
N   N43       1.0  0.03100  0.50200  0.47120  1.0000 -0.3901828191
N   N44       1.0  0.49800  0.96900  0.97120  1.0000 -0.3901828191
N   N45       1.0  0.97590  0.69010  0.62490  1.0000 -0.201986832
N   N46       1.0  0.30990  0.02410  0.12490  1.0000 -0.201986832
N   N47       1.0  0.37320  0.64880  0.50760  1.0000 -0.1896151318
N   N48       1.0  0.35120  0.62680  0.00760  1.0000 -0.1896151318
