# DDEC6 charges by PACMAN v1.1 (https://github.com/mtap-research/PACMAN-charge/)
data_2013[Zn][dia]3[FSR]13
_chemical_formula_sum              "Zn4 H80 C104 N24 O24"
_cell_length_a       10.4405
_cell_length_b       20.454
_cell_length_c       16.3337
_cell_angle_alpha    90
_cell_angle_beta     125.165
_cell_angle_gamma    90

_symmetry_space_group_name_H-M    "P 1"
_symmetry_Int_Tables_number       1

loop_
  _symmetry_equiv_pos_as_xyz
  'x, y, z'

loop_
  _atom_site_type_symbol
  _atom_site_label
  _atom_site_symmetry_multiplicity
  _atom_site_fract_x
  _atom_site_fract_y
  _atom_site_fract_z
  _atom_site_occupancy
  _atom_site_charge
Zn  Zn1       1.0  0.69068  0.10310  0.43727  1.0000 0.7546061174
Zn  Zn2       1.0  0.30932  0.60310  0.06273  1.0000 0.7546061174
Zn  Zn3       1.0  0.30932  0.89690  0.56273  1.0000 0.7546061174
Zn  Zn4       1.0  0.69068  0.39690  0.93727  1.0000 0.7546061174
H   H1        1.0  0.90160  0.89190  0.42960  1.0000 0.1193016377
H   H2        1.0  0.09840  0.39190  0.07040  1.0000 0.1193016377
H   H3        1.0  0.09840  0.10810  0.57040  1.0000 0.1193016377
H   H4        1.0  0.90160  0.60810  0.92960  1.0000 0.1193016377
H   H5        1.0  0.74300  0.05150  0.27170  1.0000 0.1296465375
H   H6        1.0  0.25700  0.55150  0.22830  1.0000 0.1296465375
H   H7        1.0  0.25700  0.94850  0.72830  1.0000 0.1296465375
H   H8        1.0  0.74300  0.44850  0.77170  1.0000 0.1296465375
H   H9        1.0  0.92900  0.01920  0.22740  1.0000 0.1478461147
H   H10       1.0  0.07100  0.51920  0.27260  1.0000 0.1478461147
H   H11       1.0  0.07100  0.98080  0.77260  1.0000 0.1478461147
H   H12       1.0  0.92900  0.48080  0.72740  1.0000 0.1478461147
H   H13       1.0  0.94170  0.86510  0.08120  1.0000 0.1193016377
H   H14       1.0  0.05830  0.36510  0.41880  1.0000 0.1193016377
H   H15       1.0  0.05830  0.13490  0.91880  1.0000 0.1193016377
H   H16       1.0  0.94170  0.63490  0.58120  1.0000 0.1193016377
H   H17       1.0  0.86080  0.79790  0.15800  1.0000 0.1193016377
H   H18       1.0  0.13920  0.29790  0.34200  1.0000 0.1193016377
H   H19       1.0  0.13920  0.20210  0.84200  1.0000 0.1193016377
H   H20       1.0  0.86080  0.70210  0.65800  1.0000 0.1193016377
H   H21       1.0  0.81140  0.84200  0.26750  1.0000 0.1296465375
H   H22       1.0  0.18860  0.34200  0.23250  1.0000 0.1296465375
H   H23       1.0  0.18860  0.15800  0.73250  1.0000 0.1296465375
H   H24       1.0  0.81140  0.65800  0.76750  1.0000 0.1296465375
H   H25       1.0  0.06110  0.93650  0.03810  1.0000 0.1017685657
H   H26       1.0  0.93890  0.43650  0.46190  1.0000 0.1017685657
H   H27       1.0  0.93890  0.06350  0.96190  1.0000 0.1017685657
H   H28       1.0  0.06110  0.56350  0.53810  1.0000 0.1017685657
H   H29       1.0  0.88040  0.95250  0.96720  1.0000 0.1017685657
H   H30       1.0  0.11960  0.45250  0.53280  1.0000 0.1017685657
H   H31       1.0  0.11960  0.04750  0.03280  1.0000 0.1017685657
H   H32       1.0  0.88040  0.54750  0.46720  1.0000 0.1017685657
H   H33       1.0  0.66480  0.97200  0.67980  1.0000 0.1193016377
H   H34       1.0  0.33520  0.47200  0.82020  1.0000 0.1193016377
H   H35       1.0  0.33520  0.02800  0.32020  1.0000 0.1193016377
H   H36       1.0  0.66480  0.52800  0.17980  1.0000 0.1193016377
H   H37       1.0  0.65810  0.15310  0.60890  1.0000 0.1296465375
H   H38       1.0  0.34190  0.65310  0.89110  1.0000 0.1296465375
H   H39       1.0  0.34190  0.84690  0.39110  1.0000 0.1296465375
H   H40       1.0  0.65810  0.34690  0.10890  1.0000 0.1296465375
H   H41       1.0  0.59000  0.00030  0.77850  1.0000 0.1398982525
H   H42       1.0  0.41000  0.50030  0.72150  1.0000 0.1398982525
H   H43       1.0  0.41000  0.99970  0.22150  1.0000 0.1398982525
H   H44       1.0  0.59000  0.49970  0.27850  1.0000 0.1398982525
H   H45       1.0  0.55980  0.14320  0.93620  1.0000 0.1296465375
H   H46       1.0  0.44020  0.64320  0.56380  1.0000 0.1296465375
H   H47       1.0  0.44020  0.85680  0.06380  1.0000 0.1296465375
H   H48       1.0  0.55980  0.35680  0.43620  1.0000 0.1296465375
H   H49       1.0  0.60940  0.21890  0.85240  1.0000 0.1296465375
H   H50       1.0  0.39060  0.71890  0.64760  1.0000 0.1296465375
H   H51       1.0  0.39060  0.78110  0.14760  1.0000 0.1296465375
H   H52       1.0  0.60940  0.28110  0.35240  1.0000 0.1296465375
H   H53       1.0  0.65030  0.18670  0.73450  1.0000 0.1398982525
H   H54       1.0  0.34970  0.68670  0.76550  1.0000 0.1398982525
H   H55       1.0  0.34970  0.81330  0.26550  1.0000 0.1398982525
H   H56       1.0  0.65030  0.31330  0.23450  1.0000 0.1398982525
H   H57       1.0  0.61280  0.05140  0.04200  1.0000 0.1017685657
H   H58       1.0  0.38720  0.55140  0.45800  1.0000 0.1017685657
H   H59       1.0  0.38720  0.94860  0.95800  1.0000 0.1017685657
H   H60       1.0  0.61280  0.44860  0.54200  1.0000 0.1017685657
H   H61       1.0  0.43210  0.06260  0.96040  1.0000 0.1017685657
H   H62       1.0  0.56790  0.56260  0.53960  1.0000 0.1017685657
H   H63       1.0  0.56790  0.93740  0.03960  1.0000 0.1017685657
H   H64       1.0  0.43210  0.43740  0.46040  1.0000 0.1017685657
H   H65       1.0  0.18450  0.13720  0.25030  1.0000 0.1193016377
H   H66       1.0  0.81550  0.63720  0.24970  1.0000 0.1193016377
H   H67       1.0  0.81550  0.86280  0.74970  1.0000 0.1193016377
H   H68       1.0  0.18450  0.36280  0.75030  1.0000 0.1193016377
H   H69       1.0  0.94760  0.19110  0.15500  1.0000 0.1193016377
H   H70       1.0  0.05240  0.69110  0.34500  1.0000 0.1193016377
H   H71       1.0  0.05240  0.80890  0.84500  1.0000 0.1193016377
H   H72       1.0  0.94760  0.30890  0.65500  1.0000 0.1193016377
H   H73       1.0  0.09110  0.28060  0.00360  1.0000 0.1193016377
H   H74       1.0  0.90890  0.78060  0.49640  1.0000 0.1193016377
H   H75       1.0  0.90890  0.71940  0.99640  1.0000 0.1193016377
H   H76       1.0  0.09110  0.21940  0.50360  1.0000 0.1193016377
H   H77       1.0  0.32650  0.22460  0.09650  1.0000 0.1193016377
H   H78       1.0  0.67350  0.72460  0.40350  1.0000 0.1193016377
H   H79       1.0  0.67350  0.77540  0.90350  1.0000 0.1193016377
H   H80       1.0  0.32650  0.27540  0.59650  1.0000 0.1193016377
C   C1        1.0  0.85850  0.93335  0.40700  1.0000 0.1069155716
C   C2        1.0  0.14150  0.43335  0.09300  1.0000 0.1069155716
C   C3        1.0  0.14150  0.06665  0.59300  1.0000 0.1069155716
C   C4        1.0  0.85850  0.56665  0.90700  1.0000 0.1069155716
C   C5        1.0  0.77214  0.01996  0.32044  1.0000 0.1193016377
C   C6        1.0  0.22786  0.51996  0.17956  1.0000 0.1193016377
C   C7        1.0  0.22786  0.98004  0.67956  1.0000 0.1193016377
C   C8        1.0  0.77214  0.48004  0.82044  1.0000 0.1193016377
C   C9        1.0  0.86424  0.93429  0.25594  1.0000 0.1716367573
C   C10       1.0  0.13576  0.43429  0.24406  1.0000 0.1716367573
C   C11       1.0  0.13576  0.06571  0.74406  1.0000 0.1716367573
C   C12       1.0  0.86424  0.56571  0.75594  1.0000 0.1716367573
C   C13       1.0  0.91342  0.97488  0.21202  1.0000 -0.2992450549
C   C14       1.0  0.08658  0.47488  0.28798  1.0000 -0.2992450549
C   C15       1.0  0.08658  0.02512  0.78798  1.0000 -0.2992450549
C   C16       1.0  0.91342  0.52512  0.71202  1.0000 -0.2992450549
C   C17       1.0  0.93930  0.94856  0.14430  1.0000 0.262393468
C   C18       1.0  0.06070  0.44856  0.35570  1.0000 0.262393468
C   C19       1.0  0.06070  0.05144  0.85570  1.0000 0.262393468
C   C20       1.0  0.93930  0.55144  0.64430  1.0000 0.262393468
C   C21       1.0  0.92160  0.88286  0.12520  1.0000 -0.2427491501
C   C22       1.0  0.07840  0.38286  0.37480  1.0000 -0.2427491501
C   C23       1.0  0.07840  0.11714  0.87480  1.0000 -0.2427491501
C   C24       1.0  0.92160  0.61714  0.62520  1.0000 -0.2427491501
C   C25       1.0  0.87340  0.84251  0.17140  1.0000 -0.0451429627
C   C26       1.0  0.12660  0.34251  0.32860  1.0000 -0.0451429627
C   C27       1.0  0.12660  0.15749  0.82860  1.0000 -0.0451429627
C   C28       1.0  0.87340  0.65749  0.67140  1.0000 -0.0451429627
C   C29       1.0  0.84430  0.86861  0.23680  1.0000 -0.2071650914
C   C30       1.0  0.15570  0.36861  0.26320  1.0000 -0.2071650914
C   C31       1.0  0.15570  0.13139  0.76320  1.0000 -0.2071650914
C   C32       1.0  0.84430  0.63139  0.73680  1.0000 -0.2071650914
C   C33       1.0  0.98257  0.97003  0.01857  1.0000 -0.0584969363
C   C34       1.0  0.01743  0.47003  0.48143  1.0000 -0.0584969363
C   C35       1.0  0.01743  0.02997  0.98143  1.0000 -0.0584969363
C   C36       1.0  0.98257  0.52997  0.51857  1.0000 -0.0584969363
C   C37       1.0  0.66880  0.00950  0.64920  1.0000 0.1069155716
C   C38       1.0  0.33120  0.50950  0.85080  1.0000 0.1069155716
C   C39       1.0  0.33120  0.99050  0.35080  1.0000 0.1069155716
C   C40       1.0  0.66880  0.49050  0.14920  1.0000 0.1069155716
C   C41       1.0  0.66500  0.10770  0.61090  1.0000 0.1193016377
C   C42       1.0  0.33500  0.60770  0.88910  1.0000 0.1193016377
C   C43       1.0  0.33500  0.89230  0.38910  1.0000 0.1193016377
C   C44       1.0  0.66500  0.39230  0.11090  1.0000 0.1193016377
C   C45       1.0  0.62515  0.09084  0.74615  1.0000 0.1716367573
C   C46       1.0  0.37485  0.59084  0.75385  1.0000 0.1716367573
C   C47       1.0  0.37485  0.90916  0.25385  1.0000 0.1716367573
C   C48       1.0  0.62515  0.40916  0.24615  1.0000 0.1716367573
C   C49       1.0  0.59468  0.04435  0.79398  1.0000 -0.2992450549
C   C50       1.0  0.40532  0.54435  0.70602  1.0000 -0.2992450549
C   C51       1.0  0.40532  0.95565  0.20602  1.0000 -0.2992450549
C   C52       1.0  0.59468  0.45565  0.29398  1.0000 -0.2992450549
C   C53       1.0  0.57079  0.06443  0.86579  1.0000 0.262393468
C   C54       1.0  0.42921  0.56443  0.63421  1.0000 0.262393468
C   C55       1.0  0.42921  0.93557  0.13421  1.0000 0.262393468
C   C56       1.0  0.57079  0.43557  0.36579  1.0000 0.262393468
C   C57       1.0  0.57590  0.12970  0.88840  1.0000 -0.2427491501
C   C58       1.0  0.42410  0.62970  0.61160  1.0000 -0.2427491501
C   C59       1.0  0.42410  0.87030  0.11160  1.0000 -0.2427491501
C   C60       1.0  0.57590  0.37030  0.38840  1.0000 -0.2427491501
C   C61       1.0  0.60580  0.17464  0.83800  1.0000 -0.022615186
C   C62       1.0  0.39420  0.67464  0.66200  1.0000 -0.022615186
C   C63       1.0  0.39420  0.82536  0.16200  1.0000 -0.022615186
C   C64       1.0  0.60580  0.32536  0.33800  1.0000 -0.022615186
C   C65       1.0  0.63040  0.15565  0.76750  1.0000 -0.2071650914
C   C66       1.0  0.36960  0.65565  0.73250  1.0000 -0.2071650914
C   C67       1.0  0.36960  0.84435  0.23250  1.0000 -0.2071650914
C   C68       1.0  0.63040  0.34435  0.26750  1.0000 -0.2071650914
C   C69       1.0  0.51780  0.03193  0.98530  1.0000 -0.0584969363
C   C70       1.0  0.48220  0.53193  0.51470  1.0000 -0.0584969363
C   C71       1.0  0.48220  0.96807  0.01470  1.0000 -0.0584969363
C   C72       1.0  0.51780  0.46807  0.48530  1.0000 -0.0584969363
C   C73       1.0  0.28219  0.17759  0.18669  1.0000 -0.0283705035
C   C74       1.0  0.71781  0.67759  0.31331  1.0000 -0.0283705035
C   C75       1.0  0.71781  0.82241  0.81331  1.0000 -0.0283705035
C   C76       1.0  0.28219  0.32241  0.68669  1.0000 -0.0283705035
C   C77       1.0  0.16670  0.16669  0.20140  1.0000 -0.1169401995
C   C78       1.0  0.83330  0.66667  0.29860  1.0000 -0.1169401995
C   C79       1.0  0.83330  0.83331  0.79860  1.0000 -0.1169401995
C   C80       1.0  0.16670  0.33333  0.70140  1.0000 -0.1169401995
C   C81       1.0  0.02480  0.19901  0.14450  1.0000 -0.1097001611
C   C82       1.0  0.97520  0.69901  0.35550  1.0000 -0.1097001611
C   C83       1.0  0.97520  0.80099  0.85550  1.0000 -0.1097001611
C   C84       1.0  0.02480  0.30099  0.64450  1.0000 -0.1097001611
C   C85       1.0  0.99727  0.24322  0.07157  1.0000 -0.0283705035
C   C86       1.0  0.00273  0.74322  0.42843  1.0000 -0.0283705035
C   C87       1.0  0.00273  0.75678  0.92843  1.0000 -0.0283705035
C   C88       1.0  0.99727  0.25678  0.57157  1.0000 -0.0283705035
C   C89       1.0  0.11017  0.25208  0.05387  1.0000 -0.130980502
C   C90       1.0  0.88983  0.75208  0.44613  1.0000 -0.130980502
C   C91       1.0  0.88983  0.74792  0.94613  1.0000 -0.130980502
C   C92       1.0  0.11017  0.24792  0.55387  1.0000 -0.130980502
C   C93       1.0  0.25208  0.21905  0.11008  1.0000 -0.1169401995
C   C94       1.0  0.74792  0.71905  0.38992  1.0000 -0.1169401995
C   C95       1.0  0.74792  0.78095  0.88992  1.0000 -0.1169401995
C   C96       1.0  0.25208  0.28095  0.61008  1.0000 -0.1169401995
C   C97       1.0  0.44030  0.14802  0.25540  1.0000 0.5457261995
C   C98       1.0  0.55970  0.64802  0.24460  1.0000 0.5457261995
C   C99       1.0  0.55970  0.85198  0.74460  1.0000 0.5457261995
C   C100      1.0  0.44030  0.35198  0.75540  1.0000 0.5457261995
C   C101      1.0  0.85500  0.28585  0.02300  1.0000 0.5437402919
C   C102      1.0  0.14500  0.78585  0.47700  1.0000 0.5437402919
C   C103      1.0  0.14500  0.71415  0.97700  1.0000 0.5437402919
C   C104      1.0  0.85500  0.21415  0.52300  1.0000 0.5437402919
N   N1        1.0  0.75861  0.02644  0.39451  1.0000 -0.1881965267
N   N2        1.0  0.24139  0.52644  0.10549  1.0000 -0.1881965267
N   N3        1.0  0.24139  0.97356  0.60549  1.0000 -0.1881965267
N   N4        1.0  0.75861  0.47356  0.89451  1.0000 -0.1881965267
N   N5        1.0  0.81565  0.97044  0.45105  1.0000 -0.2019763189
N   N6        1.0  0.18435  0.47044  0.04895  1.0000 -0.2019763189
N   N7        1.0  0.18435  0.02956  0.54895  1.0000 -0.2019763189
N   N8        1.0  0.81565  0.52956  0.95105  1.0000 -0.2019763189
N   N9        1.0  0.83351  0.96172  0.32401  1.0000 -0.022615186
N   N10       1.0  0.16649  0.46172  0.17599  1.0000 -0.022615186
N   N11       1.0  0.16649  0.03828  0.67599  1.0000 -0.022615186
N   N12       1.0  0.83351  0.53828  0.82401  1.0000 -0.022615186
N   N13       1.0  0.68882  0.07354  0.55452  1.0000 -0.1836345448
N   N14       1.0  0.31118  0.57354  0.94548  1.0000 -0.1836345448
N   N15       1.0  0.31118  0.92646  0.44548  1.0000 -0.1836345448
N   N16       1.0  0.68882  0.42646  0.05452  1.0000 -0.1836345448
N   N17       1.0  0.69161  0.00892  0.57851  1.0000 -0.2019763189
N   N18       1.0  0.30839  0.50892  0.92149  1.0000 -0.2019763189
N   N19       1.0  0.30839  0.99108  0.42149  1.0000 -0.2019763189
N   N20       1.0  0.69161  0.49108  0.07851  1.0000 -0.2019763189
N   N21       1.0  0.65156  0.07033  0.67256  1.0000 -0.022615186
N   N22       1.0  0.34844  0.57033  0.82744  1.0000 -0.022615186
N   N23       1.0  0.34844  0.92967  0.32744  1.0000 -0.022615186
N   N24       1.0  0.65156  0.42967  0.17256  1.0000 -0.022615186
O   O1        1.0  0.98612  0.99175  0.10315  1.0000 -0.1881965267
O   O2        1.0  0.01388  0.49175  0.39685  1.0000 -0.1881965267
O   O3        1.0  0.01388  0.00825  0.89685  1.0000 -0.1881965267
O   O4        1.0  0.98612  0.50825  0.60315  1.0000 -0.1881965267
O   O5        1.0  0.53764  0.01460  0.90779  1.0000 -0.1881965267
O   O6        1.0  0.46236  0.51460  0.59221  1.0000 -0.1881965267
O   O7        1.0  0.46236  0.98540  0.09221  1.0000 -0.1881965267
O   O8        1.0  0.53764  0.48540  0.40779  1.0000 -0.1881965267
O   O9        1.0  0.47270  0.12663  0.33882  1.0000 -0.5540535852
O   O10       1.0  0.52730  0.62663  0.16118  1.0000 -0.5540535852
O   O11       1.0  0.52730  0.87337  0.66118  1.0000 -0.5540535852
O   O12       1.0  0.47270  0.37337  0.83882  1.0000 -0.5540535852
O   O13       1.0  0.53594  0.14672  0.23444  1.0000 -0.5401130124
O   O14       1.0  0.46406  0.64672  0.26556  1.0000 -0.5401130124
O   O15       1.0  0.46406  0.85328  0.76556  1.0000 -0.5401130124
O   O16       1.0  0.53594  0.35328  0.73444  1.0000 -0.5401130124
O   O17       1.0  0.75054  0.27605  0.03457  1.0000 -0.5401130124
O   O18       1.0  0.24946  0.77605  0.46543  1.0000 -0.5401130124
O   O19       1.0  0.24946  0.72395  0.96543  1.0000 -0.5401130124
O   O20       1.0  0.75054  0.22395  0.53457  1.0000 -0.5401130124
O   O21       1.0  0.85263  0.33333  0.97048  1.0000 -0.5558707222
O   O22       1.0  0.14737  0.83333  0.52952  1.0000 -0.5558707222
O   O23       1.0  0.14737  0.66667  0.02952  1.0000 -0.5558707222
O   O24       1.0  0.85263  0.16667  0.47048  1.0000 -0.5558707222
