# DDEC6 charges by PACMAN v1.1 (https://github.com/mtap-research/PACMAN-charge/)
data_2013[Ni][nan]3[FSR]7
_chemical_formula_sum              "Ni8 H72 C80 N8 O40"
_cell_length_a       9.6879
_cell_length_b       10.4569
_cell_length_c       23.6987
_cell_angle_alpha    90
_cell_angle_beta     90
_cell_angle_gamma    90

_symmetry_space_group_name_H-M    "P 1"
_symmetry_Int_Tables_number       1

loop_
  _symmetry_equiv_pos_as_xyz
  'x, y, z'

loop_
  _atom_site_type_symbol
  _atom_site_label
  _atom_site_symmetry_multiplicity
  _atom_site_fract_x
  _atom_site_fract_y
  _atom_site_fract_z
  _atom_site_occupancy
  _atom_site_charge
Ni  Ni1       1.0  0.38315  0.50533  0.78752  1.0000 0.8307838202
Ni  Ni2       1.0  0.61685  0.50533  0.21248  1.0000 0.8307838202
Ni  Ni3       1.0  0.88315  0.49467  0.71248  1.0000 0.8307838202
Ni  Ni4       1.0  0.11685  0.49467  0.28752  1.0000 0.8307838202
Ni  Ni5       1.0  0.35761  0.99506  0.71360  1.0000 0.8307838202
Ni  Ni6       1.0  0.64239  0.99506  0.28640  1.0000 0.8307838202
Ni  Ni7       1.0  0.85761  0.00494  0.78640  1.0000 0.8307838202
Ni  Ni8       1.0  0.14239  0.00494  0.21360  1.0000 0.8307838202
H   H1        1.0  0.25660  0.59160  0.64500  1.0000 0.0917511737
H   H2        1.0  0.74340  0.59160  0.35500  1.0000 0.0917511737
H   H3        1.0  0.75660  0.40840  0.85500  1.0000 0.0917511737
H   H4        1.0  0.24340  0.40840  0.14500  1.0000 0.0917511737
H   H5        1.0  0.21190  0.47400  0.72110  1.0000 0.3438440175
H   H6        1.0  0.78810  0.47400  0.27890  1.0000 0.3438440175
H   H7        1.0  0.71190  0.52600  0.77890  1.0000 0.3438440175
H   H8        1.0  0.28810  0.52600  0.22110  1.0000 0.3438440175
H   H9        1.0  0.45530  0.47950  0.62170  1.0000 0.1307447136
H   H10       1.0  0.54470  0.47950  0.37830  1.0000 0.1307447136
H   H11       1.0  0.95530  0.52050  0.87830  1.0000 0.1307447136
H   H12       1.0  0.04470  0.52050  0.12170  1.0000 0.1307447136
H   H13       1.0  0.49150  0.62850  0.62310  1.0000 0.1463371278
H   H14       1.0  0.50850  0.62850  0.37690  1.0000 0.1463371278
H   H15       1.0  0.99150  0.37150  0.87690  1.0000 0.1463371278
H   H16       1.0  0.00850  0.37150  0.12310  1.0000 0.1463371278
H   H17       1.0  0.42740  0.92610  0.86530  1.0000 0.0917511737
H   H18       1.0  0.57260  0.92610  0.13470  1.0000 0.0917511737
H   H19       1.0  0.92740  0.07390  0.63470  1.0000 0.0917511737
H   H20       1.0  0.07260  0.07390  0.36530  1.0000 0.0917511737
H   H21       1.0  0.30800  0.84690  0.79220  1.0000 0.3526146323
H   H22       1.0  0.69200  0.84690  0.20780  1.0000 0.3526146323
H   H23       1.0  0.80800  0.15310  0.70780  1.0000 0.3526146323
H   H24       1.0  0.19200  0.15310  0.29220  1.0000 0.3526146323
H   H25       1.0  0.29910  0.12110  0.86370  1.0000 0.1417795555
H   H26       1.0  0.70090  0.12110  0.13630  1.0000 0.1417795555
H   H27       1.0  0.79910  0.87890  0.63630  1.0000 0.1417795555
H   H28       1.0  0.20090  0.87890  0.36370  1.0000 0.1417795555
H   H29       1.0  0.45990  0.14500  0.87380  1.0000 0.1417795555
H   H30       1.0  0.54010  0.14500  0.12620  1.0000 0.1417795555
H   H31       1.0  0.95990  0.85500  0.62620  1.0000 0.1417795555
H   H32       1.0  0.04010  0.85500  0.37380  1.0000 0.1417795555
H   H33       1.0  0.48150  0.40840  0.90260  1.0000 0.1125812815
H   H34       1.0  0.51850  0.40840  0.09740  1.0000 0.1125812815
H   H35       1.0  0.98150  0.59160  0.59740  1.0000 0.1125812815
H   H36       1.0  0.01850  0.59160  0.40260  1.0000 0.1125812815
H   H37       1.0  0.61970  0.47200  0.97710  1.0000 0.1307447136
H   H38       1.0  0.38030  0.47200  0.02290  1.0000 0.1307447136
H   H39       1.0  0.11970  0.52800  0.52290  1.0000 0.1307447136
H   H40       1.0  0.88030  0.52800  0.47710  1.0000 0.1307447136
H   H41       1.0  0.68050  0.80900  0.89670  1.0000 0.1307447136
H   H42       1.0  0.31950  0.80900  0.10330  1.0000 0.1307447136
H   H43       1.0  0.18050  0.19100  0.60330  1.0000 0.1307447136
H   H44       1.0  0.81950  0.19100  0.39670  1.0000 0.1307447136
H   H45       1.0  0.54760  0.73250  0.82310  1.0000 0.1125812815
H   H46       1.0  0.45240  0.73250  0.17690  1.0000 0.1125812815
H   H47       1.0  0.04760  0.26750  0.67690  1.0000 0.1125812815
H   H48       1.0  0.95240  0.26750  0.32310  1.0000 0.1125812815
H   H49       1.0  0.76710  0.63030  0.02290  1.0000 0.1225900431
H   H50       1.0  0.23290  0.63030  0.97710  1.0000 0.1225900431
H   H51       1.0  0.26710  0.36970  0.47710  1.0000 0.1225900431
H   H52       1.0  0.73290  0.36970  0.52290  1.0000 0.1225900431
H   H53       1.0  0.75530  0.87650  0.97920  1.0000 0.1225900431
H   H54       1.0  0.24470  0.87650  0.02080  1.0000 0.1225900431
H   H55       1.0  0.25530  0.12350  0.52080  1.0000 0.1225900431
H   H56       1.0  0.74470  0.12350  0.47920  1.0000 0.1225900431
H   H57       1.0  0.00550  0.10990  0.10820  1.0000 0.1125812815
H   H58       1.0  0.99450  0.10990  0.89180  1.0000 0.1125812815
H   H59       1.0  0.50550  0.89010  0.39180  1.0000 0.1125812815
H   H60       1.0  0.49450  0.89010  0.60820  1.0000 0.1125812815
H   H61       1.0  0.86530  0.04490  0.03410  1.0000 0.1307447136
H   H62       1.0  0.13470  0.04490  0.96590  1.0000 0.1307447136
H   H63       1.0  0.36530  0.95510  0.46590  1.0000 0.1307447136
H   H64       1.0  0.63470  0.95510  0.53410  1.0000 0.1307447136
H   H65       1.0  0.89250  0.68260  0.09380  1.0000 0.1307447136
H   H66       1.0  0.10750  0.68260  0.90620  1.0000 0.1307447136
H   H67       1.0  0.39250  0.31740  0.40620  1.0000 0.1307447136
H   H68       1.0  0.60750  0.31740  0.59380  1.0000 0.1307447136
H   H69       1.0  0.03680  0.75770  0.16450  1.0000 0.1225900431
H   H70       1.0  0.96320  0.75770  0.83550  1.0000 0.1225900431
H   H71       1.0  0.53680  0.24230  0.33550  1.0000 0.1225900431
H   H72       1.0  0.46320  0.24230  0.66450  1.0000 0.1225900431
C   C1        1.0  0.33417  0.70470  0.71007  1.0000 0.5625097961
C   C2        1.0  0.66583  0.70470  0.28993  1.0000 0.5625097961
C   C3        1.0  0.83417  0.29530  0.78993  1.0000 0.5625097961
C   C4        1.0  0.16583  0.29530  0.21007  1.0000 0.5625097961
C   C5        1.0  0.32860  0.58164  0.67496  1.0000 0.0708861635
C   C6        1.0  0.67140  0.58164  0.32504  1.0000 0.0708861635
C   C7        1.0  0.82860  0.41836  0.82504  1.0000 0.0708861635
C   C8        1.0  0.17140  0.41836  0.17496  1.0000 0.0708861635
C   C9        1.0  0.46650  0.55430  0.64690  1.0000 -0.3938845186
C   C10       1.0  0.53350  0.55430  0.35310  1.0000 -0.3938845186
C   C11       1.0  0.96650  0.44570  0.85310  1.0000 -0.3938845186
C   C12       1.0  0.03350  0.44570  0.14690  1.0000 -0.3938845186
C   C13       1.0  0.58530  0.52753  0.68717  1.0000 0.6600263328
C   C14       1.0  0.41470  0.52753  0.31283  1.0000 0.6600263328
C   C15       1.0  0.08530  0.47247  0.81283  1.0000 0.6600263328
C   C16       1.0  0.91470  0.47247  0.18717  1.0000 0.6600263328
C   C17       1.0  0.55750  0.96825  0.79685  1.0000 0.5365991802
C   C18       1.0  0.44250  0.96825  0.20315  1.0000 0.5365991802
C   C19       1.0  0.05750  0.03175  0.70315  1.0000 0.5365991802
C   C20       1.0  0.94250  0.03175  0.29685  1.0000 0.5365991802
C   C21       1.0  0.42090  0.97849  0.83007  1.0000 0.0708861635
C   C22       1.0  0.57910  0.97849  0.16993  1.0000 0.0708861635
C   C23       1.0  0.92090  0.02151  0.66993  1.0000 0.0708861635
C   C24       1.0  0.07910  0.02151  0.33007  1.0000 0.0708861635
C   C25       1.0  0.39110  0.11710  0.84554  1.0000 -0.384087929
C   C26       1.0  0.60890  0.11710  0.15446  1.0000 -0.384087929
C   C27       1.0  0.89110  0.88290  0.65446  1.0000 -0.384087929
C   C28       1.0  0.10890  0.88290  0.34554  1.0000 -0.384087929
C   C29       1.0  0.39320  0.21190  0.79646  1.0000 0.668287179
C   C30       1.0  0.60680  0.21190  0.20354  1.0000 0.668287179
C   C31       1.0  0.89320  0.78810  0.70354  1.0000 0.668287179
C   C32       1.0  0.10680  0.78810  0.29646  1.0000 0.668287179
C   C33       1.0  0.52200  0.49110  0.90153  1.0000 0.0800622445
C   C34       1.0  0.47800  0.49110  0.09847  1.0000 0.0800622445
C   C35       1.0  0.02200  0.50890  0.59847  1.0000 0.0800622445
C   C36       1.0  0.97800  0.50890  0.40153  1.0000 0.0800622445
C   C37       1.0  0.60320  0.52900  0.94659  1.0000 -0.2194099515
C   C38       1.0  0.39680  0.52900  0.05341  1.0000 -0.2194099515
C   C39       1.0  0.10320  0.47100  0.55341  1.0000 -0.2194099515
C   C40       1.0  0.89680  0.47100  0.44659  1.0000 -0.2194099515
C   C41       1.0  0.66060  0.65080  0.94701  1.0000 0.157869535
C   C42       1.0  0.33940  0.65080  0.05299  1.0000 0.157869535
C   C43       1.0  0.16060  0.34920  0.55299  1.0000 0.157869535
C   C44       1.0  0.83940  0.34920  0.44701  1.0000 0.157869535
C   C45       1.0  0.63980  0.72650  0.89921  1.0000 -0.1890293299
C   C46       1.0  0.36020  0.72650  0.10079  1.0000 -0.1890293299
C   C47       1.0  0.13980  0.27350  0.60079  1.0000 -0.1890293299
C   C48       1.0  0.86020  0.27350  0.39921  1.0000 -0.1890293299
C   C49       1.0  0.55960  0.68030  0.85551  1.0000 0.0917511737
C   C50       1.0  0.44040  0.68030  0.14449  1.0000 0.0952450172
C   C51       1.0  0.05960  0.31970  0.64449  1.0000 0.0917511737
C   C52       1.0  0.94040  0.31970  0.35551  1.0000 0.0917511737
C   C53       1.0  0.74170  0.69330  0.99594  1.0000 -0.1455572932
C   C54       1.0  0.25830  0.69330  0.00406  1.0000 -0.1455572932
C   C55       1.0  0.24170  0.30670  0.50406  1.0000 -0.1455572932
C   C56       1.0  0.75830  0.30670  0.49594  1.0000 -0.1455572932
C   C57       1.0  0.78250  0.81310  0.00567  1.0000 -0.1430307864
C   C58       1.0  0.21750  0.81310  0.99433  1.0000 -0.1430307864
C   C59       1.0  0.28250  0.18690  0.49433  1.0000 -0.1430307864
C   C60       1.0  0.71750  0.18690  0.50567  1.0000 -0.1430307864
C   C61       1.0  0.98440  0.02150  0.10451  1.0000 0.0917511737
C   C62       1.0  0.01560  0.02150  0.89549  1.0000 0.0917511737
C   C63       1.0  0.48440  0.97850  0.39549  1.0000 0.0917511737
C   C64       1.0  0.51560  0.97850  0.60451  1.0000 0.0917511737
C   C65       1.0  0.89970  0.98350  0.06011  1.0000 -0.2123840093
C   C66       1.0  0.10030  0.98350  0.93989  1.0000 -0.2123840093
C   C67       1.0  0.39970  0.01650  0.43989  1.0000 -0.2123840093
C   C68       1.0  0.60030  0.01650  0.56011  1.0000 -0.2123840093
C   C69       1.0  0.86590  0.85510  0.05404  1.0000 0.157869535
C   C70       1.0  0.13410  0.85510  0.94596  1.0000 0.157869535
C   C71       1.0  0.36590  0.14490  0.44596  1.0000 0.157869535
C   C72       1.0  0.63410  0.14490  0.55404  1.0000 0.157869535
C   C73       1.0  0.91650  0.77060  0.09506  1.0000 -0.1968861311
C   C74       1.0  0.08350  0.77060  0.90494  1.0000 -0.1968861311
C   C75       1.0  0.41650  0.22940  0.40494  1.0000 -0.1968861311
C   C76       1.0  0.58350  0.22940  0.59506  1.0000 -0.1968861311
C   C77       1.0  0.00180  0.81650  0.13747  1.0000 0.0917511737
C   C78       1.0  0.99820  0.81650  0.86253  1.0000 0.0917511737
C   C79       1.0  0.50180  0.18350  0.36253  1.0000 0.0917511737
C   C80       1.0  0.49820  0.18350  0.63747  1.0000 0.0917511737
N   N1        1.0  0.49758  0.56539  0.85646  1.0000 -0.2194099515
N   N2        1.0  0.50242  0.56539  0.14354  1.0000 -0.2194099515
N   N3        1.0  0.99758  0.43461  0.64354  1.0000 -0.2194099515
N   N4        1.0  0.00242  0.43461  0.35646  1.0000 -0.2194099515
N   N5        1.0  0.03735  0.94037  0.14216  1.0000 -0.2123840093
N   N6        1.0  0.96265  0.94037  0.85784  1.0000 -0.2123840093
N   N7        1.0  0.53735  0.05963  0.35784  1.0000 -0.2123840093
N   N8        1.0  0.46265  0.05963  0.64216  1.0000 -0.2123840093
O   O1        1.0  0.33380  0.69221  0.76351  1.0000 -0.5496218889
O   O2        1.0  0.66620  0.69221  0.23649  1.0000 -0.5496218889
O   O3        1.0  0.83380  0.30779  0.73649  1.0000 -0.5496218889
O   O4        1.0  0.16620  0.30779  0.26351  1.0000 -0.5496218889
O   O5        1.0  0.33944  0.80759  0.68323  1.0000 -0.5258394717
O   O6        1.0  0.66056  0.80759  0.31677  1.0000 -0.5258394717
O   O7        1.0  0.83944  0.19241  0.81677  1.0000 -0.5258394717
O   O8        1.0  0.16056  0.19241  0.18323  1.0000 -0.5258394717
O   O9        1.0  0.29474  0.47329  0.70897  1.0000 -0.4620643272
O   O10       1.0  0.70526  0.47329  0.29103  1.0000 -0.4620643272
O   O11       1.0  0.79474  0.52671  0.79103  1.0000 -0.4620643272
O   O12       1.0  0.20526  0.52671  0.20897  1.0000 -0.4620643272
O   O13       1.0  0.56180  0.52419  0.73986  1.0000 -0.5496218889
O   O14       1.0  0.43820  0.52419  0.26014  1.0000 -0.5496218889
O   O15       1.0  0.06180  0.47581  0.76014  1.0000 -0.5496218889
O   O16       1.0  0.93820  0.47581  0.23986  1.0000 -0.5496218889
O   O17       1.0  0.70203  0.51167  0.66581  1.0000 -0.561637634
O   O18       1.0  0.29797  0.51167  0.33419  1.0000 -0.561637634
O   O19       1.0  0.20203  0.48833  0.83419  1.0000 -0.561637634
O   O20       1.0  0.79797  0.48833  0.16581  1.0000 -0.561637634
O   O21       1.0  0.54840  0.94948  0.74509  1.0000 -0.5060969829
O   O22       1.0  0.45160  0.94948  0.25491  1.0000 -0.5060969829
O   O23       1.0  0.04840  0.05052  0.75491  1.0000 -0.5060969829
O   O24       1.0  0.95160  0.05052  0.24509  1.0000 -0.5060969829
O   O25       1.0  0.66838  0.98157  0.82451  1.0000 -0.5368958801
O   O26       1.0  0.33162  0.98157  0.17549  1.0000 -0.5368958801
O   O27       1.0  0.16838  0.01843  0.67549  1.0000 -0.5368958801
O   O28       1.0  0.83162  0.01843  0.32451  1.0000 -0.5368958801
O   O29       1.0  0.30781  0.93320  0.79627  1.0000 -0.4654100328
O   O30       1.0  0.69219  0.93320  0.20373  1.0000 -0.4654100328
O   O31       1.0  0.80781  0.06680  0.70373  1.0000 -0.4654100328
O   O32       1.0  0.19219  0.06680  0.29627  1.0000 -0.4654100328
O   O33       1.0  0.36744  0.17623  0.74711  1.0000 -0.5368958801
O   O34       1.0  0.63256  0.17623  0.25289  1.0000 -0.5368958801
O   O35       1.0  0.86744  0.82377  0.75289  1.0000 -0.5368958801
O   O36       1.0  0.13256  0.82377  0.24711  1.0000 -0.5368958801
O   O37       1.0  0.41944  0.32473  0.81110  1.0000 -0.561637634
O   O38       1.0  0.58056  0.32473  0.18890  1.0000 -0.561637634
O   O39       1.0  0.91944  0.67527  0.68890  1.0000 -0.561637634
O   O40       1.0  0.08056  0.67527  0.31110  1.0000 -0.561637634
