# DDEC6 charges by PACMAN v1.1 (https://github.com/mtap-research/PACMAN-charge/)
data_2013[Dy][nan]3[FSR]3
_chemical_formula_sum              "Dy16 H120 C96 N24 O96"
_cell_length_a       19.2017
_cell_length_b       19.2017
_cell_length_c       19.2017
_cell_angle_alpha    95.5732
_cell_angle_beta     95.5732
_cell_angle_gamma    143.684

_symmetry_space_group_name_H-M    "P 1"
_symmetry_Int_Tables_number       1

loop_
  _symmetry_equiv_pos_as_xyz
  'x, y, z'

loop_
  _atom_site_type_symbol
  _atom_site_label
  _atom_site_symmetry_multiplicity
  _atom_site_fract_x
  _atom_site_fract_y
  _atom_site_fract_z
  _atom_site_occupancy
  _atom_site_charge
Dy  Dy1       1.0  0.94352  0.55624  0.04890  1.0000 2.0242321218
Dy  Dy2       1.0  0.50734  0.89462  0.95110  1.0000 2.0242321218
Dy  Dy3       1.0  0.14462  0.69352  0.88728  1.0000 2.0242321218
Dy  Dy4       1.0  0.80624  0.25734  0.11272  1.0000 2.0242321218
Dy  Dy5       1.0  0.30648  0.19376  0.45110  1.0000 2.0242321218
Dy  Dy6       1.0  0.74266  0.85538  0.54890  1.0000 2.0242321218
Dy  Dy7       1.0  0.10538  0.05648  0.61272  1.0000 2.0242321218
Dy  Dy8       1.0  0.44376  0.49266  0.38728  1.0000 2.0242321218
Dy  Dy9       1.0  0.17352  0.81826  0.22832  1.0000 1.9283033634
Dy  Dy10      1.0  0.58994  0.94520  0.77168  1.0000 1.9283033634
Dy  Dy11      1.0  0.19520  0.92352  0.85526  1.0000 1.9283033634
Dy  Dy12      1.0  0.06826  0.33994  0.14474  1.0000 1.9283033634
Dy  Dy13      1.0  0.07648  0.93174  0.27168  1.0000 1.9283033634
Dy  Dy14      1.0  0.66006  0.80480  0.72832  1.0000 1.9283033634
Dy  Dy15      1.0  0.05480  0.82648  0.64474  1.0000 1.9283033634
Dy  Dy16      1.0  0.18174  0.41006  0.35526  1.0000 1.9283033634
H   H1        1.0  0.76600  0.57750  0.04050  1.0000 0.155940591
H   H2        1.0  0.53700  0.72550  0.95950  1.0000 0.155940591
H   H3        1.0  0.97550  0.51600  0.68850  1.0000 0.155940591
H   H4        1.0  0.82750  0.28700  0.31150  1.0000 0.155940591
H   H5        1.0  0.48400  0.17250  0.45950  1.0000 0.155940591
H   H6        1.0  0.71300  0.02450  0.54050  1.0000 0.155940591
H   H7        1.0  0.27450  0.23400  0.81150  1.0000 0.155940591
H   H8        1.0  0.42250  0.46300  0.18850  1.0000 0.155940591
H   H9        1.0  0.71580  0.52740  0.10700  1.0000 0.1425042531
H   H10       1.0  0.42040  0.60880  0.89300  1.0000 0.1425042531
H   H11       1.0  0.85880  0.46580  0.68840  1.0000 0.1425042531
H   H12       1.0  0.77740  0.17040  0.31160  1.0000 0.1425042531
H   H13       1.0  0.53420  0.22260  0.39300  1.0000 0.1425042531
H   H14       1.0  0.82960  0.14120  0.60700  1.0000 0.1425042531
H   H15       1.0  0.39120  0.28420  0.81160  1.0000 0.1425042531
H   H16       1.0  0.47260  0.57960  0.18840  1.0000 0.1425042531
H   H17       1.0  0.73190  0.43210  0.15620  1.0000 0.1500724731
H   H18       1.0  0.27590  0.57570  0.84380  1.0000 0.1500724731
H   H19       1.0  0.82570  0.48190  0.79980  1.0000 0.1500724731
H   H20       1.0  0.68210  0.02590  0.20020  1.0000 0.1500724731
H   H21       1.0  0.51810  0.31790  0.34380  1.0000 0.1500724731
H   H22       1.0  0.97410  0.17430  0.65620  1.0000 0.1500724731
H   H23       1.0  0.42430  0.26810  0.70020  1.0000 0.1500724731
H   H24       1.0  0.56790  0.72410  0.29980  1.0000 0.1500724731
H   H25       1.0  0.60760  0.32300  0.09220  1.0000 0.1500724731
H   H26       1.0  0.23080  0.51540  0.90780  1.0000 0.1500724731
H   H27       1.0  0.76540  0.35760  0.78460  1.0000 0.1500724731
H   H28       1.0  0.57300  0.98080  0.21540  1.0000 0.1500724731
H   H29       1.0  0.64240  0.42700  0.40780  1.0000 0.1500724731
H   H30       1.0  0.01920  0.23460  0.59220  1.0000 0.1500724731
H   H31       1.0  0.48460  0.39240  0.71540  1.0000 0.1500724731
H   H32       1.0  0.67700  0.76920  0.28460  1.0000 0.1500724731
H   H33       1.0  0.13930  0.61500  0.30990  1.0000 0.1425042531
H   H34       1.0  0.30510  0.82940  0.69010  1.0000 0.1425042531
H   H35       1.0  0.07940  0.88930  0.02430  1.0000 0.1425042531
H   H36       1.0  0.86500  0.05510  0.97570  1.0000 0.1425042531
H   H37       1.0  0.11070  0.13500  0.19010  1.0000 0.1425042531
H   H38       1.0  0.94490  0.92060  0.80990  1.0000 0.1425042531
H   H39       1.0  0.17060  0.86070  0.47570  1.0000 0.1425042531
H   H40       1.0  0.38500  0.69490  0.52430  1.0000 0.1425042531
H   H41       1.0  0.03340  0.56370  0.33690  1.0000 0.1500724731
H   H42       1.0  0.22680  0.69650  0.66310  1.0000 0.1500724731
H   H43       1.0  0.94650  0.78340  0.96970  1.0000 0.1500724731
H   H44       1.0  0.81370  0.97680  0.03030  1.0000 0.1500724731
H   H45       1.0  0.21660  0.18630  0.16310  1.0000 0.1500724731
H   H46       1.0  0.02320  0.05350  0.83690  1.0000 0.1500724731
H   H47       1.0  0.30350  0.96660  0.53030  1.0000 0.1500724731
H   H48       1.0  0.43630  0.77320  0.46970  1.0000 0.1500724731
H   H49       1.0  0.32300  0.89220  0.40940  1.0000 0.1333642179
H   H50       1.0  0.48280  0.91360  0.59060  1.0000 0.1333642179
H   H51       1.0  0.16360  0.07300  0.93080  1.0000 0.1333642179
H   H52       1.0  0.14220  0.23280  0.06920  1.0000 0.1333642179
H   H53       1.0  0.92700  0.85780  0.09060  1.0000 0.1333642179
H   H54       1.0  0.76720  0.83640  0.90940  1.0000 0.1333642179
H   H55       1.0  0.08640  0.67700  0.56920  1.0000 0.1333642179
H   H56       1.0  0.10780  0.51720  0.43080  1.0000 0.1333642179
H   H57       1.0  0.28770  0.78370  0.40060  1.0000 0.1191839731
H   H58       1.0  0.38310  0.88710  0.59940  1.0000 0.1191839731
H   H59       1.0  0.13710  0.03770  0.00400  1.0000 0.1191839731
H   H60       1.0  0.03370  0.13310  0.99600  1.0000 0.1191839731
H   H61       1.0  0.96230  0.96630  0.09940  1.0000 0.1191839731
H   H62       1.0  0.86690  0.86290  0.90060  1.0000 0.1191839731
H   H63       1.0  0.11290  0.71230  0.49600  1.0000 0.1191839731
H   H64       1.0  0.21630  0.61690  0.50400  1.0000 0.1191839731
H   H65       1.0  0.42190  0.00190  0.10120  1.0000 0.1500724731
H   H66       1.0  0.90070  0.32070  0.89880  1.0000 0.1500724731
H   H67       1.0  0.57070  0.17190  0.92000  1.0000 0.1500724731
H   H68       1.0  0.25190  0.65070  0.08000  1.0000 0.1500724731
H   H69       1.0  0.82810  0.74810  0.39880  1.0000 0.1500724731
H   H70       1.0  0.34930  0.42930  0.60120  1.0000 0.1500724731
H   H71       1.0  0.67930  0.57810  0.58000  1.0000 0.1500724731
H   H72       1.0  0.99810  0.09930  0.42000  1.0000 0.1500724731
H   H73       1.0  0.40870  0.93330  0.15100  1.0000 0.1425042531
H   H74       1.0  0.78230  0.25770  0.84900  1.0000 0.1425042531
H   H75       1.0  0.50770  0.15870  0.97540  1.0000 0.1425042531
H   H76       1.0  0.18330  0.53230  0.02460  1.0000 0.1425042531
H   H77       1.0  0.84130  0.81670  0.34900  1.0000 0.1425042531
H   H78       1.0  0.46770  0.49230  0.65100  1.0000 0.1425042531
H   H79       1.0  0.74230  0.59130  0.52460  1.0000 0.1425042531
H   H80       1.0  0.06670  0.21770  0.47540  1.0000 0.1425042531
H   H81       1.0  0.45300  0.15070  0.17770  1.0000 0.1425042531
H   H82       1.0  0.97300  0.27530  0.82230  1.0000 0.1425042531
H   H83       1.0  0.52530  0.20300  0.80230  1.0000 0.1425042531
H   H84       1.0  0.40070  0.72300  0.19770  1.0000 0.1425042531
H   H85       1.0  0.79700  0.59930  0.32230  1.0000 0.1425042531
H   H86       1.0  0.27700  0.47470  0.67770  1.0000 0.1425042531
H   H87       1.0  0.72470  0.54700  0.69770  1.0000 0.1425042531
H   H88       1.0  0.84930  0.02700  0.30230  1.0000 0.1425042531
H   H89       1.0  0.33780  0.03870  0.10950  1.0000 0.1500724731
H   H90       1.0  0.92920  0.22830  0.89050  1.0000 0.1500724731
H   H91       1.0  0.47830  0.08780  0.79910  1.0000 0.1500724731
H   H92       1.0  0.28870  0.67920  0.20090  1.0000 0.1500724731
H   H93       1.0  0.91220  0.71130  0.39050  1.0000 0.1500724731
H   H94       1.0  0.32080  0.52170  0.60950  1.0000 0.1500724731
H   H95       1.0  0.77170  0.66220  0.70090  1.0000 0.1500724731
H   H96       1.0  0.96130  0.07080  0.29910  1.0000 0.1500724731
H   H97       1.0  0.69820  0.41740  0.01220  1.0000 0.2586442555
H   H98       1.0  0.40520  0.68600  0.98780  1.0000 0.2586442555
H   H99       1.0  0.93600  0.44820  0.78080  1.0000 0.2586442555
H   H100      1.0  0.66740  0.15520  0.21920  1.0000 0.2586442555
H   H101      1.0  0.55180  0.33260  0.48780  1.0000 0.2586442555
H   H102      1.0  0.84480  0.06400  0.51220  1.0000 0.2586442555
H   H103      1.0  0.31400  0.30180  0.71920  1.0000 0.2586442555
H   H104      1.0  0.58260  0.59480  0.28080  1.0000 0.2586442555
H   H105      1.0  0.12800  0.73690  0.36390  1.0000 0.2484946195
H   H106      1.0  0.37300  0.76410  0.63610  1.0000 0.2484946195
H   H107      1.0  0.01410  0.87800  0.89110  1.0000 0.2449755544
H   H108      1.0  0.98690  0.12300  0.10890  1.0000 0.2484946195
H   H109      1.0  0.12200  0.01310  0.13610  1.0000 0.2484946195
H   H110      1.0  0.87700  0.98590  0.86390  1.0000 0.2449755544
H   H111      1.0  0.23590  0.87200  0.60890  1.0000 0.2484946195
H   H112      1.0  0.26310  0.62700  0.39110  1.0000 0.2449755544
H   H113      1.0  0.42890  0.04110  0.22460  1.0000 0.2484946195
H   H114      1.0  0.81650  0.20430  0.77540  1.0000 0.2484946195
H   H115      1.0  0.45430  0.17890  0.88780  1.0000 0.2484946195
H   H116      1.0  0.29110  0.56650  0.11220  1.0000 0.2484946195
H   H117      1.0  0.82110  0.70890  0.27540  1.0000 0.2484946195
H   H118      1.0  0.43350  0.54570  0.72460  1.0000 0.2484946195
H   H119      1.0  0.79570  0.57110  0.61220  1.0000 0.2484946195
H   H120      1.0  0.95890  0.18350  0.38780  1.0000 0.2484946195
C   C1        1.0  0.90360  0.67560  0.13460  1.0000 0.6803266729
C   C2        1.0  0.54100  0.76900  0.86540  1.0000 0.6803266729
C   C3        1.0  0.01900  0.65360  0.72800  1.0000 0.6803266729
C   C4        1.0  0.92560  0.29100  0.27200  1.0000 0.6803266729
C   C5        1.0  0.34640  0.07440  0.36540  1.0000 0.6803266729
C   C6        1.0  0.70900  0.98100  0.63460  1.0000 0.6803266729
C   C7        1.0  0.23100  0.09640  0.77200  1.0000 0.6803266729
C   C8        1.0  0.32440  0.45900  0.22800  1.0000 0.6803266729
C   C9        1.0  0.77570  0.55940  0.08270  1.0000 -0.2404046518
C   C10       1.0  0.47670  0.69300  0.91730  1.0000 -0.2404046518
C   C11       1.0  0.94300  0.52570  0.71630  1.0000 -0.2404046518
C   C12       1.0  0.80940  0.22670  0.28370  1.0000 -0.2404046518
C   C13       1.0  0.47430  0.19060  0.41730  1.0000 -0.2404046518
C   C14       1.0  0.77330  0.05700  0.58270  1.0000 -0.2404046518
C   C15       1.0  0.30700  0.22430  0.78370  1.0000 -0.2404046518
C   C16       1.0  0.44060  0.52330  0.21630  1.0000 -0.2404046518
C   C17       1.0  0.69480  0.38370  0.10550  1.0000 -0.2404046518
C   C18       1.0  0.27820  0.58930  0.89450  1.0000 -0.2404046518
C   C19       1.0  0.83930  0.44480  0.81110  1.0000 -0.2404046518
C   C20       1.0  0.63370  0.02820  0.18890  1.0000 -0.2404046518
C   C21       1.0  0.55520  0.36630  0.39450  1.0000 -0.2404046518
C   C22       1.0  0.97180  0.16070  0.60550  1.0000 -0.2404046518
C   C23       1.0  0.41070  0.30520  0.68890  1.0000 -0.2404046518
C   C24       1.0  0.61630  0.72180  0.31110  1.0000 -0.2404046518
C   C25       1.0  0.71170  0.31940  0.09750  1.0000 0.6301816205
C   C26       1.0  0.22190  0.61420  0.90250  1.0000 0.6301816205
C   C27       1.0  0.86420  0.46170  0.89230  1.0000 0.6301816205
C   C28       1.0  0.56940  0.97190  0.10770  1.0000 0.6301816205
C   C29       1.0  0.53830  0.43060  0.40250  1.0000 0.6301816205
C   C30       1.0  0.02810  0.13580  0.59750  1.0000 0.6301816205
C   C31       1.0  0.38580  0.28830  0.60770  1.0000 0.6301816205
C   C32       1.0  0.68060  0.77810  0.39230  1.0000 0.6301816205
C   C33       1.0  0.00380  0.54240  0.22680  1.0000 0.7005189383
C   C34       1.0  0.31560  0.77700  0.77320  1.0000 0.7005189383
C   C35       1.0  0.02700  0.75380  0.96140  1.0000 0.7005189383
C   C36       1.0  0.79240  0.06560  0.03860  1.0000 0.7005189383
C   C37       1.0  0.24620  0.20760  0.27320  1.0000 0.7005189383
C   C38       1.0  0.93440  0.97300  0.72680  1.0000 0.7005189383
C   C39       1.0  0.22300  0.99620  0.53860  1.0000 0.7005189383
C   C40       1.0  0.45760  0.68440  0.46140  1.0000 0.7005189383
C   C41       1.0  0.08540  0.61110  0.30570  1.0000 -0.2404046518
C   C42       1.0  0.30540  0.77970  0.69430  1.0000 -0.2404046518
C   C43       1.0  0.02970  0.83540  0.97430  1.0000 -0.2404046518
C   C44       1.0  0.86110  0.05540  0.02570  1.0000 -0.2404046518
C   C45       1.0  0.16460  0.13890  0.19430  1.0000 -0.2404046518
C   C46       1.0  0.94460  0.97030  0.80570  1.0000 -0.2404046518
C   C47       1.0  0.22030  0.91460  0.52570  1.0000 -0.2404046518
C   C48       1.0  0.38890  0.69460  0.47430  1.0000 -0.2404046518
C   C49       1.0  0.28790  0.82430  0.37400  1.0000 -0.2404046518
C   C50       1.0  0.45030  0.91390  0.62600  1.0000 -0.2404046518
C   C51       1.0  0.16390  0.03790  0.96360  1.0000 -0.2404046518
C   C52       1.0  0.07430  0.20030  0.03640  1.0000 -0.2404046518
C   C53       1.0  0.96210  0.92570  0.12600  1.0000 -0.2404046518
C   C54       1.0  0.79970  0.83610  0.87400  1.0000 -0.2404046518
C   C55       1.0  0.08610  0.71210  0.53640  1.0000 -0.2404046518
C   C56       1.0  0.17570  0.54970  0.46360  1.0000 -0.2404046518
C   C57       1.0  0.36620  0.87330  0.32330  1.0000 0.6238195473
C   C58       1.0  0.55000  0.04290  0.67670  1.0000 0.6238195473
C   C59       1.0  0.29290  0.11620  0.99290  1.0000 0.6238195473
C   C60       1.0  0.12330  0.30000  0.00710  1.0000 0.6238195473
C   C61       1.0  0.88380  0.87670  0.17670  1.0000 0.6238195473
C   C62       1.0  0.70000  0.70710  0.82330  1.0000 0.6238195473
C   C63       1.0  0.95710  0.63380  0.50710  1.0000 0.6238195473
C   C64       1.0  0.12670  0.45000  0.49290  1.0000 0.6238195473
C   C65       1.0  0.24510  0.82130  0.07660  1.0000 0.7005189383
C   C66       1.0  0.74470  0.16850  0.92340  1.0000 0.7005189383
C   C67       1.0  0.41850  0.99510  0.92380  1.0000 0.7005189383
C   C68       1.0  0.07130  0.49470  0.07620  1.0000 0.7005189383
C   C69       1.0  0.00490  0.92870  0.42340  1.0000 0.7005189383
C   C70       1.0  0.50530  0.58150  0.57660  1.0000 0.7005189383
C   C71       1.0  0.83150  0.75490  0.57620  1.0000 0.7005189383
C   C72       1.0  0.17870  0.25530  0.42380  1.0000 0.7005189383
C   C73       1.0  0.37040  0.94310  0.12830  1.0000 -0.2470979443
C   C74       1.0  0.81480  0.24210  0.87170  1.0000 -0.2470979443
C   C75       1.0  0.49210  0.12040  0.92730  1.0000 -0.2470979443
C   C76       1.0  0.19310  0.56480  0.07270  1.0000 -0.2470979443
C   C77       1.0  0.87960  0.80690  0.37170  1.0000 -0.2470979443
C   C78       1.0  0.43520  0.50790  0.62830  1.0000 -0.2470979443
C   C79       1.0  0.75790  0.62960  0.57270  1.0000 -0.2470979443
C   C80       1.0  0.05690  0.18520  0.42730  1.0000 -0.2470979443
C   C81       1.0  0.36770  0.06550  0.16260  1.0000 -0.2404046518
C   C82       1.0  0.90290  0.20510  0.83740  1.0000 -0.2404046518
C   C83       1.0  0.45510  0.11770  0.80220  1.0000 -0.2404046518
C   C84       1.0  0.31550  0.65290  0.19780  1.0000 -0.2404046518
C   C85       1.0  0.88230  0.68450  0.33740  1.0000 -0.2404046518
C   C86       1.0  0.34710  0.54490  0.66260  1.0000 -0.2404046518
C   C87       1.0  0.79490  0.63230  0.69780  1.0000 -0.2404046518
C   C88       1.0  0.93450  0.09710  0.30220  1.0000 -0.2404046518
C   C89       1.0  0.29450  0.05790  0.19400  1.0000 0.6238195473
C   C90       1.0  0.86390  0.10050  0.80600  1.0000 0.6238195473
C   C91       1.0  0.35050  0.04450  0.73660  1.0000 0.6238195473
C   C92       1.0  0.30790  0.61390  0.26340  1.0000 0.6238195473
C   C93       1.0  0.95550  0.69210  0.30600  1.0000 0.6238195473
C   C94       1.0  0.38610  0.64950  0.69400  1.0000 0.6238195473
C   C95       1.0  0.89950  0.70550  0.76340  1.0000 0.6238195473
C   C96       1.0  0.94210  0.13610  0.23660  1.0000 0.6238195473
N   N1        1.0  0.75280  0.46510  0.05790  1.0000 -0.3619796572
N   N2        1.0  0.40720  0.69490  0.94210  1.0000 -0.3619796572
N   N3        1.0  0.94490  0.50280  0.78770  1.0000 -0.3619796572
N   N4        1.0  0.71510  0.15720  0.21230  1.0000 -0.3619796572
N   N5        1.0  0.49720  0.28490  0.44210  1.0000 -0.3619796572
N   N6        1.0  0.84280  0.05510  0.55790  1.0000 -0.3619796572
N   N7        1.0  0.30510  0.24720  0.71230  1.0000 -0.3619796572
N   N8        1.0  0.53490  0.59280  0.28770  1.0000 -0.3619796572
N   N9        1.0  0.16180  0.73730  0.33350  1.0000 -0.3619796572
N   N10       1.0  0.40380  0.82830  0.66650  1.0000 -0.3619796572
N   N11       1.0  0.07830  0.91180  0.92450  1.0000 -0.3619796572
N   N12       1.0  0.98730  0.15380  0.07550  1.0000 -0.3619796572
N   N13       1.0  0.08820  0.01270  0.16650  1.0000 -0.3619796572
N   N14       1.0  0.84620  0.92170  0.83350  1.0000 -0.3619796572
N   N15       1.0  0.17170  0.83820  0.57550  1.0000 -0.3619796572
N   N16       1.0  0.26270  0.59620  0.42450  1.0000 -0.3619796572
N   N17       1.0  0.36150  0.99030  0.18540  1.0000 -0.348596563
N   N18       1.0  0.80490  0.17610  0.81460  1.0000 -0.348596563
N   N19       1.0  0.42610  0.11150  0.87120  1.0000 -0.348596563
N   N20       1.0  0.24030  0.55490  0.12880  1.0000 -0.348596563
N   N21       1.0  0.88850  0.75970  0.31460  1.0000 -0.348596563
N   N22       1.0  0.44510  0.57390  0.68540  1.0000 -0.348596563
N   N23       1.0  0.82390  0.63850  0.62880  1.0000 -0.348596563
N   N24       1.0  0.00970  0.19510  0.37120  1.0000 -0.348596563
O   O1        1.0  0.97800  0.68660  0.14060  1.0000 -0.6882289921
O   O2        1.0  0.54600  0.83740  0.85940  1.0000 -0.6882289921
O   O3        1.0  0.08740  0.72800  0.79140  1.0000 -0.6882289921
O   O4        1.0  0.93660  0.29600  0.20860  1.0000 -0.6882289921
O   O5        1.0  0.27200  0.06340  0.35940  1.0000 -0.6882289921
O   O6        1.0  0.70400  0.91260  0.64060  1.0000 -0.6882289921
O   O7        1.0  0.16260  0.02200  0.70860  1.0000 -0.6882289921
O   O8        1.0  0.31340  0.45400  0.29140  1.0000 -0.6882289921
O   O9        1.0  0.92960  0.75710  0.16650  1.0000 -0.627955546
O   O10       1.0  0.59060  0.76310  0.83350  1.0000 -0.627955546
O   O11       1.0  0.01310  0.67960  0.67250  1.0000 -0.627955546
O   O12       1.0  0.00710  0.34060  0.32750  1.0000 -0.627955546
O   O13       1.0  0.32040  0.99290  0.33350  1.0000 -0.627955546
O   O14       1.0  0.65940  0.98690  0.66650  1.0000 -0.627955546
O   O15       1.0  0.23690  0.07040  0.82750  1.0000 -0.627955546
O   O16       1.0  0.24290  0.40940  0.17250  1.0000 -0.627955546
O   O17       1.0  0.79720  0.36600  0.06980  1.0000 -0.7525620585
O   O18       1.0  0.29620  0.72740  0.93020  1.0000 -0.7525620585
O   O19       1.0  0.97740  0.54720  0.93120  1.0000 -0.7525620585
O   O20       1.0  0.61600  0.04620  0.06880  1.0000 -0.7525620585
O   O21       1.0  0.45280  0.38400  0.43020  1.0000 -0.7525620585
O   O22       1.0  0.95380  0.02260  0.56980  1.0000 -0.7525620585
O   O23       1.0  0.27260  0.20280  0.56880  1.0000 -0.7525620585
O   O24       1.0  0.63400  0.70380  0.43120  1.0000 -0.7525620585
O   O25       1.0  0.65770  0.23450  0.12380  1.0000 -0.5802237739
O   O26       1.0  0.11070  0.53390  0.87620  1.0000 -0.5802237739
O   O27       1.0  0.78390  0.40770  0.92320  1.0000 -0.5802237739
O   O28       1.0  0.48450  0.86070  0.07680  1.0000 -0.5802237739
O   O29       1.0  0.59230  0.51550  0.37620  1.0000 -0.5802237739
O   O30       1.0  0.13930  0.21610  0.62380  1.0000 -0.5802237739
O   O31       1.0  0.46610  0.34230  0.57680  1.0000 -0.5802237739
O   O32       1.0  0.76550  0.88930  0.42320  1.0000 -0.5802237739
O   O33       1.0  0.03050  0.60500  0.18570  1.0000 -0.7037770947
O   O34       1.0  0.41930  0.84480  0.81430  1.0000 -0.7037770947
O   O35       1.0  0.09480  0.78050  0.92550  1.0000 -0.7037770947
O   O36       1.0  0.85500  0.16930  0.07450  1.0000 -0.7037770947
O   O37       1.0  0.21950  0.14500  0.31430  1.0000 -0.7037770947
O   O38       1.0  0.83070  0.90520  0.68570  1.0000 -0.7037770947
O   O39       1.0  0.15520  0.96950  0.57450  1.0000 -0.7037770947
O   O40       1.0  0.39500  0.58070  0.42550  1.0000 -0.7037770947
O   O41       1.0  0.91930  0.42850  0.20900  1.0000 -0.6459968959
O   O42       1.0  0.21950  0.71030  0.79100  1.0000 -0.6459968959
O   O43       1.0  0.96030  0.66930  0.99080  1.0000 -0.6459968959
O   O44       1.0  0.67850  0.96950  0.00920  1.0000 -0.6459968959
O   O45       1.0  0.33070  0.32150  0.29100  1.0000 -0.6459968959
O   O46       1.0  0.03050  0.03970  0.70900  1.0000 -0.6459968959
O   O47       1.0  0.28970  0.08070  0.50920  1.0000 -0.6459968959
O   O48       1.0  0.57150  0.78050  0.49080  1.0000 -0.6459968959
O   O49       1.0  0.31780  0.84570  0.25850  1.0000 -0.643749473
O   O50       1.0  0.58720  0.05930  0.74150  1.0000 -0.643749473
O   O51       1.0  0.30930  0.06780  0.97210  1.0000 -0.643749473
O   O52       1.0  0.09570  0.33720  0.02790  1.0000 -0.643749473
O   O53       1.0  0.93220  0.90430  0.24150  1.0000 -0.643749473
O   O54       1.0  0.66280  0.69070  0.75850  1.0000 -0.643749473
O   O55       1.0  0.94070  0.68220  0.52790  1.0000 -0.643749473
O   O56       1.0  0.15430  0.41280  0.47210  1.0000 -0.643749473
O   O57       1.0  0.47840  0.95220  0.35420  1.0000 -0.60364416
O   O58       1.0  0.59800  0.12420  0.64580  1.0000 -0.60364416
O   O59       1.0  0.37420  0.22840  0.02620  1.0000 -0.60364416
O   O60       1.0  0.20220  0.34800  0.97380  1.0000 -0.60364416
O   O61       1.0  0.77160  0.79780  0.14580  1.0000 -0.60364416
O   O62       1.0  0.65200  0.62580  0.85420  1.0000 -0.60364416
O   O63       1.0  0.87580  0.52160  0.47380  1.0000 -0.60364416
O   O64       1.0  0.04780  0.40200  0.52620  1.0000 -0.60364416
O   O65       1.0  0.15350  0.75930  0.10240  1.0000 -0.733534125
O   O66       1.0  0.65690  0.05110  0.89760  1.0000 -0.733534125
O   O67       1.0  0.30110  0.90350  0.89420  1.0000 -0.733534125
O   O68       1.0  0.00930  0.40690  0.10580  1.0000 -0.733534125
O   O69       1.0  0.09650  0.99070  0.39760  1.0000 -0.733534125
O   O70       1.0  0.59310  0.69890  0.60240  1.0000 -0.733534125
O   O71       1.0  0.94890  0.84650  0.60580  1.0000 -0.733534125
O   O72       1.0  0.24070  0.34310  0.39420  1.0000 -0.733534125
O   O73       1.0  0.23430  0.78710  0.01320  1.0000 -0.6178841865
O   O74       1.0  0.77390  0.22110  0.98680  1.0000 -0.6178841865
O   O75       1.0  0.47110  0.98430  0.94720  1.0000 -0.6178841865
O   O76       1.0  0.03710  0.52390  0.05280  1.0000 -0.6178841865
O   O77       1.0  0.01570  0.96290  0.48680  1.0000 -0.6178841865
O   O78       1.0  0.47610  0.52890  0.51320  1.0000 -0.6178841865
O   O79       1.0  0.77890  0.76570  0.55280  1.0000 -0.6178841865
O   O80       1.0  0.21290  0.22610  0.44720  1.0000 -0.6178841865
O   O81       1.0  0.19540  0.95530  0.20630  1.0000 -0.7525620585
O   O82       1.0  0.74900  0.98910  0.79370  1.0000 -0.7525620585
O   O83       1.0  0.23910  0.94540  0.74010  1.0000 -0.7525620585
O   O84       1.0  0.20530  0.49900  0.25990  1.0000 -0.7525620585
O   O85       1.0  0.05460  0.79470  0.29370  1.0000 -0.7525620585
O   O86       1.0  0.50100  0.76090  0.70630  1.0000 -0.7525620585
O   O87       1.0  0.01090  0.80460  0.75990  1.0000 -0.7525620585
O   O88       1.0  0.04470  0.25100  0.24010  1.0000 -0.7525620585
O   O89       1.0  0.32780  0.14710  0.20770  1.0000 -0.5231073102
O   O90       1.0  0.93940  0.12010  0.79230  1.0000 -0.5231073102
O   O91       1.0  0.37010  0.07780  0.68070  1.0000 -0.5231073102
O   O92       1.0  0.39710  0.68940  0.31930  1.0000 -0.5231073102
O   O93       1.0  0.92220  0.60290  0.29230  1.0000 -0.5231073102
O   O94       1.0  0.31060  0.62990  0.70770  1.0000 -0.5231073102
O   O95       1.0  0.87990  0.67220  0.81930  1.0000 -0.5231073102
O   O96       1.0  0.85290  0.06060  0.18070  1.0000 -0.5231073102
