# DDEC6 charges by PACMAN v1.1 (https://github.com/mtap-research/PACMAN-charge/)
data_2013[Cu][nbo]3[FSR]4
_chemical_formula_sum              "Cu6 H42 C54 N6 O18"
_cell_length_a       15.7353
_cell_length_b       15.7353
_cell_length_c       15.7353
_cell_angle_alpha    117.862
_cell_angle_beta     117.862
_cell_angle_gamma    117.862

_symmetry_space_group_name_H-M    "P 1"
_symmetry_Int_Tables_number       1

loop_
  _symmetry_equiv_pos_as_xyz
  'x, y, z'

loop_
  _atom_site_type_symbol
  _atom_site_label
  _atom_site_symmetry_multiplicity
  _atom_site_fract_x
  _atom_site_fract_y
  _atom_site_fract_z
  _atom_site_occupancy
  _atom_site_charge
Cu  Cu1       1.0  0.96088  0.86262  0.39307  1.0000 0.7855035332
Cu  Cu2       1.0  0.86262  0.39307  0.96088  1.0000 0.7855035332
Cu  Cu3       1.0  0.39307  0.96088  0.86262  1.0000 0.7855035332
Cu  Cu4       1.0  0.03912  0.13738  0.60693  1.0000 0.7855035332
Cu  Cu5       1.0  0.13738  0.60693  0.03912  1.0000 0.7855035332
Cu  Cu6       1.0  0.60693  0.03912  0.13738  1.0000 0.7855035332
H   H1        1.0  0.74720  0.87680  0.50050  1.0000 0.1404313511
H   H2        1.0  0.87680  0.50050  0.74720  1.0000 0.1404313511
H   H3        1.0  0.50050  0.74720  0.87680  1.0000 0.1404313511
H   H4        1.0  0.25280  0.12320  0.49950  1.0000 0.1404313511
H   H5        1.0  0.12320  0.49950  0.25280  1.0000 0.1404313511
H   H6        1.0  0.49950  0.25280  0.12320  1.0000 0.1404313511
H   H7        1.0  0.46310  0.61920  0.32820  1.0000 0.1126392153
H   H8        1.0  0.61920  0.32820  0.46310  1.0000 0.1126392153
H   H9        1.0  0.32820  0.46310  0.61920  1.0000 0.1126392153
H   H10       1.0  0.53690  0.38080  0.67180  1.0000 0.1126392153
H   H11       1.0  0.38080  0.67180  0.53690  1.0000 0.1126392153
H   H12       1.0  0.67180  0.53690  0.38080  1.0000 0.1126392153
H   H13       1.0  0.22080  0.29280  0.03470  1.0000 0.1223772905
H   H14       1.0  0.29280  0.03470  0.22080  1.0000 0.1223772905
H   H15       1.0  0.03470  0.22080  0.29280  1.0000 0.1223772905
H   H16       1.0  0.77920  0.70720  0.96530  1.0000 0.1223772905
H   H17       1.0  0.70720  0.96530  0.77920  1.0000 0.1223772905
H   H18       1.0  0.96530  0.77920  0.70720  1.0000 0.1223772905
H   H19       1.0  0.27510  0.22770  0.92640  1.0000 0.1306239482
H   H20       1.0  0.22770  0.92640  0.27510  1.0000 0.1306239482
H   H21       1.0  0.92640  0.27510  0.22770  1.0000 0.1306239482
H   H22       1.0  0.72490  0.77230  0.07360  1.0000 0.1306239482
H   H23       1.0  0.77230  0.07360  0.72490  1.0000 0.1306239482
H   H24       1.0  0.07360  0.72490  0.77230  1.0000 0.1306239482
H   H25       1.0  0.45880  0.31970  0.94800  1.0000 0.1223772905
H   H26       1.0  0.31970  0.94800  0.45880  1.0000 0.1223772905
H   H27       1.0  0.94800  0.45880  0.31970  1.0000 0.1223772905
H   H28       1.0  0.54120  0.68030  0.05200  1.0000 0.1223772905
H   H29       1.0  0.68030  0.05200  0.54120  1.0000 0.1223772905
H   H30       1.0  0.05200  0.54120  0.68030  1.0000 0.1223772905
H   H31       1.0  0.70370  0.41900  0.04480  1.0000 0.1404313511
H   H32       1.0  0.41900  0.04480  0.70370  1.0000 0.1404313511
H   H33       1.0  0.04480  0.70370  0.41900  1.0000 0.1404313511
H   H34       1.0  0.29630  0.58100  0.95520  1.0000 0.1404313511
H   H35       1.0  0.58100  0.95520  0.29630  1.0000 0.1404313511
H   H36       1.0  0.95520  0.29630  0.58100  1.0000 0.1404313511
H   H37       1.0  0.62130  0.41130  0.92850  1.0000 0.1404313511
H   H38       1.0  0.41130  0.92850  0.62130  1.0000 0.1404313511
H   H39       1.0  0.92850  0.62130  0.41130  1.0000 0.1404313511
H   H40       1.0  0.37870  0.58870  0.07150  1.0000 0.1404313511
H   H41       1.0  0.58870  0.07150  0.37870  1.0000 0.1404313511
H   H42       1.0  0.07150  0.37870  0.58870  1.0000 0.1404313511
C   C1        1.0  0.54460  0.51360  0.14470  1.0000 -0.0616184817
C   C2        1.0  0.51360  0.14470  0.54460  1.0000 -0.0616184817
C   C3        1.0  0.14470  0.54460  0.51360  1.0000 -0.0616184817
C   C4        1.0  0.45540  0.48640  0.85530  1.0000 -0.0616184817
C   C5        1.0  0.48640  0.85530  0.45540  1.0000 -0.0616184817
C   C6        1.0  0.85530  0.45540  0.48640  1.0000 -0.0616184817
C   C7        1.0  0.68810  0.71330  0.31840  1.0000 0.2958156433
C   C8        1.0  0.71330  0.31840  0.68810  1.0000 0.2958156433
C   C9        1.0  0.31840  0.68810  0.71330  1.0000 0.2958156433
C   C10       1.0  0.31190  0.28670  0.68160  1.0000 0.2958156433
C   C11       1.0  0.28670  0.68160  0.31190  1.0000 0.2958156433
C   C12       1.0  0.68160  0.31190  0.28670  1.0000 0.2958156433
C   C13       1.0  0.65260  0.74660  0.38390  1.0000 -0.2253046218
C   C14       1.0  0.74660  0.38390  0.65260  1.0000 -0.2253046218
C   C15       1.0  0.38390  0.65260  0.74660  1.0000 -0.2253046218
C   C16       1.0  0.34740  0.25340  0.61610  1.0000 -0.2253046218
C   C17       1.0  0.25340  0.61610  0.34740  1.0000 -0.2253046218
C   C18       1.0  0.61610  0.34740  0.25340  1.0000 -0.2253046218
C   C19       1.0  0.48200  0.59200  0.28040  1.0000 -0.0714203401
C   C20       1.0  0.59200  0.28040  0.48200  1.0000 -0.0714203401
C   C21       1.0  0.28040  0.48200  0.59200  1.0000 -0.0714203401
C   C22       1.0  0.51800  0.40800  0.71960  1.0000 -0.0714203401
C   C23       1.0  0.40800  0.71960  0.51800  1.0000 -0.0714203401
C   C24       1.0  0.71960  0.51800  0.40800  1.0000 -0.0714203401
C   C25       1.0  0.33860  0.39720  0.10680  1.0000 -0.1219711337
C   C26       1.0  0.39720  0.10680  0.33860  1.0000 -0.1219711337
C   C27       1.0  0.10680  0.33860  0.39720  1.0000 -0.1219711337
C   C28       1.0  0.66140  0.60280  0.89320  1.0000 -0.1219711337
C   C29       1.0  0.60280  0.89320  0.66140  1.0000 -0.1219711337
C   C30       1.0  0.89320  0.66140  0.60280  1.0000 -0.1219711337
C   C31       1.0  0.37040  0.35890  0.04160  1.0000 -0.1294421363
C   C32       1.0  0.35890  0.04160  0.37040  1.0000 -0.1294421363
C   C33       1.0  0.04160  0.37040  0.35890  1.0000 -0.1294421363
C   C34       1.0  0.62960  0.64110  0.95840  1.0000 -0.1294421363
C   C35       1.0  0.64110  0.95840  0.62960  1.0000 -0.1294421363
C   C36       1.0  0.95840  0.62960  0.64110  1.0000 -0.1294421363
C   C37       1.0  0.56650  0.45590  0.06830  1.0000 0.0953751657
C   C38       1.0  0.45590  0.06830  0.56650  1.0000 0.0953751657
C   C39       1.0  0.06830  0.56650  0.45590  1.0000 0.0953751657
C   C40       1.0  0.43350  0.54410  0.93170  1.0000 0.0953751657
C   C41       1.0  0.54410  0.93170  0.43350  1.0000 0.0953751657
C   C42       1.0  0.93170  0.43350  0.54410  1.0000 0.0953751657
C   C43       1.0  0.72640  0.49760  0.06020  1.0000 -0.2506878012
C   C44       1.0  0.49760  0.06020  0.72640  1.0000 -0.2506878012
C   C45       1.0  0.06020  0.72640  0.49760  1.0000 -0.2506878012
C   C46       1.0  0.27360  0.50240  0.93980  1.0000 -0.2506878012
C   C47       1.0  0.50240  0.93980  0.27360  1.0000 -0.2506878012
C   C48       1.0  0.93980  0.27360  0.50240  1.0000 -0.2506878012
C   C49       1.0  0.92770  0.67000  0.19170  1.0000 0.6051195231
C   C50       1.0  0.67000  0.19170  0.92770  1.0000 0.6051195231
C   C51       1.0  0.19170  0.92770  0.67000  1.0000 0.6051195231
C   C52       1.0  0.07230  0.33000  0.80830  1.0000 0.6051195231
C   C53       1.0  0.33000  0.80830  0.07230  1.0000 0.6051195231
C   C54       1.0  0.80830  0.07230  0.33000  1.0000 0.6051195231
N   N1        1.0  0.72170  0.57620  0.15190  1.0000 -0.2506878012
N   N2        1.0  0.57620  0.15190  0.72170  1.0000 -0.2506878012
N   N3        1.0  0.15190  0.72170  0.57620  1.0000 -0.2506878012
N   N4        1.0  0.27830  0.42380  0.84810  1.0000 -0.2506878012
N   N5        1.0  0.42380  0.84810  0.27830  1.0000 -0.2506878012
N   N6        1.0  0.84810  0.27830  0.42380  1.0000 -0.2506878012
O   O1        1.0  0.84920  0.86411  0.41449  1.0000 -0.5134961042
O   O2        1.0  0.86411  0.41449  0.84920  1.0000 -0.5134961042
O   O3        1.0  0.41449  0.84920  0.86411  1.0000 -0.5134961042
O   O4        1.0  0.15080  0.13589  0.58551  1.0000 -0.5134961042
O   O5        1.0  0.13589  0.58551  0.15080  1.0000 -0.5134961042
O   O6        1.0  0.58551  0.15080  0.13589  1.0000 -0.5134961042
O   O7        1.0  0.05080  0.84370  0.34760  1.0000 -0.5220028493
O   O8        1.0  0.84370  0.34760  0.05080  1.0000 -0.5220028493
O   O9        1.0  0.34760  0.05080  0.84370  1.0000 -0.5220028493
O   O10       1.0  0.94920  0.15630  0.65240  1.0000 -0.5220028493
O   O11       1.0  0.15630  0.65240  0.94920  1.0000 -0.5220028493
O   O12       1.0  0.65240  0.94920  0.15630  1.0000 -0.5220028493
O   O13       1.0  0.96480  0.63520  0.14410  1.0000 -0.5444943938
O   O14       1.0  0.63520  0.14410  0.96480  1.0000 -0.5444943938
O   O15       1.0  0.14410  0.96480  0.63520  1.0000 -0.5444943938
O   O16       1.0  0.03520  0.36480  0.85590  1.0000 -0.5444943938
O   O17       1.0  0.36480  0.85590  0.03520  1.0000 -0.5444943938
O   O18       1.0  0.85590  0.03520  0.36480  1.0000 -0.5444943938
