# DDEC6 charges by PACMAN v1.1 (https://github.com/mtap-research/PACMAN-charge/)
data_2013[Co][ins]3[FSR]2
_chemical_formula_sum              "Co4 H32 C36 N4 O20"
_cell_length_a       6.746
_cell_length_b       7.597
_cell_length_c       22.334
_cell_angle_alpha    90
_cell_angle_beta     90
_cell_angle_gamma    90

_symmetry_space_group_name_H-M    "P 1"
_symmetry_Int_Tables_number       1

loop_
  _symmetry_equiv_pos_as_xyz
  'x, y, z'

loop_
  _atom_site_type_symbol
  _atom_site_label
  _atom_site_symmetry_multiplicity
  _atom_site_fract_x
  _atom_site_fract_y
  _atom_site_fract_z
  _atom_site_occupancy
  _atom_site_charge
Co  Co1       1.0  0.53534  0.24849  0.71090  1.0000 0.9604271861
Co  Co2       1.0  0.46466  0.24849  0.28910  1.0000 0.9604271861
Co  Co3       1.0  0.96466  0.75151  0.21090  1.0000 0.9604271861
Co  Co4       1.0  0.03534  0.75151  0.78910  1.0000 0.9604271861
H   H1        1.0  0.62750  0.36870  0.88520  1.0000 0.1387687685
H   H2        1.0  0.37250  0.36870  0.11480  1.0000 0.1387687685
H   H3        1.0  0.87250  0.63130  0.38520  1.0000 0.1387687685
H   H4        1.0  0.12750  0.63130  0.61480  1.0000 0.1387687685
H   H5        1.0  0.82000  0.24870  0.87850  1.0000 0.1387687685
H   H6        1.0  0.18000  0.24870  0.12150  1.0000 0.1387687685
H   H7        1.0  0.68000  0.75130  0.37850  1.0000 0.1387687685
H   H8        1.0  0.32000  0.75130  0.62150  1.0000 0.1387687685
H   H9        1.0  0.52300  0.08430  0.87140  1.0000 0.0889691325
H   H10       1.0  0.47700  0.08430  0.12860  1.0000 0.0889691325
H   H11       1.0  0.97700  0.91570  0.37140  1.0000 0.0889691325
H   H12       1.0  0.02300  0.91570  0.62860  1.0000 0.0889691325
H   H13       1.0  0.28580  0.24380  0.81480  1.0000 0.3905820014
H   H14       1.0  0.71420  0.24380  0.18520  1.0000 0.3905820014
H   H15       1.0  0.21420  0.75620  0.31480  1.0000 0.3905820014
H   H16       1.0  0.78580  0.75620  0.68520  1.0000 0.3905820014
H   H17       1.0  0.95430  0.33630  0.66680  1.0000 0.1173161777
H   H18       1.0  0.04570  0.33630  0.33320  1.0000 0.1173161777
H   H19       1.0  0.54570  0.66370  0.16680  1.0000 0.1173161777
H   H20       1.0  0.45430  0.66370  0.83320  1.0000 0.1173161777
H   H21       1.0  0.15260  0.31900  0.58180  1.0000 0.1387687685
H   H22       1.0  0.84740  0.31900  0.41820  1.0000 0.1387687685
H   H23       1.0  0.34740  0.68100  0.08180  1.0000 0.1387687685
H   H24       1.0  0.65260  0.68100  0.91820  1.0000 0.1387687685
H   H25       1.0  0.69520  0.09070  0.49560  1.0000 0.1285669418
H   H26       1.0  0.30480  0.09070  0.50440  1.0000 0.1285669418
H   H27       1.0  0.80480  0.90930  0.99560  1.0000 0.1285669418
H   H28       1.0  0.19520  0.90930  0.00440  1.0000 0.1285669418
H   H29       1.0  0.52120  0.08890  0.58490  1.0000 0.1025028216
H   H30       1.0  0.47880  0.08890  0.41510  1.0000 0.1025028216
H   H31       1.0  0.97880  0.91110  0.08490  1.0000 0.1025028216
H   H32       1.0  0.02120  0.91110  0.91510  1.0000 0.1025028216
C   C1        1.0  0.78590  0.42270  0.80861  1.0000 0.6624371173
C   C2        1.0  0.21410  0.42270  0.19139  1.0000 0.6624371173
C   C3        1.0  0.71410  0.57730  0.30861  1.0000 0.6624371173
C   C4        1.0  0.28590  0.57730  0.69139  1.0000 0.6624371173
C   C5        1.0  0.70570  0.29820  0.85638  1.0000 -0.3963746367
C   C6        1.0  0.29430  0.29820  0.14362  1.0000 -0.3963746367
C   C7        1.0  0.79430  0.70180  0.35638  1.0000 -0.3963746367
C   C8        1.0  0.20570  0.70180  0.64362  1.0000 -0.3963746367
C   C9        1.0  0.57770  0.14630  0.83552  1.0000 0.0760528935
C   C10       1.0  0.42230  0.14630  0.16448  1.0000 0.0760528935
C   C11       1.0  0.92230  0.85370  0.33552  1.0000 0.0760528935
C   C12       1.0  0.07770  0.85370  0.66448  1.0000 0.0760528935
C   C13       1.0  0.69960  0.01540  0.79878  1.0000 0.5626461865
C   C14       1.0  0.30040  0.01540  0.20122  1.0000 0.5626461865
C   C15       1.0  0.80040  0.98460  0.29878  1.0000 0.5626461865
C   C16       1.0  0.19960  0.98460  0.70122  1.0000 0.5626461865
C   C17       1.0  0.90090  0.28590  0.63140  1.0000 0.0889691325
C   C18       1.0  0.09910  0.28590  0.36860  1.0000 0.0889691325
C   C19       1.0  0.59910  0.71410  0.13140  1.0000 0.0889691325
C   C20       1.0  0.40090  0.71410  0.86860  1.0000 0.0889691325
C   C21       1.0  0.01970  0.27780  0.58050  1.0000 -0.1854037432
C   C22       1.0  0.98030  0.27780  0.41950  1.0000 -0.1848040758
C   C23       1.0  0.48030  0.72220  0.08050  1.0000 -0.1854037432
C   C24       1.0  0.51970  0.72220  0.91950  1.0000 -0.1854037432
C   C25       1.0  0.94150  0.20880  0.52780  1.0000 0.1065309109
C   C26       1.0  0.05850  0.20880  0.47220  1.0000 0.1065309109
C   C27       1.0  0.55850  0.79120  0.02780  1.0000 0.1065309109
C   C28       1.0  0.44150  0.79120  0.97220  1.0000 0.1065309109
C   C29       1.0  0.75310  0.14090  0.53040  1.0000 -0.2004217444
C   C30       1.0  0.24690  0.14090  0.46960  1.0000 -0.2004217444
C   C31       1.0  0.74690  0.85910  0.03040  1.0000 -0.2004217444
C   C32       1.0  0.25310  0.85910  0.96960  1.0000 -0.2004217444
C   C33       1.0  0.64680  0.14530  0.58350  1.0000 0.0889691325
C   C34       1.0  0.35320  0.14530  0.41650  1.0000 0.0889691325
C   C35       1.0  0.85320  0.85470  0.08350  1.0000 0.0889691325
C   C36       1.0  0.14680  0.85470  0.91650  1.0000 0.0889691325
N   N1        1.0  0.71300  0.22500  0.63252  1.0000 -0.2357239662
N   N2        1.0  0.28700  0.22500  0.36748  1.0000 -0.2357239662
N   N3        1.0  0.78700  0.77500  0.13252  1.0000 -0.2357239662
N   N4        1.0  0.21300  0.77500  0.86748  1.0000 -0.2357239662
O   O1        1.0  0.74670  0.40020  0.75403  1.0000 -0.5704742807
O   O2        1.0  0.25330  0.40020  0.24597  1.0000 -0.5755124329
O   O3        1.0  0.75330  0.59980  0.25403  1.0000 -0.5755124329
O   O4        1.0  0.24670  0.59980  0.74597  1.0000 -0.5704742807
O   O5        1.0  0.89220  0.54460  0.82852  1.0000 -0.5862671672
O   O6        1.0  0.10780  0.54460  0.17148  1.0000 -0.5862671672
O   O7        1.0  0.60780  0.45540  0.32852  1.0000 -0.5862671672
O   O8        1.0  0.39220  0.45540  0.67148  1.0000 -0.5862671672
O   O9        1.0  0.41580  0.21690  0.80121  1.0000 -0.4943354367
O   O10       1.0  0.58420  0.21690  0.19879  1.0000 -0.4943354367
O   O11       1.0  0.08420  0.78310  0.30121  1.0000 -0.4943354367
O   O12       1.0  0.91580  0.78310  0.69879  1.0000 -0.4943354367
O   O13       1.0  0.67550  0.01850  0.74233  1.0000 -0.5484315245
O   O14       1.0  0.32450  0.01850  0.25767  1.0000 -0.5484315245
O   O15       1.0  0.82450  0.98150  0.24233  1.0000 -0.5484315245
O   O16       1.0  0.17550  0.98150  0.75767  1.0000 -0.5484315245
O   O17       1.0  0.81760  0.91840  0.82626  1.0000 -0.5704742807
O   O18       1.0  0.18240  0.91840  0.17374  1.0000 -0.5704742807
O   O19       1.0  0.68240  0.08160  0.32626  1.0000 -0.5704742807
O   O20       1.0  0.31760  0.08160  0.67374  1.0000 -0.5704742807
