# DDEC6 charges by PACMAN v1.1 (https://github.com/mtap-research/PACMAN-charge/)
data_2013[Mn][sql]3[FSR]1
_chemical_formula_sum              "Mn4 H92 C112 N8 O16"
_cell_length_a       9.987
_cell_length_b       22.771
_cell_length_c       11.664
_cell_angle_alpha    90
_cell_angle_beta     100.588
_cell_angle_gamma    90

_symmetry_space_group_name_H-M    "P 1"
_symmetry_Int_Tables_number       1

loop_
  _symmetry_equiv_pos_as_xyz
  'x, y, z'

loop_
  _atom_site_type_symbol
  _atom_site_label
  _atom_site_symmetry_multiplicity
  _atom_site_fract_x
  _atom_site_fract_y
  _atom_site_fract_z
  _atom_site_occupancy
  _atom_site_charge
Mn  Mn1       1.0  0.58444  0.94987  0.88356  1.0000 0.7065686814
Mn  Mn2       1.0  0.41556  0.44987  0.61644  1.0000 0.7065686814
Mn  Mn3       1.0  0.41556  0.05013  0.11644  1.0000 0.7065686814
Mn  Mn4       1.0  0.58444  0.55013  0.38356  1.0000 0.7065686814
H   H1        1.0  0.85450  0.00460  0.01390  1.0000 0.1035211876
H   H2        1.0  0.14550  0.50460  0.48610  1.0000 0.1035211876
H   H3        1.0  0.14550  0.99540  0.98610  1.0000 0.1035211876
H   H4        1.0  0.85450  0.49540  0.51390  1.0000 0.1035211876
H   H5        1.0  0.01060  0.00670  0.18200  1.0000 0.1319341636
H   H6        1.0  0.98940  0.50670  0.31800  1.0000 0.1319341636
H   H7        1.0  0.98940  0.99330  0.81800  1.0000 0.1319341636
H   H8        1.0  0.01060  0.49330  0.68200  1.0000 0.1319341636
H   H9        1.0  0.79670  0.88150  0.30730  1.0000 0.1410846882
H   H10       1.0  0.20330  0.38150  0.19270  1.0000 0.1410846882
H   H11       1.0  0.20330  0.11850  0.69270  1.0000 0.1410846882
H   H12       1.0  0.79670  0.61850  0.80730  1.0000 0.1410846882
H   H13       1.0  0.64600  0.88380  0.13480  1.0000 0.1035211876
H   H14       1.0  0.35400  0.38380  0.36520  1.0000 0.1035211876
H   H15       1.0  0.35400  0.11620  0.86520  1.0000 0.1035211876
H   H16       1.0  0.64600  0.61620  0.63480  1.0000 0.1035211876
H   H17       1.0  0.00030  0.91720  0.43450  1.0000 0.1187110286
H   H18       1.0  0.99970  0.41720  0.06550  1.0000 0.1187110286
H   H19       1.0  0.99970  0.08280  0.56550  1.0000 0.1187110286
H   H20       1.0  0.00030  0.58280  0.93450  1.0000 0.1187110286
H   H21       1.0  0.15040  0.00130  0.34880  1.0000 0.1319341636
H   H22       1.0  0.84960  0.50130  0.15120  1.0000 0.1319341636
H   H23       1.0  0.84960  0.99870  0.65120  1.0000 0.1319341636
H   H24       1.0  0.15040  0.49870  0.84880  1.0000 0.1319341636
H   H25       1.0  0.34110  0.04050  0.48750  1.0000 0.1410846882
H   H26       1.0  0.65890  0.54050  0.01250  1.0000 0.1410846882
H   H27       1.0  0.65890  0.95950  0.51250  1.0000 0.1410846882
H   H28       1.0  0.34110  0.45950  0.98750  1.0000 0.1410846882
H   H29       1.0  0.49680  0.03320  0.65860  1.0000 0.1187110286
H   H30       1.0  0.50320  0.53320  0.84140  1.0000 0.1187110286
H   H31       1.0  0.50320  0.96680  0.34140  1.0000 0.1187110286
H   H32       1.0  0.49680  0.46680  0.15860  1.0000 0.1187110286
H   H33       1.0  0.31460  0.89730  0.75110  1.0000 0.1187110286
H   H34       1.0  0.68540  0.39730  0.74890  1.0000 0.1187110286
H   H35       1.0  0.68540  0.10270  0.24890  1.0000 0.1187110286
H   H36       1.0  0.31460  0.60270  0.25110  1.0000 0.1187110286
H   H37       1.0  0.15290  0.90140  0.58590  1.0000 0.1319341636
H   H38       1.0  0.84710  0.40140  0.91410  1.0000 0.1319341636
H   H39       1.0  0.84710  0.09860  0.41410  1.0000 0.1319341636
H   H40       1.0  0.15290  0.59860  0.08590  1.0000 0.1319341636
H   H41       1.0  0.01090  0.88110  0.81030  1.0000 0.1187110286
H   H42       1.0  0.98910  0.38110  0.68970  1.0000 0.1187110286
H   H43       1.0  0.98910  0.11890  0.18970  1.0000 0.1187110286
H   H44       1.0  0.01090  0.61890  0.31030  1.0000 0.1187110286
H   H45       1.0  0.15250  0.81430  0.74630  1.0000 0.1187110286
H   H46       1.0  0.84750  0.31430  0.75370  1.0000 0.1187110286
H   H47       1.0  0.84750  0.18570  0.25370  1.0000 0.1187110286
H   H48       1.0  0.15250  0.68570  0.24630  1.0000 0.1187110286
H   H49       1.0  0.69290  0.79760  0.62930  1.0000 0.1319341636
H   H50       1.0  0.30710  0.29760  0.87070  1.0000 0.1319341636
H   H51       1.0  0.30710  0.20240  0.37070  1.0000 0.1319341636
H   H52       1.0  0.69290  0.70240  0.12930  1.0000 0.1319341636
H   H53       1.0  0.10950  0.80850  0.49720  1.0000 0.1187110286
H   H54       1.0  0.89050  0.30850  0.00280  1.0000 0.1187110286
H   H55       1.0  0.89050  0.19150  0.50280  1.0000 0.1187110286
H   H56       1.0  0.10950  0.69150  0.99720  1.0000 0.1187110286
H   H57       1.0  0.25960  0.80210  0.47660  1.0000 0.1410846882
H   H58       1.0  0.74040  0.30210  0.02340  1.0000 0.1410846882
H   H59       1.0  0.74040  0.19790  0.52340  1.0000 0.1410846882
H   H60       1.0  0.25960  0.69790  0.97660  1.0000 0.1410846882
H   H61       1.0  0.13940  0.77390  0.38850  1.0000 0.1319341636
H   H62       1.0  0.86060  0.27390  0.11150  1.0000 0.1319341636
H   H63       1.0  0.86060  0.22610  0.61150  1.0000 0.1319341636
H   H64       1.0  0.13940  0.72610  0.88850  1.0000 0.1319341636
H   H65       1.0  0.32850  0.69070  0.45720  1.0000 0.1319341636
H   H66       1.0  0.67150  0.19070  0.04280  1.0000 0.1319341636
H   H67       1.0  0.67150  0.30930  0.54280  1.0000 0.1319341636
H   H68       1.0  0.32850  0.80930  0.95720  1.0000 0.1319341636
H   H69       1.0  0.20590  0.58790  0.69020  1.0000 0.1187110286
H   H70       1.0  0.79410  0.08790  0.80980  1.0000 0.1187110286
H   H71       1.0  0.79410  0.41210  0.30980  1.0000 0.1187110286
H   H72       1.0  0.20590  0.91210  0.19020  1.0000 0.1187110286
H   H73       1.0  0.06030  0.65940  0.72780  1.0000 0.1187110286
H   H74       1.0  0.93970  0.15940  0.77220  1.0000 0.1187110286
H   H75       1.0  0.93970  0.34060  0.27220  1.0000 0.1187110286
H   H76       1.0  0.06030  0.84060  0.22780  1.0000 0.1187110286
H   H77       1.0  0.88930  0.70020  0.49160  1.0000 0.1319341636
H   H78       1.0  0.11070  0.20020  0.00840  1.0000 0.1319341636
H   H79       1.0  0.11070  0.29980  0.50840  1.0000 0.1319341636
H   H80       1.0  0.88930  0.79980  0.99160  1.0000 0.1319341636
H   H81       1.0  0.74400  0.70170  0.52450  1.0000 0.1410846882
H   H82       1.0  0.25600  0.20170  0.97550  1.0000 0.1410846882
H   H83       1.0  0.25600  0.29830  0.47550  1.0000 0.1410846882
H   H84       1.0  0.74400  0.79830  0.02450  1.0000 0.1410846882
H   H85       1.0  0.78770  0.75100  0.44510  1.0000 0.1410846882
H   H86       1.0  0.21230  0.25100  0.05490  1.0000 0.1410846882
H   H87       1.0  0.21230  0.24900  0.55490  1.0000 0.1410846882
H   H88       1.0  0.78770  0.74900  0.94510  1.0000 0.1410846882
H   H89       1.0  0.48250  0.96150  0.78060  1.0000 0.1529152438
H   H90       1.0  0.51750  0.46150  0.71940  1.0000 0.1529152438
H   H91       1.0  0.51750  0.03850  0.21940  1.0000 0.1529152438
H   H92       1.0  0.48250  0.53850  0.28060  1.0000 0.1529152438
C   C1        1.0  0.84270  0.97940  0.07390  1.0000 0.0698047846
C   C2        1.0  0.15730  0.47940  0.42610  1.0000 0.0698047846
C   C3        1.0  0.15730  0.02060  0.92610  1.0000 0.0698047846
C   C4        1.0  0.84270  0.52060  0.57390  1.0000 0.0698047846
C   C5        1.0  0.93670  0.98120  0.17490  1.0000 -0.2027856203
C   C6        1.0  0.06330  0.48120  0.32510  1.0000 -0.2027856203
C   C7        1.0  0.06330  0.01880  0.82510  1.0000 -0.2027856203
C   C8        1.0  0.93670  0.51880  0.67490  1.0000 -0.2027856203
C   C9        1.0  0.92100  0.94490  0.26610  1.0000 0.1529152438
C   C10       1.0  0.07900  0.44490  0.23390  1.0000 0.1529152438
C   C11       1.0  0.07900  0.05510  0.73390  1.0000 0.1529152438
C   C12       1.0  0.92100  0.55510  0.76610  1.0000 0.1529152438
C   C13       1.0  0.81040  0.90740  0.24890  1.0000 -0.2065183637
C   C14       1.0  0.18960  0.40740  0.25110  1.0000 -0.2065183637
C   C15       1.0  0.18960  0.09260  0.75110  1.0000 -0.2065183637
C   C16       1.0  0.81040  0.59260  0.74890  1.0000 -0.2065183637
C   C17       1.0  0.72090  0.90880  0.14430  1.0000 0.0698047846
C   C18       1.0  0.27910  0.40880  0.35570  1.0000 0.0698047846
C   C19       1.0  0.27910  0.09120  0.85570  1.0000 0.0698047846
C   C20       1.0  0.72090  0.59120  0.64430  1.0000 0.0698047846
C   C21       1.0  0.01930  0.94300  0.37780  1.0000 -0.1491735421
C   C22       1.0  0.98070  0.44300  0.12220  1.0000 -0.1491735421
C   C23       1.0  0.98070  0.05700  0.62220  1.0000 -0.1491735421
C   C24       1.0  0.01930  0.55700  0.87780  1.0000 -0.1491735421
C   C25       1.0  0.13160  0.97460  0.40420  1.0000 -0.1423594292
C   C26       1.0  0.86840  0.47460  0.09580  1.0000 -0.1423594292
C   C27       1.0  0.86840  0.02540  0.59580  1.0000 -0.1423594292
C   C28       1.0  0.13160  0.52540  0.90420  1.0000 -0.1423594292
C   C29       1.0  0.22830  0.97060  0.51420  1.0000 0.1529152438
C   C30       1.0  0.77170  0.47060  0.98580  1.0000 0.1529152438
C   C31       1.0  0.77170  0.02940  0.48580  1.0000 0.1529152438
C   C32       1.0  0.22830  0.52940  0.01420  1.0000 0.1529152438
C   C33       1.0  0.33310  0.01040  0.53960  1.0000 -0.2286827892
C   C34       1.0  0.66690  0.51040  0.96040  1.0000 -0.2286827892
C   C35       1.0  0.66690  0.98960  0.46040  1.0000 -0.2286827892
C   C36       1.0  0.33310  0.48960  0.03960  1.0000 -0.2286827892
C   C37       1.0  0.42720  0.00560  0.64290  1.0000 0.0485767506
C   C38       1.0  0.57280  0.50560  0.85710  1.0000 0.0485767506
C   C39       1.0  0.57280  0.99440  0.35710  1.0000 0.0485767506
C   C40       1.0  0.42720  0.49440  0.14290  1.0000 0.0485767506
C   C41       1.0  0.32050  0.92660  0.69670  1.0000 0.0386756461
C   C42       1.0  0.67950  0.42660  0.80330  1.0000 0.0386756461
C   C43       1.0  0.67950  0.07340  0.30330  1.0000 0.0386756461
C   C44       1.0  0.32050  0.57340  0.19670  1.0000 0.0386756461
C   C45       1.0  0.22320  0.92870  0.59710  1.0000 -0.2027856203
C   C46       1.0  0.77680  0.42870  0.90290  1.0000 -0.2065183637
C   C47       1.0  0.77680  0.07130  0.40290  1.0000 -0.2027856203
C   C48       1.0  0.22320  0.57130  0.09710  1.0000 -0.2065183637
C   C49       1.0  0.74310  0.88510  0.77870  1.0000 0.5206539266
C   C50       1.0  0.25690  0.38510  0.72130  1.0000 0.5206539266
C   C51       1.0  0.25690  0.11490  0.22130  1.0000 0.5206539266
C   C52       1.0  0.74310  0.61490  0.27870  1.0000 0.5206539266
C   C53       1.0  0.83750  0.84480  0.73060  1.0000 -0.0256186567
C   C54       1.0  0.16250  0.34480  0.76940  1.0000 -0.0256186567
C   C55       1.0  0.16250  0.15520  0.26940  1.0000 -0.0256186567
C   C56       1.0  0.83750  0.65520  0.23060  1.0000 -0.0256186567
C   C57       1.0  0.97410  0.85040  0.76220  1.0000 -0.1423594292
C   C58       1.0  0.02590  0.35040  0.73780  1.0000 -0.1423594292
C   C59       1.0  0.02590  0.14960  0.23780  1.0000 -0.1423594292
C   C60       1.0  0.97410  0.64960  0.26220  1.0000 -0.1423594292
C   C61       1.0  0.05880  0.81020  0.72270  1.0000 -0.1676385526
C   C62       1.0  0.94120  0.31020  0.77730  1.0000 -0.1676385526
C   C63       1.0  0.94120  0.18980  0.27730  1.0000 -0.1676385526
C   C64       1.0  0.05880  0.68980  0.22270  1.0000 -0.1676385526
C   C65       1.0  0.01040  0.76450  0.65010  1.0000 0.0126949984
C   C66       1.0  0.98960  0.26450  0.84990  1.0000 0.0126949984
C   C67       1.0  0.98960  0.23550  0.34990  1.0000 0.0126949984
C   C68       1.0  0.01040  0.73550  0.15010  1.0000 0.0126949984
C   C69       1.0  0.78650  0.80070  0.65440  1.0000 -0.1763095364
C   C70       1.0  0.21350  0.30070  0.84560  1.0000 -0.1763095364
C   C71       1.0  0.21350  0.19930  0.34560  1.0000 -0.1763095364
C   C72       1.0  0.78650  0.69930  0.15440  1.0000 -0.1763095364
C   C73       1.0  0.87240  0.76040  0.61390  1.0000 0.1117448125
C   C74       1.0  0.12760  0.26040  0.88610  1.0000 0.1117448125
C   C75       1.0  0.12760  0.23960  0.38610  1.0000 0.1117448125
C   C76       1.0  0.87240  0.73960  0.11390  1.0000 0.1117448125
C   C77       1.0  0.10480  0.71950  0.61800  1.0000 0.0230571411
C   C78       1.0  0.89520  0.21950  0.88200  1.0000 0.0230571411
C   C79       1.0  0.89520  0.28050  0.38200  1.0000 0.0230571411
C   C80       1.0  0.10480  0.78050  0.11800  1.0000 0.0230571411
C   C81       1.0  0.18780  0.72930  0.53650  1.0000 0.1187110286
C   C82       1.0  0.81220  0.22930  0.96350  1.0000 0.1319341636
C   C83       1.0  0.81220  0.27070  0.46350  1.0000 0.1319341636
C   C84       1.0  0.18780  0.77070  0.03650  1.0000 0.1319341636
C   C85       1.0  0.17280  0.78300  0.46900  1.0000 -0.4528948285
C   C86       1.0  0.82720  0.28300  0.03100  1.0000 -0.4528948285
C   C87       1.0  0.82720  0.21700  0.53100  1.0000 -0.4528948285
C   C88       1.0  0.17280  0.71700  0.96900  1.0000 -0.4528948285
C   C89       1.0  0.27450  0.68450  0.51320  1.0000 -0.1676385526
C   C90       1.0  0.72550  0.18450  0.98680  1.0000 -0.1676385526
C   C91       1.0  0.72550  0.31550  0.48680  1.0000 -0.1676385526
C   C92       1.0  0.27450  0.81550  0.01320  1.0000 -0.1676385526
C   C93       1.0  0.28250  0.63220  0.56950  1.0000 -0.0403455712
C   C94       1.0  0.71750  0.13220  0.93050  1.0000 -0.0403455712
C   C95       1.0  0.71750  0.36780  0.43050  1.0000 -0.0403455712
C   C96       1.0  0.28250  0.86780  0.06950  1.0000 -0.0403455712
C   C97       1.0  0.37730  0.58500  0.54420  1.0000 0.5527955971
C   C98       1.0  0.62270  0.08500  0.95580  1.0000 0.5527955971
C   C99       1.0  0.62270  0.41500  0.45580  1.0000 0.5527955971
C   C100      1.0  0.37730  0.91500  0.04420  1.0000 0.5527955971
C   C101      1.0  0.20180  0.62340  0.65020  1.0000 -0.1314591683
C   C102      1.0  0.79820  0.12340  0.84980  1.0000 -0.1314591683
C   C103      1.0  0.79820  0.37660  0.34980  1.0000 -0.1314591683
C   C104      1.0  0.20180  0.87660  0.15020  1.0000 -0.1314591683
C   C105      1.0  0.11480  0.66667  0.67270  1.0000 -0.1491735421
C   C106      1.0  0.88520  0.16660  0.82730  1.0000 -0.1491735421
C   C107      1.0  0.88520  0.33340  0.32730  1.0000 -0.1491735421
C   C108      1.0  0.11480  0.83340  0.17270  1.0000 -0.1491735421
C   C109      1.0  0.81870  0.72530  0.50970  1.0000 -0.4427730657
C   C110      1.0  0.18130  0.22530  0.99030  1.0000 -0.4427730657
C   C111      1.0  0.18130  0.27470  0.49030  1.0000 -0.4427730657
C   C112      1.0  0.81870  0.77470  0.00970  1.0000 -0.4427730657
N   N1        1.0  0.42170  0.96425  0.71830  1.0000 -0.1314591683
N   N2        1.0  0.57830  0.46425  0.78170  1.0000 -0.1314591683
N   N3        1.0  0.57830  0.03575  0.28170  1.0000 -0.1314591683
N   N4        1.0  0.42170  0.53575  0.21830  1.0000 -0.1314591683
N   N5        1.0  0.73490  0.94371  0.05580  1.0000 -0.22080063
N   N6        1.0  0.26510  0.44371  0.44420  1.0000 -0.22080063
N   N7        1.0  0.26510  0.05629  0.94420  1.0000 -0.22080063
N   N8        1.0  0.73490  0.55629  0.55580  1.0000 -0.22080063
O   O1        1.0  0.63310  0.86457  0.80110  1.0000 -0.5228829302
O   O2        1.0  0.36690  0.36457  0.69890  1.0000 -0.5228829302
O   O3        1.0  0.36690  0.13543  0.19890  1.0000 -0.5228829302
O   O4        1.0  0.63310  0.63543  0.30110  1.0000 -0.5228829302
O   O5        1.0  0.77380  0.93683  0.79910  1.0000 -0.5256814875
O   O6        1.0  0.22620  0.43683  0.70090  1.0000 -0.5256814875
O   O7        1.0  0.22620  0.06317  0.20090  1.0000 -0.5256814875
O   O8        1.0  0.77380  0.56317  0.29910  1.0000 -0.5256814875
O   O9        1.0  0.43490  0.59237  0.45830  1.0000 -0.5426092662
O   O10       1.0  0.56510  0.09237  0.04170  1.0000 -0.5426092662
O   O11       1.0  0.56510  0.40763  0.54170  1.0000 -0.5426092662
O   O12       1.0  0.43490  0.90763  0.95830  1.0000 -0.5426092662
O   O13       1.0  0.39270  0.54080  0.61000  1.0000 -0.5536283024
O   O14       1.0  0.60730  0.04080  0.89000  1.0000 -0.5536283024
O   O15       1.0  0.60730  0.45920  0.39000  1.0000 -0.5536283024
O   O16       1.0  0.39270  0.95920  0.11000  1.0000 -0.5536283024
