# DDEC6 charges by PACMAN v1.1 (https://github.com/mtap-research/PACMAN-charge/)
data_2013[Co][jeb]3[FSR]1
_chemical_formula_sum              "Co8 H88 C88 N8 O72"
_cell_length_a       17.8069
_cell_length_b       17.8069
_cell_length_c       11.3816
_cell_angle_alpha    90
_cell_angle_beta     90
_cell_angle_gamma    129.394

_symmetry_space_group_name_H-M    "P 1"
_symmetry_Int_Tables_number       1

loop_
  _symmetry_equiv_pos_as_xyz
  'x, y, z'

loop_
  _atom_site_type_symbol
  _atom_site_label
  _atom_site_symmetry_multiplicity
  _atom_site_fract_x
  _atom_site_fract_y
  _atom_site_fract_z
  _atom_site_occupancy
  _atom_site_charge
Co  Co1       1.0  0.13899  0.13899  0.70680  1.0000 1.023264667
Co  Co2       1.0  0.86101  0.86101  0.29320  1.0000 1.023264667
Co  Co3       1.0  0.11905  0.88095  0.00000  1.0000 0.8605931756
Co  Co4       1.0  0.88095  0.11905  0.00000  1.0000 0.8605931756
Co  Co5       1.0  0.36101  0.36101  0.20680  1.0000 1.023264667
Co  Co6       1.0  0.63899  0.63899  0.79320  1.0000 1.023264667
Co  Co7       1.0  0.38095  0.61905  0.50000  1.0000 0.8605931756
Co  Co8       1.0  0.61905  0.38095  0.50000  1.0000 0.8605931756
H   H1        1.0  0.34350  0.08970  0.75230  1.0000 0.3647339474
H   H2        1.0  0.91030  0.65650  0.24770  1.0000 0.3647339474
H   H3        1.0  0.65650  0.91030  0.24770  1.0000 0.3647339474
H   H4        1.0  0.08970  0.34350  0.75230  1.0000 0.3647339474
H   H5        1.0  0.93550  0.78450  0.02600  1.0000 0.3051834312
H   H6        1.0  0.21550  0.06450  0.97400  1.0000 0.3051834312
H   H7        1.0  0.06450  0.21550  0.97400  1.0000 0.3044984844
H   H8        1.0  0.78450  0.93550  0.02600  1.0000 0.3051834312
H   H9        1.0  0.96900  0.84100  0.94100  1.0000 0.2840733286
H   H10       1.0  0.15900  0.03100  0.05900  1.0000 0.2840733286
H   H11       1.0  0.03100  0.15900  0.05900  1.0000 0.2840733286
H   H12       1.0  0.84100  0.96900  0.94100  1.0000 0.2840733286
H   H13       1.0  0.98690  0.68990  0.86820  1.0000 0.1183924902
H   H14       1.0  0.31010  0.01310  0.13180  1.0000 0.1183924902
H   H15       1.0  0.01310  0.31010  0.13180  1.0000 0.1183924902
H   H16       1.0  0.68990  0.98690  0.86820  1.0000 0.1183924902
H   H17       1.0  0.93940  0.53620  0.86100  1.0000 0.1311608311
H   H18       1.0  0.46380  0.06060  0.13900  1.0000 0.1311608311
H   H19       1.0  0.06060  0.46380  0.13900  1.0000 0.1311608311
H   H20       1.0  0.53620  0.93940  0.86100  1.0000 0.1311608311
H   H21       1.0  0.09360  0.59740  0.15070  1.0000 0.1183924902
H   H22       1.0  0.40260  0.90640  0.84930  1.0000 0.1183924902
H   H23       1.0  0.90640  0.40260  0.84930  1.0000 0.1183924902
H   H24       1.0  0.59740  0.09360  0.15070  1.0000 0.1183924902
H   H25       1.0  0.13530  0.74850  0.15170  1.0000 0.1183924902
H   H26       1.0  0.25150  0.86470  0.84830  1.0000 0.1183924902
H   H27       1.0  0.86470  0.25150  0.84830  1.0000 0.1183924902
H   H28       1.0  0.74850  0.13530  0.15170  1.0000 0.1183924902
H   H29       1.0  0.05810  0.09790  0.90500  1.0000 0.3185809814
H   H30       1.0  0.90210  0.94190  0.09500  1.0000 0.3185809814
H   H31       1.0  0.94190  0.90210  0.09500  1.0000 0.3185809814
H   H32       1.0  0.09790  0.05810  0.90500  1.0000 0.3185809814
H   H33       1.0  0.27820  0.31780  0.76100  1.0000 0.3185809814
H   H34       1.0  0.68220  0.72180  0.23900  1.0000 0.3185809814
H   H35       1.0  0.72180  0.68220  0.23900  1.0000 0.3185809814
H   H36       1.0  0.31780  0.27820  0.76100  1.0000 0.3185809814
H   H37       1.0  0.22240  0.18160  0.50800  1.0000 0.332123613
H   H38       1.0  0.81840  0.77760  0.49200  1.0000 0.332123613
H   H39       1.0  0.77760  0.81840  0.49200  1.0000 0.332123613
H   H40       1.0  0.18160  0.22240  0.50800  1.0000 0.332123613
H   H41       1.0  0.96580  0.00020  0.65900  1.0000 0.2840733286
H   H42       1.0  0.99980  0.03420  0.34100  1.0000 0.2840733286
H   H43       1.0  0.03420  0.99980  0.34100  1.0000 0.2840733286
H   H44       1.0  0.00020  0.96580  0.65900  1.0000 0.2840733286
H   H45       1.0  0.15650  0.41030  0.25230  1.0000 0.3647339474
H   H46       1.0  0.58970  0.84350  0.74770  1.0000 0.3647339474
H   H47       1.0  0.84350  0.58970  0.74770  1.0000 0.3647339474
H   H48       1.0  0.41030  0.15650  0.25230  1.0000 0.3647339474
H   H49       1.0  0.56450  0.71550  0.52600  1.0000 0.3051834312
H   H50       1.0  0.28450  0.43550  0.47400  1.0000 0.3051834312
H   H51       1.0  0.43550  0.28450  0.47400  1.0000 0.3051834312
H   H52       1.0  0.71550  0.56450  0.52600  1.0000 0.3051834312
H   H53       1.0  0.53100  0.65900  0.44100  1.0000 0.2840733286
H   H54       1.0  0.34100  0.46900  0.55900  1.0000 0.2840733286
H   H55       1.0  0.46900  0.34100  0.55900  1.0000 0.2840733286
H   H56       1.0  0.65900  0.53100  0.44100  1.0000 0.2840733286
H   H57       1.0  0.51310  0.81010  0.36820  1.0000 0.1183924902
H   H58       1.0  0.18990  0.48690  0.63180  1.0000 0.1183924902
H   H59       1.0  0.48690  0.18990  0.63180  1.0000 0.1183924902
H   H60       1.0  0.81010  0.51310  0.36820  1.0000 0.1183924902
H   H61       1.0  0.56060  0.96380  0.36100  1.0000 0.1311608311
H   H62       1.0  0.03620  0.43940  0.63900  1.0000 0.1311608311
H   H63       1.0  0.43940  0.03620  0.63900  1.0000 0.1311608311
H   H64       1.0  0.96380  0.56060  0.36100  1.0000 0.1311608311
H   H65       1.0  0.40640  0.90260  0.65070  1.0000 0.1183924902
H   H66       1.0  0.09740  0.59360  0.34930  1.0000 0.1183924902
H   H67       1.0  0.59360  0.09740  0.34930  1.0000 0.1183924902
H   H68       1.0  0.90260  0.40640  0.65070  1.0000 0.1183924902
H   H69       1.0  0.36470  0.75150  0.65170  1.0000 0.1183924902
H   H70       1.0  0.24850  0.63530  0.34830  1.0000 0.1183924902
H   H71       1.0  0.63530  0.24850  0.34830  1.0000 0.1183924902
H   H72       1.0  0.75150  0.36470  0.65170  1.0000 0.1183924902
H   H73       1.0  0.44190  0.40210  0.40500  1.0000 0.3185809814
H   H74       1.0  0.59790  0.55810  0.59500  1.0000 0.3185809814
H   H75       1.0  0.55810  0.59790  0.59500  1.0000 0.3185809814
H   H76       1.0  0.40210  0.44190  0.40500  1.0000 0.3185809814
H   H77       1.0  0.22180  0.18220  0.26100  1.0000 0.3185809814
H   H78       1.0  0.81780  0.77820  0.73900  1.0000 0.3185809814
H   H79       1.0  0.77820  0.81780  0.73900  1.0000 0.3185809814
H   H80       1.0  0.18220  0.22180  0.26100  1.0000 0.3185809814
H   H81       1.0  0.27760  0.31840  0.00800  1.0000 0.332123613
H   H82       1.0  0.68160  0.72240  0.99200  1.0000 0.332123613
H   H83       1.0  0.72240  0.68160  0.99200  1.0000 0.332123613
H   H84       1.0  0.31840  0.27760  0.00800  1.0000 0.332123613
H   H85       1.0  0.53420  0.49980  0.15900  1.0000 0.2840733286
H   H86       1.0  0.50020  0.46580  0.84100  1.0000 0.2840733286
H   H87       1.0  0.46580  0.50020  0.84100  1.0000 0.2840733286
H   H88       1.0  0.49980  0.53420  0.15900  1.0000 0.2840733286
C   C1        1.0  0.23538  0.04030  0.67660  1.0000 0.6044135895
C   C2        1.0  0.95970  0.76462  0.32340  1.0000 0.6044135895
C   C3        1.0  0.76462  0.95970  0.32340  1.0000 0.6044135895
C   C4        1.0  0.04030  0.23538  0.67660  1.0000 0.6044135895
C   C5        1.0  0.05215  0.86453  0.74730  1.0000 0.570522571
C   C6        1.0  0.13547  0.94785  0.25270  1.0000 0.570522571
C   C7        1.0  0.94785  0.13547  0.25270  1.0000 0.570522571
C   C8        1.0  0.86453  0.05215  0.74730  1.0000 0.570522571
C   C9        1.0  0.28527  0.07963  0.42240  1.0000 0.570522571
C   C10       1.0  0.92037  0.71473  0.57760  1.0000 0.570522571
C   C11       1.0  0.71473  0.92037  0.57760  1.0000 0.570522571
C   C12       1.0  0.07963  0.28527  0.42240  1.0000 0.570522571
C   C13       1.0  0.16764  0.96668  0.58350  1.0000 -0.0649817306
C   C14       1.0  0.03332  0.83236  0.41650  1.0000 -0.0662972605
C   C15       1.0  0.83236  0.03332  0.41650  1.0000 -0.0662972605
C   C16       1.0  0.96668  0.16764  0.58350  1.0000 -0.0662972605
C   C17       1.0  0.07962  0.87978  0.61910  1.0000 -0.0493665365
C   C18       1.0  0.12022  0.92038  0.38090  1.0000 -0.0493665365
C   C19       1.0  0.92038  0.12022  0.38090  1.0000 -0.0493665365
C   C20       1.0  0.87978  0.07962  0.61910  1.0000 -0.0493665365
C   C21       1.0  0.18934  0.98658  0.46370  1.0000 -0.0493665365
C   C22       1.0  0.01342  0.81066  0.53630  1.0000 -0.0493665365
C   C23       1.0  0.81066  0.01342  0.53630  1.0000 -0.0493665365
C   C24       1.0  0.98658  0.18934  0.46370  1.0000 -0.0493665365
C   C25       1.0  0.01064  0.67176  0.92680  1.0000 0.1107820189
C   C26       1.0  0.32824  0.98936  0.07320  1.0000 0.1107820189
C   C27       1.0  0.98936  0.32824  0.07320  1.0000 0.1107820189
C   C28       1.0  0.67176  0.01064  0.92680  1.0000 0.1107820189
C   C29       1.0  0.98212  0.57928  0.92160  1.0000 -0.1734421477
C   C30       1.0  0.42072  0.01788  0.07840  1.0000 -0.1734421477
C   C31       1.0  0.01788  0.42072  0.07840  1.0000 -0.1734421477
C   C32       1.0  0.57928  0.98212  0.92160  1.0000 -0.1734421477
C   C33       1.0  0.01435  0.54925  0.00180  1.0000 0.1107820189
C   C34       1.0  0.45075  0.98565  0.99820  1.0000 0.1107820189
C   C35       1.0  0.98565  0.45075  0.99820  1.0000 0.1107820189
C   C36       1.0  0.54925  0.01435  0.00180  1.0000 0.1107820189
C   C37       1.0  0.07103  0.61477  0.08920  1.0000 -0.1969940644
C   C38       1.0  0.38523  0.92897  0.91080  1.0000 -0.1969940644
C   C39       1.0  0.92897  0.38523  0.91080  1.0000 -0.1969940644
C   C40       1.0  0.61477  0.07103  0.08920  1.0000 -0.1969940644
C   C41       1.0  0.09598  0.70542  0.08930  1.0000 0.0878596735
C   C42       1.0  0.29458  0.90402  0.91070  1.0000 0.0878596735
C   C43       1.0  0.90402  0.29458  0.91070  1.0000 0.0878596735
C   C44       1.0  0.70542  0.09598  0.08930  1.0000 0.0878596735
C   C45       1.0  0.26462  0.45970  0.17660  1.0000 0.6044135895
C   C46       1.0  0.54030  0.73538  0.82340  1.0000 0.6044135895
C   C47       1.0  0.73538  0.54030  0.82340  1.0000 0.6044135895
C   C48       1.0  0.45970  0.26462  0.17660  1.0000 0.6044135895
C   C49       1.0  0.44785  0.63547  0.24730  1.0000 0.570522571
C   C50       1.0  0.36453  0.55215  0.75270  1.0000 0.570522571
C   C51       1.0  0.55215  0.36453  0.75270  1.0000 0.570522571
C   C52       1.0  0.63547  0.44785  0.24730  1.0000 0.570522571
C   C53       1.0  0.21473  0.42037  0.92240  1.0000 0.570522571
C   C54       1.0  0.57963  0.78527  0.07760  1.0000 0.570522571
C   C55       1.0  0.78527  0.57963  0.07760  1.0000 0.570522571
C   C56       1.0  0.42037  0.21473  0.92240  1.0000 0.570522571
C   C57       1.0  0.33236  0.53332  0.08350  1.0000 -0.0662972605
C   C58       1.0  0.46668  0.66764  0.91650  1.0000 -0.0662972605
C   C59       1.0  0.66764  0.46668  0.91650  1.0000 -0.0662972605
C   C60       1.0  0.53332  0.33236  0.08350  1.0000 -0.0662972605
C   C61       1.0  0.42038  0.62022  0.11910  1.0000 -0.0493665365
C   C62       1.0  0.37978  0.57962  0.88090  1.0000 -0.0493665365
C   C63       1.0  0.57962  0.37978  0.88090  1.0000 -0.0493665365
C   C64       1.0  0.62022  0.42038  0.11910  1.0000 -0.0493665365
C   C65       1.0  0.31066  0.51342  0.96370  1.0000 -0.0493665365
C   C66       1.0  0.48658  0.68934  0.03630  1.0000 -0.0493665365
C   C67       1.0  0.68934  0.48658  0.03630  1.0000 -0.0493665365
C   C68       1.0  0.51342  0.31066  0.96370  1.0000 -0.0493665365
C   C69       1.0  0.48936  0.82824  0.42680  1.0000 0.1107820189
C   C70       1.0  0.17176  0.51064  0.57320  1.0000 0.1107820189
C   C71       1.0  0.51064  0.17176  0.57320  1.0000 0.1107820189
C   C72       1.0  0.82824  0.48936  0.42680  1.0000 0.1107820189
C   C73       1.0  0.51788  0.92072  0.42160  1.0000 -0.1734421477
C   C74       1.0  0.07928  0.48212  0.57840  1.0000 -0.1734421477
C   C75       1.0  0.48212  0.07928  0.57840  1.0000 -0.1734421477
C   C76       1.0  0.92072  0.51788  0.42160  1.0000 -0.1734421477
C   C77       1.0  0.48565  0.95075  0.50180  1.0000 0.1107820189
C   C78       1.0  0.04925  0.51435  0.49820  1.0000 0.1107820189
C   C79       1.0  0.51435  0.04925  0.49820  1.0000 0.1107820189
C   C80       1.0  0.95075  0.48565  0.50180  1.0000 0.1107820189
C   C81       1.0  0.42897  0.88523  0.58920  1.0000 -0.1969940644
C   C82       1.0  0.11477  0.57103  0.41080  1.0000 -0.1969940644
C   C83       1.0  0.57103  0.11477  0.41080  1.0000 -0.1969940644
C   C84       1.0  0.88523  0.42897  0.58920  1.0000 -0.1969940644
C   C85       1.0  0.40402  0.79458  0.58930  1.0000 0.0878596735
C   C86       1.0  0.20542  0.59598  0.41070  1.0000 0.0878596735
C   C87       1.0  0.59598  0.20542  0.41070  1.0000 0.0878596735
C   C88       1.0  0.79458  0.40402  0.58930  1.0000 0.0878596735
N   N1        1.0  0.06821  0.73555  0.00750  1.0000 -0.2268394623
N   N2        1.0  0.26445  0.93179  0.99250  1.0000 -0.2268394623
N   N3        1.0  0.93179  0.26445  0.99250  1.0000 -0.2268394623
N   N4        1.0  0.73555  0.06821  0.00750  1.0000 -0.2268394623
N   N5        1.0  0.43179  0.76445  0.50750  1.0000 -0.2268394623
N   N6        1.0  0.23555  0.56821  0.49250  1.0000 -0.2268394623
N   N7        1.0  0.56821  0.23555  0.49250  1.0000 -0.2268394623
N   N8        1.0  0.76445  0.43179  0.50750  1.0000 -0.2268394623
O   O1        1.0  0.21657  0.08829  0.72601  1.0000 -0.5194862317
O   O2        1.0  0.91171  0.78343  0.27399  1.0000 -0.5194862317
O   O3        1.0  0.78343  0.91171  0.27399  1.0000 -0.5194862317
O   O4        1.0  0.08829  0.21657  0.72601  1.0000 -0.5194862317
O   O5        1.0  0.30933  0.04637  0.70133  1.0000 -0.4405649434
O   O6        1.0  0.95363  0.69067  0.29867  1.0000 -0.4405649434
O   O7        1.0  0.69067  0.95363  0.29867  1.0000 -0.4405649434
O   O8        1.0  0.04637  0.30933  0.70133  1.0000 -0.4405649434
O   O9        1.0  0.11188  0.87468  0.81845  1.0000 -0.5664367545
O   O10       1.0  0.12532  0.88812  0.18155  1.0000 -0.5664367545
O   O11       1.0  0.88812  0.12532  0.18155  1.0000 -0.5664367545
O   O12       1.0  0.87468  0.11188  0.81845  1.0000 -0.5664367545
O   O13       1.0  0.97355  0.84693  0.77256  1.0000 -0.5194862317
O   O14       1.0  0.15307  0.02645  0.22744  1.0000 -0.5194862317
O   O15       1.0  0.02645  0.15307  0.22744  1.0000 -0.5194862317
O   O16       1.0  0.84693  0.97355  0.77256  1.0000 -0.5194862317
O   O17       1.0  0.32900  0.06976  0.34459  1.0000 -0.5455522928
O   O18       1.0  0.93024  0.67100  0.65541  1.0000 -0.5455522928
O   O19       1.0  0.67100  0.93024  0.65541  1.0000 -0.5455522928
O   O20       1.0  0.06976  0.32900  0.34459  1.0000 -0.5455522928
O   O21       1.0  0.31311  0.15713  0.46831  1.0000 -0.4999140333
O   O22       1.0  0.84287  0.68689  0.53169  1.0000 -0.4999140333
O   O23       1.0  0.68689  0.84287  0.53169  1.0000 -0.4999140333
O   O24       1.0  0.15713  0.31311  0.46831  1.0000 -0.4999140333
O   O25       1.0  0.07650  0.07650  0.86370  1.0000 -0.6528092418
O   O26       1.0  0.92350  0.92350  0.13630  1.0000 -0.6528092418
O   O27       1.0  0.27053  0.27053  0.77010  1.0000 -0.6076155845
O   O28       1.0  0.72947  0.72947  0.22990  1.0000 -0.6076155845
O   O29       1.0  0.18060  0.18060  0.53810  1.0000 -0.680520216
O   O30       1.0  0.81940  0.81940  0.46190  1.0000 -0.680520216
O   O31       1.0  0.00920  0.00920  0.63240  1.0000 -0.5775727226
O   O32       1.0  0.99080  0.99080  0.36760  1.0000 -0.5775727226
O   O33       1.0  0.97627  0.83693  0.00443  1.0000 -0.5775727226
O   O34       1.0  0.16307  0.02373  0.99557  1.0000 -0.5775727226
O   O35       1.0  0.02373  0.16307  0.99557  1.0000 -0.5775727226
O   O36       1.0  0.83693  0.97627  0.00443  1.0000 -0.5775727226
O   O37       1.0  0.28343  0.41171  0.22601  1.0000 -0.5194862317
O   O38       1.0  0.58829  0.71657  0.77399  1.0000 -0.5194862317
O   O39       1.0  0.71657  0.58829  0.77399  1.0000 -0.5194862317
O   O40       1.0  0.41171  0.28343  0.22601  1.0000 -0.5194862317
O   O41       1.0  0.19067  0.45363  0.20133  1.0000 -0.4405649434
O   O42       1.0  0.54637  0.80933  0.79867  1.0000 -0.4405649434
O   O43       1.0  0.80933  0.54637  0.79867  1.0000 -0.4405649434
O   O44       1.0  0.45363  0.19067  0.20133  1.0000 -0.4405649434
O   O45       1.0  0.38812  0.62532  0.31845  1.0000 -0.5664367545
O   O46       1.0  0.37468  0.61188  0.68155  1.0000 -0.5664367545
O   O47       1.0  0.61188  0.37468  0.68155  1.0000 -0.5664367545
O   O48       1.0  0.62532  0.38812  0.31845  1.0000 -0.5664367545
O   O49       1.0  0.52645  0.65307  0.27256  1.0000 -0.5194862317
O   O50       1.0  0.34693  0.47355  0.72744  1.0000 -0.5194862317
O   O51       1.0  0.47355  0.34693  0.72744  1.0000 -0.5194862317
O   O52       1.0  0.65307  0.52645  0.27256  1.0000 -0.5194862317
O   O53       1.0  0.17100  0.43024  0.84459  1.0000 -0.5455522928
O   O54       1.0  0.56976  0.82900  0.15541  1.0000 -0.5455522928
O   O55       1.0  0.82900  0.56976  0.15541  1.0000 -0.5455522928
O   O56       1.0  0.43024  0.17100  0.84459  1.0000 -0.5455522928
O   O57       1.0  0.18689  0.34287  0.96831  1.0000 -0.4999140333
O   O58       1.0  0.65713  0.81311  0.03169  1.0000 -0.4999140333
O   O59       1.0  0.81311  0.65713  0.03169  1.0000 -0.4999140333
O   O60       1.0  0.34287  0.18689  0.96831  1.0000 -0.4999140333
O   O61       1.0  0.42350  0.42350  0.36370  1.0000 -0.6528092418
O   O62       1.0  0.57650  0.57650  0.63630  1.0000 -0.6528092418
O   O63       1.0  0.22947  0.22947  0.27010  1.0000 -0.6076155845
O   O64       1.0  0.77053  0.77053  0.72990  1.0000 -0.6076155845
O   O65       1.0  0.31940  0.31940  0.03810  1.0000 -0.680520216
O   O66       1.0  0.68060  0.68060  0.96190  1.0000 -0.680520216
O   O67       1.0  0.49080  0.49080  0.13240  1.0000 -0.5775727226
O   O68       1.0  0.50920  0.50920  0.86760  1.0000 -0.5775727226
O   O69       1.0  0.52373  0.66307  0.50443  1.0000 -0.5775727226
O   O70       1.0  0.33693  0.47627  0.49557  1.0000 -0.5775727226
O   O71       1.0  0.47627  0.33693  0.49557  1.0000 -0.5775727226
O   O72       1.0  0.66307  0.52373  0.50443  1.0000 -0.5775727226
