# DDEC6 charges by PACMAN v1.1 (https://github.com/mtap-research/PACMAN-charge/)
data_2013[Yb][dia]3[FSR]1
_chemical_formula_sum              "Yb4 H12 C16 O36"
_cell_length_a       9.5915
_cell_length_b       11.452
_cell_length_c       14.2799
_cell_angle_alpha    90
_cell_angle_beta     122.606
_cell_angle_gamma    90

_symmetry_space_group_name_H-M    "P 1"
_symmetry_Int_Tables_number       1

loop_
  _symmetry_equiv_pos_as_xyz
  'x, y, z'

loop_
  _atom_site_type_symbol
  _atom_site_label
  _atom_site_symmetry_multiplicity
  _atom_site_fract_x
  _atom_site_fract_y
  _atom_site_fract_z
  _atom_site_occupancy
  _atom_site_charge
Yb  Yb1       1.0  0.61777  0.00984  0.83351  1.0000 1.9578959368
Yb  Yb2       1.0  0.38223  0.50984  0.66649  1.0000 1.9578959368
Yb  Yb3       1.0  0.38223  0.99016  0.16649  1.0000 1.9578959368
Yb  Yb4       1.0  0.61777  0.49016  0.33351  1.0000 1.9578959368
H   H1        1.0  0.58420  0.08370  0.63630  1.0000 0.2840244146
H   H2        1.0  0.41580  0.58370  0.86370  1.0000 0.2840244146
H   H3        1.0  0.41580  0.91630  0.36370  1.0000 0.2840244146
H   H4        1.0  0.58420  0.41630  0.13630  1.0000 0.2840244146
H   H5        1.0  0.52150  0.97310  0.61200  1.0000 0.2850177906
H   H6        1.0  0.47850  0.47310  0.88800  1.0000 0.2840244146
H   H7        1.0  0.47850  0.02690  0.38800  1.0000 0.2840244146
H   H8        1.0  0.52150  0.52690  0.11200  1.0000 0.2850177906
H   H9        1.0  0.69110  0.99180  0.66880  1.0000 0.3056274227
H   H10       1.0  0.30890  0.49180  0.83120  1.0000 0.3056274227
H   H11       1.0  0.30890  0.00820  0.33120  1.0000 0.3056274227
H   H12       1.0  0.69110  0.50820  0.16880  1.0000 0.3056274227
C   C1        1.0  0.59620  0.28360  0.79130  1.0000 0.5131407104
C   C2        1.0  0.40380  0.78360  0.70870  1.0000 0.5131407104
C   C3        1.0  0.40380  0.71640  0.20870  1.0000 0.5131407104
C   C4        1.0  0.59620  0.21640  0.29130  1.0000 0.5131407104
C   C5        1.0  0.41600  0.23930  0.71600  1.0000 0.5131407104
C   C6        1.0  0.58400  0.73930  0.78400  1.0000 0.5131407104
C   C7        1.0  0.58400  0.76070  0.28400  1.0000 0.5131407104
C   C8        1.0  0.41600  0.26070  0.21600  1.0000 0.5131407104
C   C9        1.0  0.98210  0.00070  0.04670  1.0000 0.5314635955
C   C10       1.0  0.01790  0.50070  0.45330  1.0000 0.5314635955
C   C11       1.0  0.01790  0.99930  0.95330  1.0000 0.5314635955
C   C12       1.0  0.98210  0.49930  0.54670  1.0000 0.5314635955
C   C13       1.0  0.50420  0.93340  0.00130  1.0000 0.5246179573
C   C14       1.0  0.49580  0.43340  0.49870  1.0000 0.5246179573
C   C15       1.0  0.49580  0.06660  0.99870  1.0000 0.5246179573
C   C16       1.0  0.50420  0.56660  0.50130  1.0000 0.5246179573
O   O1        1.0  0.70500  0.20650  0.84220  1.0000 -0.5592217572
O   O2        1.0  0.29500  0.70650  0.65780  1.0000 -0.5592217572
O   O3        1.0  0.29500  0.79350  0.15780  1.0000 -0.5592217572
O   O4        1.0  0.70500  0.29350  0.34220  1.0000 -0.5592217572
O   O5        1.0  0.61670  0.39170  0.79200  1.0000 -0.5466306784
O   O6        1.0  0.38330  0.89170  0.70800  1.0000 -0.5466306784
O   O7        1.0  0.38330  0.60830  0.20800  1.0000 -0.5466306784
O   O8        1.0  0.61670  0.10830  0.29200  1.0000 -0.5466306784
O   O9        1.0  0.39600  0.13160  0.70900  1.0000 -0.5288521924
O   O10       1.0  0.60400  0.63160  0.79100  1.0000 -0.5288521924
O   O11       1.0  0.60400  0.86840  0.29100  1.0000 -0.5288521924
O   O12       1.0  0.39600  0.36840  0.20900  1.0000 -0.5288521924
O   O13       1.0  0.30580  0.31590  0.66880  1.0000 -0.5592217572
O   O14       1.0  0.69420  0.81590  0.83120  1.0000 -0.5592217572
O   O15       1.0  0.69420  0.68410  0.33120  1.0000 -0.5592217572
O   O16       1.0  0.30580  0.18410  0.16880  1.0000 -0.5592217572
O   O17       1.0  0.83840  0.00980  0.02090  1.0000 -0.5243059673
O   O18       1.0  0.16160  0.50980  0.47910  1.0000 -0.5243059673
O   O19       1.0  0.16160  0.99020  0.97910  1.0000 -0.5288521924
O   O20       1.0  0.83840  0.49020  0.52090  1.0000 -0.5288521924
O   O21       1.0  0.11200  0.99400  0.14470  1.0000 -0.5592217572
O   O22       1.0  0.88800  0.49400  0.35530  1.0000 -0.5592217572
O   O23       1.0  0.88800  0.00600  0.85530  1.0000 -0.5592217572
O   O24       1.0  0.11200  0.50600  0.64470  1.0000 -0.5592217572
O   O25       1.0  0.54070  0.88630  0.93850  1.0000 -0.5288521924
O   O26       1.0  0.45930  0.38630  0.56150  1.0000 -0.5288521924
O   O27       1.0  0.45930  0.11370  0.06150  1.0000 -0.5288521924
O   O28       1.0  0.54070  0.61370  0.43850  1.0000 -0.5288521924
O   O29       1.0  0.47880  0.88220  0.06860  1.0000 -0.5466306784
O   O30       1.0  0.52120  0.38220  0.43140  1.0000 -0.5466306784
O   O31       1.0  0.52120  0.11780  0.93140  1.0000 -0.5466306784
O   O32       1.0  0.47880  0.61780  0.56860  1.0000 -0.5466306784
O   O33       1.0  0.60060  0.01630  0.65920  1.0000 -0.5592217572
O   O34       1.0  0.39940  0.51630  0.84080  1.0000 -0.5592217572
O   O35       1.0  0.39940  0.98370  0.34080  1.0000 -0.5592217572
O   O36       1.0  0.60060  0.48370  0.15920  1.0000 -0.5592217572
