# DDEC6 charges by PACMAN v1.1 (https://github.com/mtap-research/PACMAN-charge/)
data_2013[Mn][pcu]3[FSR]2
_chemical_formula_sum              "Mn8 H24 C24 O48"
_cell_length_a       12.3034
_cell_length_b       12.4408
_cell_length_c       17.5802
_cell_angle_alpha    90
_cell_angle_beta     133.212
_cell_angle_gamma    90

_symmetry_space_group_name_H-M    "P 1"
_symmetry_Int_Tables_number       1

loop_
  _symmetry_equiv_pos_as_xyz
  'x, y, z'

loop_
  _atom_site_type_symbol
  _atom_site_label
  _atom_site_symmetry_multiplicity
  _atom_site_fract_x
  _atom_site_fract_y
  _atom_site_fract_z
  _atom_site_occupancy
  _atom_site_charge
Mn  Mn1       1.0  0.26750  0.25281  0.00780  1.0000 1.0085290627
Mn  Mn2       1.0  0.73250  0.75281  0.49220  1.0000 1.0085290627
Mn  Mn3       1.0  0.73250  0.74719  0.99220  1.0000 1.0085290627
Mn  Mn4       1.0  0.26750  0.24719  0.50780  1.0000 1.0085290627
Mn  Mn5       1.0  0.23418  0.75241  0.99347  1.0000 1.0085290627
Mn  Mn6       1.0  0.76582  0.25241  0.50653  1.0000 1.0085290627
Mn  Mn7       1.0  0.76582  0.24759  0.00653  1.0000 1.0085290627
Mn  Mn8       1.0  0.23418  0.74759  0.49347  1.0000 1.0085290627
H   H1        1.0  0.96900  0.32600  0.75900  1.0000 0.1074902205
H   H2        1.0  0.03100  0.82600  0.74100  1.0000 0.1074902205
H   H3        1.0  0.03100  0.67400  0.24100  1.0000 0.1074902205
H   H4        1.0  0.96900  0.17400  0.25900  1.0000 0.1074902205
H   H5        1.0  0.44700  0.83300  0.24400  1.0000 0.1463245036
H   H6        1.0  0.55300  0.33300  0.25600  1.0000 0.1463245036
H   H7        1.0  0.55300  0.16700  0.75600  1.0000 0.1463245036
H   H8        1.0  0.44700  0.66700  0.74400  1.0000 0.1463245036
H   H9        1.0  0.93300  0.77100  0.93800  1.0000 0.0914351953
H   H10       1.0  0.06700  0.27100  0.56200  1.0000 0.0914351953
H   H11       1.0  0.06700  0.22900  0.06200  1.0000 0.0914351953
H   H12       1.0  0.93300  0.72900  0.43800  1.0000 0.0914351953
H   H13       1.0  0.58100  0.30500  0.07700  1.0000 0.0803042756
H   H14       1.0  0.41900  0.80500  0.42300  1.0000 0.0803042756
H   H15       1.0  0.41900  0.69500  0.92300  1.0000 0.0803042756
H   H16       1.0  0.58100  0.19500  0.57700  1.0000 0.0803042756
H   H17       1.0  0.29400  0.50400  0.07300  1.0000 0.0994014008
H   H18       1.0  0.70600  0.00400  0.42700  1.0000 0.0994014008
H   H19       1.0  0.70600  0.49600  0.92700  1.0000 0.0994014008
H   H20       1.0  0.29400  0.99600  0.57300  1.0000 0.0994014008
H   H21       1.0  0.23100  0.99600  0.94100  1.0000 0.0994014008
H   H22       1.0  0.76900  0.49600  0.55900  1.0000 0.0994014008
H   H23       1.0  0.76900  0.00400  0.05900  1.0000 0.0994014008
H   H24       1.0  0.23100  0.50400  0.44100  1.0000 0.0994014008
C   C1        1.0  0.30370  0.50276  0.02290  1.0000 0.5095240848
C   C2        1.0  0.69630  0.00276  0.47710  1.0000 0.5095240848
C   C3        1.0  0.69630  0.49724  0.97710  1.0000 0.5095240848
C   C4        1.0  0.30370  0.99724  0.52290  1.0000 0.5095240848
C   C5        1.0  0.21210  0.00123  0.98690  1.0000 0.5095240848
C   C6        1.0  0.78790  0.50123  0.51310  1.0000 0.5095240848
C   C7        1.0  0.78790  0.99877  0.01310  1.0000 0.5095240848
C   C8        1.0  0.21210  0.49877  0.48690  1.0000 0.5095240848
C   C9        1.0  0.01840  0.27110  0.75530  1.0000 0.5095240848
C   C10       1.0  0.98160  0.77110  0.74470  1.0000 0.5095240848
C   C11       1.0  0.98160  0.72890  0.24470  1.0000 0.5095240848
C   C12       1.0  0.01840  0.22890  0.25530  1.0000 0.5095240848
C   C13       1.0  0.48870  0.78080  0.24150  1.0000 0.5095240848
C   C14       1.0  0.51130  0.28080  0.25850  1.0000 0.5095240848
C   C15       1.0  0.51130  0.21920  0.75850  1.0000 0.5095240848
C   C16       1.0  0.48870  0.71920  0.74150  1.0000 0.5095240848
C   C17       1.0  0.98600  0.71740  0.99650  1.0000 0.5095240848
C   C18       1.0  0.01400  0.21740  0.50350  1.0000 0.5095240848
C   C19       1.0  0.01400  0.28260  0.00350  1.0000 0.5095240848
C   C20       1.0  0.98600  0.78260  0.49650  1.0000 0.5095240848
C   C21       1.0  0.55070  0.22950  0.04320  1.0000 0.503971267
C   C22       1.0  0.44930  0.72950  0.45680  1.0000 0.503971267
C   C23       1.0  0.44930  0.77050  0.95680  1.0000 0.503971267
C   C24       1.0  0.55070  0.27050  0.54320  1.0000 0.503971267
O   O1        1.0  0.43961  0.19195  0.01782  1.0000 -0.4393733559
O   O2        1.0  0.56039  0.69195  0.48218  1.0000 -0.4393733559
O   O3        1.0  0.56039  0.80805  0.98218  1.0000 -0.4393733559
O   O4        1.0  0.43961  0.30805  0.51782  1.0000 -0.4393733559
O   O5        1.0  0.10800  0.68697  0.02970  1.0000 -0.4794615434
O   O6        1.0  0.89200  0.18697  0.47030  1.0000 -0.4794615434
O   O7        1.0  0.89200  0.31303  0.97030  1.0000 -0.4794615434
O   O8        1.0  0.10800  0.81303  0.52970  1.0000 -0.4794615434
O   O9        1.0  0.21242  0.09038  0.01845  1.0000 -0.4702318552
O   O10       1.0  0.78758  0.59038  0.48155  1.0000 -0.4702318552
O   O11       1.0  0.78758  0.90962  0.98155  1.0000 -0.463213916
O   O12       1.0  0.21242  0.40962  0.51845  1.0000 -0.4702318552
O   O13       1.0  0.92486  0.68317  0.02520  1.0000 -0.4941141559
O   O14       1.0  0.07514  0.18317  0.47480  1.0000 -0.4941141559
O   O15       1.0  0.07514  0.31683  0.97480  1.0000 -0.4941141559
O   O16       1.0  0.92486  0.81683  0.52520  1.0000 -0.4941141559
O   O17       1.0  0.63657  0.18823  0.03794  1.0000 -0.4989521525
O   O18       1.0  0.36343  0.68823  0.46206  1.0000 -0.4989521525
O   O19       1.0  0.36343  0.81177  0.96206  1.0000 -0.4989521525
O   O20       1.0  0.63657  0.31177  0.53794  1.0000 -0.4989521525
O   O21       1.0  0.13305  0.23381  0.83995  1.0000 -0.463213916
O   O22       1.0  0.86695  0.73381  0.66005  1.0000 -0.463213916
O   O23       1.0  0.86695  0.76619  0.16005  1.0000 -0.463213916
O   O24       1.0  0.13305  0.26619  0.33995  1.0000 -0.463213916
O   O25       1.0  0.19179  0.91445  0.00940  1.0000 -0.4941141559
O   O26       1.0  0.80821  0.41445  0.49060  1.0000 -0.4989521525
O   O27       1.0  0.80821  0.08555  0.99060  1.0000 -0.4989521525
O   O28       1.0  0.19179  0.58555  0.50940  1.0000 -0.4989521525
O   O29       1.0  0.32818  0.41515  0.00262  1.0000 -0.5126040919
O   O30       1.0  0.67182  0.91515  0.49738  1.0000 -0.5126040919
O   O31       1.0  0.67182  0.58485  0.99738  1.0000 -0.5126040919
O   O32       1.0  0.32818  0.08485  0.50262  1.0000 -0.5126040919
O   O33       1.0  0.96771  0.24079  0.67021  1.0000 -0.4702318552
O   O34       1.0  0.03229  0.74079  0.82979  1.0000 -0.4702318552
O   O35       1.0  0.03229  0.75921  0.32979  1.0000 -0.4702318552
O   O36       1.0  0.96771  0.25921  0.17021  1.0000 -0.4794615434
O   O37       1.0  0.43021  0.74059  0.15771  1.0000 -0.4393733559
O   O38       1.0  0.56979  0.24059  0.34229  1.0000 -0.4393733559
O   O39       1.0  0.56979  0.25941  0.84229  1.0000 -0.4393733559
O   O40       1.0  0.43021  0.75941  0.65771  1.0000 -0.4393733559
O   O41       1.0  0.60636  0.75103  0.32746  1.0000 -0.4794615434
O   O42       1.0  0.39364  0.25103  0.17254  1.0000 -0.4794615434
O   O43       1.0  0.39364  0.24897  0.67254  1.0000 -0.4794615434
O   O44       1.0  0.60636  0.74897  0.82746  1.0000 -0.4794615434
O   O45       1.0  0.28011  0.58790  0.97976  1.0000 -0.4476933969
O   O46       1.0  0.71989  0.08790  0.52024  1.0000 -0.4476933969
O   O47       1.0  0.71989  0.41210  0.02024  1.0000 -0.4476933969
O   O48       1.0  0.28011  0.91210  0.47976  1.0000 -0.4476933969
