# DDEC6 charges by PACMAN v1.1 (https://github.com/mtap-research/PACMAN-charge/)
data_2013[Ce][nan]3[FSR]2
_chemical_formula_sum              "Ce8 H64 C152 O72 F48"
_cell_length_a       7.3524
_cell_length_b       29.1642
_cell_length_c       23.175
_cell_angle_alpha    90
_cell_angle_beta     90.772
_cell_angle_gamma    90

_symmetry_space_group_name_H-M    "P 1"
_symmetry_Int_Tables_number       1

loop_
  _symmetry_equiv_pos_as_xyz
  'x, y, z'

loop_
  _atom_site_type_symbol
  _atom_site_label
  _atom_site_symmetry_multiplicity
  _atom_site_fract_x
  _atom_site_fract_y
  _atom_site_fract_z
  _atom_site_occupancy
  _atom_site_charge
Ce  Ce1       1.0  0.79029  0.29850  0.66691  1.0000 1.9320149894
Ce  Ce2       1.0  0.20971  0.79850  0.83309  1.0000 1.9320149894
Ce  Ce3       1.0  0.20971  0.70150  0.33309  1.0000 1.9320149894
Ce  Ce4       1.0  0.79029  0.20150  0.16691  1.0000 1.9320149894
Ce  Ce5       1.0  0.29337  0.26366  0.73903  1.0000 1.9893144245
Ce  Ce6       1.0  0.70663  0.76366  0.76097  1.0000 1.9893144245
Ce  Ce7       1.0  0.70663  0.73634  0.26097  1.0000 1.9893144245
Ce  Ce8       1.0  0.29337  0.23634  0.23903  1.0000 1.9893144245
H   H1        1.0  0.91480  0.57960  0.61990  1.0000 0.3679995189
H   H2        1.0  0.08520  0.07960  0.88010  1.0000 0.3679995189
H   H3        1.0  0.08520  0.42040  0.38010  1.0000 0.3679995189
H   H4        1.0  0.91480  0.92040  0.11990  1.0000 0.3679995189
H   H5        1.0  0.89920  0.29220  0.34290  1.0000 0.3560452933
H   H6        1.0  0.10080  0.79220  0.15710  1.0000 0.3560452933
H   H7        1.0  0.10080  0.70780  0.65710  1.0000 0.3560452933
H   H8        1.0  0.89920  0.20780  0.84290  1.0000 0.3560452933
H   H9        1.0  0.60500  0.21130  0.79590  1.0000 0.3679995189
H   H10       1.0  0.39500  0.71130  0.70410  1.0000 0.3679995189
H   H11       1.0  0.39500  0.78870  0.20410  1.0000 0.3679995189
H   H12       1.0  0.60500  0.28870  0.29590  1.0000 0.3679995189
H   H13       1.0  0.48170  0.18350  0.82030  1.0000 0.3864829788
H   H14       1.0  0.51830  0.68350  0.67970  1.0000 0.3864829788
H   H15       1.0  0.51830  0.81650  0.17970  1.0000 0.3864829788
H   H16       1.0  0.48170  0.31650  0.32030  1.0000 0.3864829788
H   H17       1.0  0.59030  0.45110  0.73740  1.0000 0.1200454281
H   H18       1.0  0.40970  0.95110  0.76260  1.0000 0.1200454281
H   H19       1.0  0.40970  0.54890  0.26260  1.0000 0.1200454281
H   H20       1.0  0.59030  0.04890  0.23740  1.0000 0.1200454281
H   H21       1.0  0.97480  0.43300  0.76640  1.0000 0.1373721311
H   H22       1.0  0.02520  0.93300  0.73360  1.0000 0.1373721311
H   H23       1.0  0.02520  0.56700  0.23360  1.0000 0.1373721311
H   H24       1.0  0.97480  0.06700  0.26640  1.0000 0.1373721311
H   H25       1.0  0.11900  0.49940  0.79720  1.0000 0.1200454281
H   H26       1.0  0.88100  0.99940  0.70280  1.0000 0.1200454281
H   H27       1.0  0.88100  0.50060  0.20280  1.0000 0.1200454281
H   H28       1.0  0.11900  0.00060  0.29720  1.0000 0.1200454281
H   H29       1.0  0.22210  0.55290  0.70840  1.0000 0.1200454281
H   H30       1.0  0.77790  0.05290  0.79160  1.0000 0.1200454281
H   H31       1.0  0.77790  0.44710  0.29160  1.0000 0.1200454281
H   H32       1.0  0.22210  0.94710  0.20840  1.0000 0.1200454281
H   H33       1.0  0.23620  0.66620  0.84920  1.0000 0.130840612
H   H34       1.0  0.76380  0.16620  0.65080  1.0000 0.130840612
H   H35       1.0  0.76380  0.33380  0.15080  1.0000 0.130840612
H   H36       1.0  0.23620  0.83380  0.34920  1.0000 0.130840612
H   H37       1.0  0.42080  0.60240  0.85880  1.0000 0.1200454281
H   H38       1.0  0.57920  0.10240  0.64120  1.0000 0.1200454281
H   H39       1.0  0.57920  0.39760  0.14120  1.0000 0.1200454281
H   H40       1.0  0.42080  0.89760  0.35880  1.0000 0.1200454281
H   H41       1.0  0.97250  0.17710  0.53430  1.0000 0.1200454281
H   H42       1.0  0.02750  0.67710  0.96570  1.0000 0.1200454281
H   H43       1.0  0.02750  0.82290  0.46570  1.0000 0.1200454281
H   H44       1.0  0.97250  0.32290  0.03430  1.0000 0.1200454281
H   H45       1.0  0.59600  0.17110  0.55370  1.0000 0.130840612
H   H46       1.0  0.40400  0.67110  0.94630  1.0000 0.130840612
H   H47       1.0  0.40400  0.82890  0.44630  1.0000 0.130840612
H   H48       1.0  0.59600  0.32890  0.05370  1.0000 0.130840612
H   H49       1.0  0.44590  0.11580  0.50080  1.0000 0.1200454281
H   H50       1.0  0.55410  0.61580  0.99920  1.0000 0.1200454281
H   H51       1.0  0.55410  0.88420  0.49920  1.0000 0.1200454281
H   H52       1.0  0.44590  0.38420  0.00080  1.0000 0.1200454281
H   H53       1.0  0.12390  0.17950  0.41710  1.0000 0.1373721311
H   H54       1.0  0.87610  0.67950  0.08290  1.0000 0.1373721311
H   H55       1.0  0.87610  0.82050  0.58290  1.0000 0.1373721311
H   H56       1.0  0.12390  0.32050  0.91710  1.0000 0.1373721311
H   H57       1.0  0.57570  0.11440  0.36040  1.0000 0.130840612
H   H58       1.0  0.42430  0.61440  0.13960  1.0000 0.130840612
H   H59       1.0  0.42430  0.88560  0.63960  1.0000 0.130840612
H   H60       1.0  0.57570  0.38560  0.86040  1.0000 0.130840612
H   H61       1.0  0.75460  0.07890  0.43050  1.0000 0.1200454281
H   H62       1.0  0.24540  0.57890  0.06950  1.0000 0.1200454281
H   H63       1.0  0.24540  0.92110  0.56950  1.0000 0.1200454281
H   H64       1.0  0.75460  0.42110  0.93050  1.0000 0.1200454281
C   C1        1.0  0.46450  0.52830  0.78900  1.0000 -0.277720963
C   C2        1.0  0.53550  0.02830  0.71100  1.0000 -0.277720963
C   C3        1.0  0.53550  0.47170  0.21100  1.0000 -0.277720963
C   C4        1.0  0.46450  0.97170  0.28900  1.0000 -0.277720963
C   C5        1.0  0.37160  0.48330  0.76840  1.0000 0.0678452725
C   C6        1.0  0.62840  0.98330  0.73160  1.0000 0.0678452725
C   C7        1.0  0.62840  0.51670  0.23160  1.0000 0.0678452725
C   C8        1.0  0.37160  0.01670  0.26840  1.0000 0.0678452725
C   C9        1.0  0.46620  0.44760  0.74320  1.0000 -0.1402889785
C   C10       1.0  0.53380  0.94760  0.75680  1.0000 -0.1402889785
C   C11       1.0  0.53380  0.55240  0.25680  1.0000 -0.1402889785
C   C12       1.0  0.46620  0.05240  0.24320  1.0000 -0.1402889785
C   C13       1.0  0.38390  0.40720  0.72620  1.0000 -0.0414360411
C   C14       1.0  0.61610  0.90720  0.77380  1.0000 -0.0414360411
C   C15       1.0  0.61610  0.59280  0.27380  1.0000 -0.0414360411
C   C16       1.0  0.38390  0.09280  0.22620  1.0000 -0.0414360411
C   C17       1.0  0.19390  0.40208  0.73300  1.0000 -0.0030710011
C   C18       1.0  0.80610  0.90208  0.76700  1.0000 -0.0030710011
C   C19       1.0  0.80610  0.59792  0.26700  1.0000 -0.0030710011
C   C20       1.0  0.19390  0.09792  0.23300  1.0000 -0.0030710011
C   C21       1.0  0.09870  0.43660  0.76010  1.0000 -0.1064664324
C   C22       1.0  0.90130  0.93660  0.73990  1.0000 -0.1064664324
C   C23       1.0  0.90130  0.56340  0.23990  1.0000 -0.1064664324
C   C24       1.0  0.09870  0.06340  0.26010  1.0000 -0.1064664324
C   C25       1.0  0.18500  0.47680  0.77840  1.0000 -0.131499896
C   C26       1.0  0.81500  0.97680  0.72160  1.0000 -0.131499896
C   C27       1.0  0.81500  0.52320  0.22160  1.0000 -0.131499896
C   C28       1.0  0.18500  0.02320  0.27840  1.0000 -0.131499896
C   C29       1.0  0.49750  0.36950  0.70210  1.0000 0.590359388
C   C30       1.0  0.50250  0.86950  0.79790  1.0000 0.590359388
C   C31       1.0  0.50250  0.63050  0.29790  1.0000 0.590359388
C   C32       1.0  0.49750  0.13050  0.20210  1.0000 0.590359388
C   C33       1.0  0.08800  0.36260  0.70780  1.0000 0.590359388
C   C34       1.0  0.91200  0.86260  0.79220  1.0000 0.590359388
C   C35       1.0  0.91200  0.63740  0.29220  1.0000 0.590359388
C   C36       1.0  0.08800  0.13740  0.20780  1.0000 0.590359388
C   C37       1.0  0.33860  0.57030  0.78580  1.0000 0.0853511455
C   C38       1.0  0.66140  0.07030  0.71420  1.0000 0.0853511455
C   C39       1.0  0.66140  0.42970  0.21420  1.0000 0.0853511455
C   C40       1.0  0.33860  0.92970  0.28580  1.0000 0.0853511455
C   C41       1.0  0.22530  0.57560  0.73660  1.0000 -0.1638626283
C   C42       1.0  0.77470  0.07560  0.76340  1.0000 -0.1638626283
C   C43       1.0  0.77470  0.42440  0.26340  1.0000 -0.1638626283
C   C44       1.0  0.22530  0.92440  0.23660  1.0000 -0.1638626283
C   C45       1.0  0.11810  0.61480  0.73010  1.0000 -0.0566314285
C   C46       1.0  0.88190  0.11480  0.76990  1.0000 -0.0566314285
C   C47       1.0  0.88190  0.38520  0.26990  1.0000 -0.0566314285
C   C48       1.0  0.11810  0.88520  0.23010  1.0000 -0.0566314285
C   C49       1.0  0.12060  0.64900  0.77240  1.0000 -0.0185231807
C   C50       1.0  0.87940  0.14900  0.72760  1.0000 -0.0185231807
C   C51       1.0  0.87940  0.35100  0.22760  1.0000 -0.0185231807
C   C52       1.0  0.12060  0.85100  0.27240  1.0000 -0.0185231807
C   C53       1.0  0.23390  0.64370  0.82080  1.0000 -0.0830071246
C   C54       1.0  0.76610  0.14370  0.67920  1.0000 -0.0830071246
C   C55       1.0  0.76610  0.35630  0.17920  1.0000 -0.0830071246
C   C56       1.0  0.23390  0.85630  0.32080  1.0000 -0.0830071246
C   C57       1.0  0.34350  0.60510  0.82690  1.0000 -0.1402889785
C   C58       1.0  0.65650  0.10510  0.67310  1.0000 -0.1402889785
C   C59       1.0  0.65650  0.39490  0.17310  1.0000 -0.1402889785
C   C60       1.0  0.34350  0.89490  0.32690  1.0000 -0.1402889785
C   C61       1.0  0.00770  0.61780  0.67610  1.0000 0.590359388
C   C62       1.0  0.99230  0.11780  0.82390  1.0000 0.590359388
C   C63       1.0  0.99230  0.38220  0.32390  1.0000 0.590359388
C   C64       1.0  0.00770  0.88220  0.17610  1.0000 0.590359388
C   C65       1.0  0.99760  0.69020  0.77200  1.0000 0.590359388
C   C66       1.0  0.00240  0.19020  0.72800  1.0000 0.590359388
C   C67       1.0  0.00240  0.30980  0.22800  1.0000 0.590359388
C   C68       1.0  0.99760  0.80980  0.27200  1.0000 0.590359388
C   C69       1.0  0.53450  0.51940  0.85150  1.0000 0.6690016116
C   C70       1.0  0.46550  0.01940  0.64850  1.0000 0.6690016116
C   C71       1.0  0.46550  0.48060  0.14850  1.0000 0.6690016116
C   C72       1.0  0.53450  0.98060  0.35150  1.0000 0.6690016116
C   C73       1.0  0.62890  0.54020  0.75030  1.0000 0.6690016116
C   C74       1.0  0.37110  0.04020  0.74970  1.0000 0.6690016116
C   C75       1.0  0.37110  0.45980  0.24970  1.0000 0.6690016116
C   C76       1.0  0.62890  0.95980  0.25030  1.0000 0.6690016116
C   C77       1.0  0.07690  0.10380  0.47900  1.0000 -0.277720963
C   C78       1.0  0.92310  0.60380  0.02100  1.0000 -0.277720963
C   C79       1.0  0.92310  0.89620  0.52100  1.0000 -0.277720963
C   C80       1.0  0.07690  0.39620  0.97900  1.0000 -0.277720963
C   C81       1.0  0.19150  0.13893  0.51280  1.0000 0.0678452725
C   C82       1.0  0.80850  0.63893  0.98720  1.0000 0.0678452725
C   C83       1.0  0.80850  0.86107  0.48720  1.0000 0.0678452725
C   C84       1.0  0.19150  0.36107  0.01280  1.0000 0.0678452725
C   C85       1.0  0.09780  0.17490  0.53970  1.0000 -0.1402889785
C   C86       1.0  0.90220  0.67490  0.96030  1.0000 -0.131499896
C   C87       1.0  0.90220  0.82510  0.46030  1.0000 -0.131499896
C   C88       1.0  0.09780  0.32510  0.03970  1.0000 -0.1402889785
C   C89       1.0  0.18530  0.20700  0.57380  1.0000 -0.0487593239
C   C90       1.0  0.81470  0.70700  0.92620  1.0000 -0.0487593239
C   C91       1.0  0.81470  0.79300  0.42620  1.0000 -0.0487593239
C   C92       1.0  0.18530  0.29300  0.07380  1.0000 -0.0487593239
C   C93       1.0  0.37630  0.20600  0.57900  1.0000 -0.0030710011
C   C94       1.0  0.62370  0.70600  0.92100  1.0000 -0.0030710011
C   C95       1.0  0.62370  0.79400  0.42100  1.0000 -0.0030710011
C   C96       1.0  0.37630  0.29400  0.07900  1.0000 -0.0030710011
C   C97       1.0  0.46980  0.17190  0.55100  1.0000 -0.1064664324
C   C98       1.0  0.53020  0.67190  0.94900  1.0000 -0.1064664324
C   C99       1.0  0.53020  0.82810  0.44900  1.0000 -0.1064664324
C   C100      1.0  0.46980  0.32810  0.05100  1.0000 -0.1064664324
C   C101      1.0  0.37920  0.13870  0.51880  1.0000 -0.131499896
C   C102      1.0  0.62080  0.63870  0.98120  1.0000 -0.131499896
C   C103      1.0  0.62080  0.86130  0.48120  1.0000 -0.131499896
C   C104      1.0  0.37920  0.36130  0.01880  1.0000 -0.131499896
C   C105      1.0  0.07450  0.24240  0.60350  1.0000 0.590359388
C   C106      1.0  0.92550  0.74240  0.89650  1.0000 0.590359388
C   C107      1.0  0.92550  0.75760  0.39650  1.0000 0.590359388
C   C108      1.0  0.07450  0.25760  0.10350  1.0000 0.590359388
C   C109      1.0  0.48480  0.24180  0.61200  1.0000 0.590359388
C   C110      1.0  0.51520  0.74180  0.88800  1.0000 0.590359388
C   C111      1.0  0.51520  0.75820  0.38800  1.0000 0.590359388
C   C112      1.0  0.48480  0.25820  0.11200  1.0000 0.590359388
C   C113      1.0  0.95520  0.12710  0.43300  1.0000 0.0830785881
C   C114      1.0  0.04480  0.62710  0.06700  1.0000 0.0830785881
C   C115      1.0  0.04480  0.87290  0.56700  1.0000 0.0830785881
C   C116      1.0  0.95520  0.37290  0.93300  1.0000 0.0830785881
C   C117      1.0  0.01090  0.16720  0.40730  1.0000 -0.1402889785
C   C118      1.0  0.98910  0.66720  0.09270  1.0000 -0.1402889785
C   C119      1.0  0.98910  0.83280  0.59270  1.0000 -0.1402889785
C   C120      1.0  0.01090  0.33280  0.90730  1.0000 -0.1402889785
C   C121      1.0  0.90060  0.18980  0.36700  1.0000 -0.0030710011
C   C122      1.0  0.09940  0.68980  0.13300  1.0000 -0.0030710011
C   C123      1.0  0.09940  0.81020  0.63300  1.0000 -0.0030710011
C   C124      1.0  0.90060  0.31020  0.86700  1.0000 -0.0030710011
C   C125      1.0  0.73270  0.17050  0.35040  1.0000 -0.0414360411
C   C126      1.0  0.26730  0.67050  0.14960  1.0000 -0.0414360411
C   C127      1.0  0.26730  0.82950  0.64960  1.0000 -0.0414360411
C   C128      1.0  0.73270  0.32950  0.85040  1.0000 -0.0414360411
C   C129      1.0  0.68260  0.12840  0.37310  1.0000 -0.0830071246
C   C130      1.0  0.31740  0.62840  0.12690  1.0000 -0.0830071246
C   C131      1.0  0.31740  0.87160  0.62690  1.0000 -0.0830071246
C   C132      1.0  0.68260  0.37160  0.87310  1.0000 -0.0830071246
C   C133      1.0  0.79100  0.10670  0.41480  1.0000 -0.1673793023
C   C134      1.0  0.20900  0.60670  0.08520  1.0000 -0.1673793023
C   C135      1.0  0.20900  0.89330  0.58520  1.0000 -0.1673793023
C   C136      1.0  0.79100  0.39330  0.91480  1.0000 -0.1673793023
C   C137      1.0  0.96240  0.23620  0.34700  1.0000 0.6053423459
C   C138      1.0  0.03760  0.73620  0.15300  1.0000 0.6053423459
C   C139      1.0  0.03760  0.76380  0.65300  1.0000 0.6053423459
C   C140      1.0  0.96240  0.26380  0.84700  1.0000 0.6053423459
C   C141      1.0  0.60500  0.19180  0.30800  1.0000 0.590359388
C   C142      1.0  0.39500  0.69180  0.19200  1.0000 0.590359388
C   C143      1.0  0.39500  0.80820  0.69200  1.0000 0.590359388
C   C144      1.0  0.60500  0.30820  0.80800  1.0000 0.590359388
C   C145      1.0  0.19600  0.06850  0.44670  1.0000 0.6690016116
C   C146      1.0  0.80400  0.56850  0.05330  1.0000 0.6690016116
C   C147      1.0  0.80400  0.93150  0.55330  1.0000 0.6690016116
C   C148      1.0  0.19600  0.43150  0.94670  1.0000 0.6690016116
C   C149      1.0  0.95940  0.07760  0.52450  1.0000 0.6690016116
C   C150      1.0  0.04060  0.57760  0.97550  1.0000 0.6690016116
C   C151      1.0  0.04060  0.92240  0.47550  1.0000 0.6690016116
C   C152      1.0  0.95940  0.42240  0.02450  1.0000 0.6690016116
O   O1        1.0  0.66667  0.37547  0.70020  1.0000 -0.5508503591
O   O2        1.0  0.33333  0.87547  0.79980  1.0000 -0.5508503591
O   O3        1.0  0.33333  0.62453  0.29980  1.0000 -0.5508503591
O   O4        1.0  0.66667  0.12453  0.20020  1.0000 -0.5508503591
O   O5        1.0  0.42230  0.33239  0.68629  1.0000 -0.6449403291
O   O6        1.0  0.57770  0.83239  0.81371  1.0000 -0.6449403291
O   O7        1.0  0.57770  0.66761  0.31371  1.0000 -0.6455741649
O   O8        1.0  0.42230  0.16761  0.18629  1.0000 -0.6455741649
O   O9        1.0  0.06050  0.32641  0.73882  1.0000 -0.6913208937
O   O10       1.0  0.93950  0.82641  0.76118  1.0000 -0.6913208937
O   O11       1.0  0.93950  0.67359  0.26118  1.0000 -0.6913208937
O   O12       1.0  0.06050  0.17359  0.23882  1.0000 -0.6913208937
O   O13       1.0  0.01820  0.36689  0.65916  1.0000 -0.4358339434
O   O14       1.0  0.98180  0.86689  0.84084  1.0000 -0.4285850252
O   O15       1.0  0.98180  0.63311  0.34084  1.0000 -0.4285850252
O   O16       1.0  0.01820  0.13311  0.15916  1.0000 -0.4358339434
O   O17       1.0  0.98140  0.65524  0.65090  1.0000 -0.5298247238
O   O18       1.0  0.01860  0.15524  0.84910  1.0000 -0.5298247238
O   O19       1.0  0.01860  0.34476  0.34910  1.0000 -0.5298247238
O   O20       1.0  0.98140  0.84476  0.15090  1.0000 -0.5298247238
O   O21       1.0  0.94520  0.57994  0.65710  1.0000 -0.4611315591
O   O22       1.0  0.05480  0.07994  0.84290  1.0000 -0.4611315591
O   O23       1.0  0.05480  0.42006  0.34290  1.0000 -0.4611315591
O   O24       1.0  0.94520  0.92006  0.15710  1.0000 -0.4611315591
O   O25       1.0  0.06780  0.72945  0.78030  1.0000 -0.6647985702
O   O26       1.0  0.93220  0.22945  0.71970  1.0000 -0.6647985702
O   O27       1.0  0.93220  0.27055  0.21970  1.0000 -0.6682823648
O   O28       1.0  0.06780  0.77055  0.28030  1.0000 -0.6647985702
O   O29       1.0  0.83060  0.68400  0.76610  1.0000 -0.5670219039
O   O30       1.0  0.16940  0.18400  0.73390  1.0000 -0.5670219039
O   O31       1.0  0.16940  0.31600  0.23390  1.0000 -0.5670219039
O   O32       1.0  0.83060  0.81600  0.26610  1.0000 -0.5670219039
O   O33       1.0  0.15050  0.27032  0.63811  1.0000 -0.6455741649
O   O34       1.0  0.84950  0.77032  0.86189  1.0000 -0.6455741649
O   O35       1.0  0.84950  0.72968  0.36189  1.0000 -0.6455741649
O   O36       1.0  0.15050  0.22968  0.13811  1.0000 -0.6455741649
O   O37       1.0  0.90340  0.24232  0.59450  1.0000 -0.5670219039
O   O38       1.0  0.09660  0.74232  0.90550  1.0000 -0.5670219039
O   O39       1.0  0.09660  0.75768  0.40550  1.0000 -0.5670219039
O   O40       1.0  0.90340  0.25768  0.09450  1.0000 -0.5670219039
O   O41       1.0  0.51310  0.23559  0.66596  1.0000 -0.6682823648
O   O42       1.0  0.48690  0.73559  0.83404  1.0000 -0.6682823648
O   O43       1.0  0.48690  0.76441  0.33404  1.0000 -0.6682823648
O   O44       1.0  0.51310  0.26441  0.16596  1.0000 -0.6682823648
O   O45       1.0  0.55370  0.27405  0.58550  1.0000 -0.4285850252
O   O46       1.0  0.44630  0.77405  0.91450  1.0000 -0.4285850252
O   O47       1.0  0.44630  0.72595  0.41450  1.0000 -0.4285850252
O   O48       1.0  0.55370  0.22595  0.08550  1.0000 -0.4285850252
O   O49       1.0  0.11670  0.24230  0.33080  1.0000 -0.5298247238
O   O50       1.0  0.88330  0.74230  0.16920  1.0000 -0.5298247238
O   O51       1.0  0.88330  0.75770  0.66920  1.0000 -0.5298247238
O   O52       1.0  0.11670  0.25770  0.83080  1.0000 -0.5298247238
O   O53       1.0  0.84280  0.26924  0.35260  1.0000 -0.4611315591
O   O54       1.0  0.15720  0.76924  0.14740  1.0000 -0.4611315591
O   O55       1.0  0.15720  0.73076  0.64740  1.0000 -0.4611315591
O   O56       1.0  0.84280  0.23076  0.85260  1.0000 -0.4611315591
O   O57       1.0  0.66590  0.21210  0.26418  1.0000 -0.6682823648
O   O58       1.0  0.33410  0.71210  0.23582  1.0000 -0.6682823648
O   O59       1.0  0.33410  0.78790  0.73582  1.0000 -0.6682823648
O   O60       1.0  0.66590  0.28790  0.76418  1.0000 -0.6647985702
O   O61       1.0  0.43810  0.18825  0.31660  1.0000 -0.5670219039
O   O62       1.0  0.56190  0.68825  0.18340  1.0000 -0.5670219039
O   O63       1.0  0.56190  0.81175  0.68340  1.0000 -0.5670219039
O   O64       1.0  0.43810  0.31175  0.81660  1.0000 -0.5670219039
O   O65       1.0  0.77900  0.34540  0.57400  1.0000 -0.2173105205
O   O66       1.0  0.22100  0.84540  0.92600  1.0000 -0.2173105205
O   O67       1.0  0.22100  0.65460  0.42600  1.0000 -0.2173105205
O   O68       1.0  0.77900  0.15460  0.07400  1.0000 -0.2145104234
O   O69       1.0  0.48400  0.20663  0.79640  1.0000 -0.7179337268
O   O70       1.0  0.51600  0.70663  0.70360  1.0000 -0.7179337268
O   O71       1.0  0.51600  0.79337  0.20360  1.0000 -0.7179337268
O   O72       1.0  0.48400  0.29337  0.29640  1.0000 -0.7179337268
F   F1        1.0  0.39850  0.51848  0.88759  1.0000 -0.1905932258
F   F2        1.0  0.60150  0.01848  0.61241  1.0000 -0.1905932258
F   F3        1.0  0.60150  0.48152  0.11241  1.0000 -0.1905932258
F   F4        1.0  0.39850  0.98152  0.38759  1.0000 -0.1905932258
F   F5        1.0  0.65110  0.55164  0.86920  1.0000 -0.1905932258
F   F6        1.0  0.34890  0.05164  0.63080  1.0000 -0.1905932258
F   F7        1.0  0.34890  0.44836  0.13080  1.0000 -0.1905932258
F   F8        1.0  0.65110  0.94836  0.36920  1.0000 -0.1905932258
F   F9        1.0  0.62160  0.47940  0.85480  1.0000 -0.1905932258
F   F10       1.0  0.37840  0.97940  0.64520  1.0000 -0.1905932258
F   F11       1.0  0.37840  0.52060  0.14520  1.0000 -0.1905932258
F   F12       1.0  0.62160  0.02060  0.35480  1.0000 -0.1905932258
F   F13       1.0  0.77410  0.51294  0.75890  1.0000 -0.2008096253
F   F14       1.0  0.22590  0.01294  0.74110  1.0000 -0.2008096253
F   F15       1.0  0.22590  0.48706  0.24110  1.0000 -0.2008096253
F   F16       1.0  0.77410  0.98706  0.25890  1.0000 -0.2008096253
F   F17       1.0  0.58190  0.53703  0.69430  1.0000 -0.2008096253
F   F18       1.0  0.41810  0.03703  0.80570  1.0000 -0.2008096253
F   F19       1.0  0.41810  0.46297  0.30570  1.0000 -0.2008096253
F   F20       1.0  0.58190  0.96297  0.19430  1.0000 -0.2008096253
F   F21       1.0  0.68560  0.58299  0.76000  1.0000 -0.1822768108
F   F22       1.0  0.31440  0.08299  0.74000  1.0000 -0.1822768108
F   F23       1.0  0.31440  0.41701  0.24000  1.0000 -0.1822768108
F   F24       1.0  0.68560  0.91701  0.26000  1.0000 -0.1822768108
F   F25       1.0  0.29990  0.04387  0.48326  1.0000 -0.2008096253
F   F26       1.0  0.70010  0.54387  0.01674  1.0000 -0.2008096253
F   F27       1.0  0.70010  0.95613  0.51674  1.0000 -0.2008096253
F   F28       1.0  0.29990  0.45613  0.98326  1.0000 -0.2008096253
F   F29       1.0  0.30670  0.09008  0.41109  1.0000 -0.1822768108
F   F30       1.0  0.69330  0.59008  0.08891  1.0000 -0.1822768108
F   F31       1.0  0.69330  0.90992  0.58891  1.0000 -0.1822768108
F   F32       1.0  0.30670  0.40992  0.91109  1.0000 -0.1822768108
F   F33       1.0  0.09610  0.03954  0.41547  1.0000 -0.1905932258
F   F34       1.0  0.90390  0.53954  0.08453  1.0000 -0.1905932258
F   F35       1.0  0.90390  0.96046  0.58453  1.0000 -0.1905932258
F   F36       1.0  0.09610  0.46046  0.91547  1.0000 -0.1905932258
F   F37       1.0  0.05750  0.06576  0.57044  1.0000 -0.1905932258
F   F38       1.0  0.94250  0.56576  0.92956  1.0000 -0.1905932258
F   F39       1.0  0.94250  0.93424  0.42956  1.0000 -0.1905932258
F   F40       1.0  0.05750  0.43424  0.07044  1.0000 -0.1905932258
F   F41       1.0  0.88560  0.03899  0.50364  1.0000 -0.2008096253
F   F42       1.0  0.11440  0.53899  0.99636  1.0000 -0.2008096253
F   F43       1.0  0.11440  0.96101  0.49636  1.0000 -0.2008096253
F   F44       1.0  0.88560  0.46101  0.00364  1.0000 -0.2008096253
F   F45       1.0  0.82200  0.10330  0.54229  1.0000 -0.1905932258
F   F46       1.0  0.17800  0.60330  0.95771  1.0000 -0.1905932258
F   F47       1.0  0.17800  0.89670  0.45771  1.0000 -0.1905932258
F   F48       1.0  0.82200  0.39670  0.04229  1.0000 -0.1905932258
