# DDEC6 charges by PACMAN v1.1 (https://github.com/mtap-research/PACMAN-charge/)
data_2013[Y][nan]3[FSR]3
_chemical_formula_sum              "Y8 H64 C84 O68"
_cell_length_a       9.8605
_cell_length_b       29.21
_cell_length_c       10.8652
_cell_angle_alpha    90
_cell_angle_beta     92.203
_cell_angle_gamma    90

_symmetry_space_group_name_H-M    "P 1"
_symmetry_Int_Tables_number       1

loop_
  _symmetry_equiv_pos_as_xyz
  'x, y, z'

loop_
  _atom_site_type_symbol
  _atom_site_label
  _atom_site_symmetry_multiplicity
  _atom_site_fract_x
  _atom_site_fract_y
  _atom_site_fract_z
  _atom_site_occupancy
  _atom_site_charge
Y   Y1        1.0  0.54552  0.58145  0.04159  1.0000 1.7782132064
Y   Y2        1.0  0.45448  0.08145  0.45841  1.0000 1.7782132064
Y   Y3        1.0  0.45448  0.41855  0.95841  1.0000 1.7782132064
Y   Y4        1.0  0.54552  0.91855  0.54159  1.0000 1.7782132064
Y   Y5        1.0  0.54043  0.74834  0.76331  1.0000 1.7724361454
Y   Y6        1.0  0.45957  0.24834  0.73669  1.0000 1.7724361454
Y   Y7        1.0  0.45957  0.25166  0.23669  1.0000 1.7724361454
Y   Y8        1.0  0.54043  0.75166  0.26331  1.0000 1.7724361454
H   H1        1.0  0.98670  0.59250  0.16440  1.0000 0.1271877224
H   H2        1.0  0.01330  0.09250  0.33560  1.0000 0.1271877224
H   H3        1.0  0.01330  0.40750  0.83560  1.0000 0.1271877224
H   H4        1.0  0.98670  0.90750  0.66440  1.0000 0.1271877224
H   H5        1.0  0.21900  0.60730  0.16440  1.0000 0.1229764158
H   H6        1.0  0.78100  0.10730  0.33560  1.0000 0.1229764158
H   H7        1.0  0.78100  0.39270  0.83560  1.0000 0.1229764158
H   H8        1.0  0.21900  0.89270  0.66440  1.0000 0.1229764158
H   H9        1.0  0.09370  0.79010  0.84450  1.0000 0.1229764158
H   H10       1.0  0.90630  0.29010  0.65550  1.0000 0.1229764158
H   H11       1.0  0.90630  0.20990  0.15550  1.0000 0.1229764158
H   H12       1.0  0.09370  0.70990  0.34450  1.0000 0.1229764158
H   H13       1.0  0.86700  0.78660  0.89410  1.0000 0.1271877224
H   H14       1.0  0.13300  0.28660  0.60590  1.0000 0.1271877224
H   H15       1.0  0.13300  0.21340  0.10590  1.0000 0.1271877224
H   H16       1.0  0.86700  0.71340  0.39410  1.0000 0.1271877224
H   H17       1.0  0.94260  0.51760  0.68990  1.0000 0.1229764158
H   H18       1.0  0.05740  0.01760  0.81010  1.0000 0.1229764158
H   H19       1.0  0.05740  0.48240  0.31010  1.0000 0.1229764158
H   H20       1.0  0.94260  0.98240  0.18990  1.0000 0.1229764158
H   H21       1.0  0.82600  0.48610  0.26510  1.0000 0.1271877224
H   H22       1.0  0.17400  0.98610  0.23490  1.0000 0.1271877224
H   H23       1.0  0.17400  0.51390  0.73490  1.0000 0.1271877224
H   H24       1.0  0.82600  0.01390  0.76510  1.0000 0.1271877224
H   H25       1.0  0.43400  0.59120  0.29100  1.0000 0.3534365629
H   H26       1.0  0.56600  0.09120  0.20900  1.0000 0.3534365629
H   H27       1.0  0.56600  0.40880  0.70900  1.0000 0.3534365629
H   H28       1.0  0.43400  0.90880  0.79100  1.0000 0.3534365629
H   H29       1.0  0.44400  0.54530  0.26200  1.0000 0.3830621426
H   H30       1.0  0.55600  0.04530  0.23800  1.0000 0.3830621426
H   H31       1.0  0.55600  0.45470  0.73800  1.0000 0.3830621426
H   H32       1.0  0.44400  0.95470  0.76200  1.0000 0.3830621426
H   H33       1.0  0.40900  0.63660  0.84900  1.0000 0.3830621426
H   H34       1.0  0.59100  0.13660  0.65100  1.0000 0.3830621426
H   H35       1.0  0.59100  0.36340  0.15100  1.0000 0.3830621426
H   H36       1.0  0.40900  0.86340  0.34900  1.0000 0.3830621426
H   H37       1.0  0.44900  0.59770  0.78600  1.0000 0.3681007683
H   H38       1.0  0.55100  0.09770  0.71400  1.0000 0.3681007683
H   H39       1.0  0.55100  0.40230  0.21400  1.0000 0.3681007683
H   H40       1.0  0.44900  0.90230  0.28600  1.0000 0.3681007683
H   H41       1.0  0.68900  0.66667  0.82700  1.0000 0.3863757287
H   H42       1.0  0.31100  0.16660  0.67300  1.0000 0.3863757287
H   H43       1.0  0.31100  0.33340  0.17300  1.0000 0.3863757287
H   H44       1.0  0.68900  0.83340  0.32700  1.0000 0.3863757287
H   H45       1.0  0.68400  0.66667  0.69700  1.0000 0.3681007683
H   H46       1.0  0.31600  0.16660  0.80300  1.0000 0.3681007683
H   H47       1.0  0.31600  0.33340  0.30300  1.0000 0.3681007683
H   H48       1.0  0.68400  0.83340  0.19700  1.0000 0.3681007683
H   H49       1.0  0.49100  0.66980  0.59800  1.0000 0.3253796731
H   H50       1.0  0.50900  0.16980  0.90200  1.0000 0.3248807524
H   H51       1.0  0.50900  0.33020  0.40200  1.0000 0.3253796731
H   H52       1.0  0.49100  0.83020  0.09800  1.0000 0.3253796731
H   H53       1.0  0.40200  0.70460  0.56100  1.0000 0.3830621426
H   H54       1.0  0.59800  0.20460  0.93900  1.0000 0.3830621426
H   H55       1.0  0.59800  0.29540  0.43900  1.0000 0.3830621426
H   H56       1.0  0.40200  0.79540  0.06100  1.0000 0.3830621426
H   H57       1.0  0.61700  0.84340  0.76500  1.0000 0.3681007683
H   H58       1.0  0.38300  0.34340  0.73500  1.0000 0.3681007683
H   H59       1.0  0.38300  0.15660  0.23500  1.0000 0.3681007683
H   H60       1.0  0.61700  0.65660  0.26500  1.0000 0.3681007683
H   H61       1.0  0.59200  0.83760  0.88900  1.0000 0.3534365629
H   H62       1.0  0.40800  0.33760  0.61100  1.0000 0.3534365629
H   H63       1.0  0.40800  0.16240  0.11100  1.0000 0.3534365629
H   H64       1.0  0.59200  0.66240  0.38900  1.0000 0.3534365629
C   C1        1.0  0.92510  0.65108  0.08740  1.0000 -0.0614603016
C   C2        1.0  0.07490  0.15108  0.41260  1.0000 -0.0614603016
C   C3        1.0  0.07490  0.34892  0.91260  1.0000 -0.0614603016
C   C4        1.0  0.92510  0.84892  0.58740  1.0000 -0.0614603016
C   C5        1.0  0.01720  0.61988  0.13170  1.0000 -0.0998931437
C   C6        1.0  0.98280  0.11988  0.36830  1.0000 -0.0998931437
C   C7        1.0  0.98280  0.38012  0.86830  1.0000 -0.0998931437
C   C8        1.0  0.01720  0.88012  0.63170  1.0000 -0.0998931437
C   C9        1.0  0.15810  0.62826  0.12920  1.0000 -0.1101929052
C   C10       1.0  0.84190  0.12826  0.37080  1.0000 -0.1101929052
C   C11       1.0  0.84190  0.37174  0.87080  1.0000 -0.1101929052
C   C12       1.0  0.15810  0.87174  0.62920  1.0000 -0.1101929052
C   C13       1.0  0.20590  0.66721  0.07500  1.0000 -0.0694282977
C   C14       1.0  0.79410  0.16721  0.42500  1.0000 -0.0694282977
C   C15       1.0  0.79410  0.33279  0.92500  1.0000 -0.0694282977
C   C16       1.0  0.20590  0.83279  0.57500  1.0000 -0.0694282977
C   C17       1.0  0.11270  0.69888  0.01730  1.0000 0.0414751635
C   C18       1.0  0.88730  0.19888  0.48270  1.0000 0.0414751635
C   C19       1.0  0.88730  0.30112  0.98270  1.0000 0.0414751635
C   C20       1.0  0.11270  0.80112  0.51730  1.0000 0.0414751635
C   C21       1.0  0.15690  0.73555  0.94150  1.0000 -0.0614603016
C   C22       1.0  0.84310  0.23555  0.55850  1.0000 -0.0614603016
C   C23       1.0  0.84310  0.26445  0.05850  1.0000 -0.0614603016
C   C24       1.0  0.15690  0.76445  0.44150  1.0000 -0.0614603016
C   C25       1.0  0.06460  0.76665  0.89510  1.0000 -0.0998931437
C   C26       1.0  0.93540  0.26665  0.60490  1.0000 -0.0998931437
C   C27       1.0  0.93540  0.23335  0.10490  1.0000 -0.0998931437
C   C28       1.0  0.06460  0.73335  0.39510  1.0000 -0.0998931437
C   C29       1.0  0.92650  0.76392  0.92260  1.0000 -0.1101929052
C   C30       1.0  0.07350  0.26392  0.57740  1.0000 -0.1101929052
C   C31       1.0  0.07350  0.23608  0.07740  1.0000 -0.1101929052
C   C32       1.0  0.92650  0.73608  0.42260  1.0000 -0.1101929052
C   C33       1.0  0.87870  0.72866  0.99010  1.0000 -0.0694282977
C   C34       1.0  0.12130  0.22866  0.50990  1.0000 -0.0694282977
C   C35       1.0  0.12130  0.27134  0.00990  1.0000 -0.0694282977
C   C36       1.0  0.87870  0.77134  0.49010  1.0000 -0.0694282977
C   C37       1.0  0.97000  0.69295  0.03380  1.0000 0.0414751635
C   C38       1.0  0.03000  0.19295  0.46620  1.0000 0.0414751635
C   C39       1.0  0.03000  0.30705  0.96620  1.0000 0.0414751635
C   C40       1.0  0.97000  0.80705  0.53380  1.0000 0.0414751635
C   C41       1.0  0.78170  0.63458  0.07970  1.0000 0.5822007839
C   C42       1.0  0.21830  0.13458  0.42030  1.0000 0.5822007839
C   C43       1.0  0.21830  0.36542  0.92030  1.0000 0.5822007839
C   C44       1.0  0.78170  0.86542  0.57970  1.0000 0.5822007839
C   C45       1.0  0.35400  0.67752  0.09920  1.0000 0.6431763505
C   C46       1.0  0.64600  0.17752  0.40080  1.0000 0.6431763505
C   C47       1.0  0.64600  0.32248  0.90080  1.0000 0.6431763505
C   C48       1.0  0.35400  0.82248  0.59920  1.0000 0.6431763505
C   C49       1.0  0.29750  0.73832  0.89420  1.0000 0.5822007839
C   C50       1.0  0.70250  0.23832  0.60580  1.0000 0.5822007839
C   C51       1.0  0.70250  0.26168  0.10580  1.0000 0.5822007839
C   C52       1.0  0.29750  0.76168  0.39420  1.0000 0.5822007839
C   C53       1.0  0.73390  0.73242  0.02880  1.0000 0.6431763505
C   C54       1.0  0.26610  0.23242  0.47120  1.0000 0.6431763505
C   C55       1.0  0.26610  0.26758  0.97120  1.0000 0.6431763505
C   C56       1.0  0.73390  0.76758  0.52880  1.0000 0.6431763505
C   C57       1.0  0.97360  0.51397  0.77130  1.0000 -0.1101929052
C   C58       1.0  0.02640  0.01397  0.72870  1.0000 -0.1101929052
C   C59       1.0  0.02640  0.48603  0.22870  1.0000 -0.1101929052
C   C60       1.0  0.97360  0.98603  0.27130  1.0000 -0.1101929052
C   C61       1.0  0.88270  0.51095  0.86090  1.0000 -0.0694282977
C   C62       1.0  0.11730  0.01095  0.63910  1.0000 -0.0694282977
C   C63       1.0  0.11730  0.48905  0.13910  1.0000 -0.0694282977
C   C64       1.0  0.88270  0.98905  0.36090  1.0000 -0.0694282977
C   C65       1.0  0.73730  0.52353  0.82710  1.0000 0.6127848213
C   C66       1.0  0.26270  0.02353  0.67290  1.0000 0.6127848213
C   C67       1.0  0.26270  0.47647  0.17290  1.0000 0.6127848213
C   C68       1.0  0.73730  0.97647  0.32710  1.0000 0.6127848213
C   C69       1.0  0.92840  0.50109  0.98570  1.0000 0.0414751635
C   C70       1.0  0.07160  0.00109  0.51430  1.0000 0.0414751635
C   C71       1.0  0.07160  0.49891  0.01430  1.0000 0.0414751635
C   C72       1.0  0.92840  0.99891  0.48570  1.0000 0.0414751635
C   C73       1.0  0.83830  0.49370  0.08250  1.0000 -0.0614603016
C   C74       1.0  0.16170  0.99370  0.41750  1.0000 -0.0614603016
C   C75       1.0  0.16170  0.50630  0.91750  1.0000 -0.0614603016
C   C76       1.0  0.83830  0.00630  0.58250  1.0000 -0.0614603016
C   C77       1.0  0.68960  0.48584  0.05890  1.0000 0.6127848213
C   C78       1.0  0.31040  0.98584  0.44110  1.0000 0.6127848213
C   C79       1.0  0.31040  0.51416  0.94110  1.0000 0.6127848213
C   C80       1.0  0.68960  0.01416  0.55890  1.0000 0.6127848213
C   C81       1.0  0.88650  0.48830  0.20180  1.0000 -0.1156875531
C   C82       1.0  0.11350  0.98830  0.29820  1.0000 -0.1156875531
C   C83       1.0  0.11350  0.51170  0.79820  1.0000 -0.1156875531
C   C84       1.0  0.88650  0.01170  0.70180  1.0000 -0.1156875531
O   O1        1.0  0.73740  0.60962  0.16530  1.0000 -0.6001503955
O   O2        1.0  0.26260  0.10962  0.33470  1.0000 -0.6001503955
O   O3        1.0  0.26260  0.39038  0.83470  1.0000 -0.6001503955
O   O4        1.0  0.73740  0.89038  0.66530  1.0000 -0.6001503955
O   O5        1.0  0.70910  0.64157  0.98440  1.0000 -0.562278148
O   O6        1.0  0.29090  0.14157  0.51560  1.0000 -0.562278148
O   O7        1.0  0.29090  0.35843  0.01560  1.0000 -0.562278148
O   O8        1.0  0.70910  0.85843  0.48440  1.0000 -0.562278148
O   O9        1.0  0.43730  0.64555  0.09630  1.0000 -0.6227245893
O   O10       1.0  0.56270  0.14555  0.40370  1.0000 -0.6227245893
O   O11       1.0  0.56270  0.35445  0.90370  1.0000 -0.6227245893
O   O12       1.0  0.43730  0.85445  0.59630  1.0000 -0.6227245893
O   O13       1.0  0.38450  0.71764  0.13000  1.0000 -0.5938505049
O   O14       1.0  0.61550  0.21764  0.37000  1.0000 -0.5938505049
O   O15       1.0  0.61550  0.28236  0.87000  1.0000 -0.5938505049
O   O16       1.0  0.38450  0.78236  0.63000  1.0000 -0.5938505049
O   O17       1.0  0.35450  0.70351  0.85340  1.0000 -0.5782992209
O   O18       1.0  0.64550  0.20351  0.64660  1.0000 -0.5782992209
O   O19       1.0  0.64550  0.29649  0.14660  1.0000 -0.5782992209
O   O20       1.0  0.35450  0.79649  0.35340  1.0000 -0.5782992209
O   O21       1.0  0.35560  0.77699  0.88860  1.0000 -0.6001503955
O   O22       1.0  0.64440  0.27699  0.61140  1.0000 -0.6001503955
O   O23       1.0  0.64440  0.22301  0.11140  1.0000 -0.6001503955
O   O24       1.0  0.35560  0.72301  0.38860  1.0000 -0.6001503955
O   O25       1.0  0.71280  0.72726  0.14080  1.0000 -0.6001503955
O   O26       1.0  0.28720  0.22726  0.35920  1.0000 -0.6001503955
O   O27       1.0  0.28720  0.27274  0.85920  1.0000 -0.6001503955
O   O28       1.0  0.71280  0.77274  0.64080  1.0000 -0.6001503955
O   O29       1.0  0.64470  0.74478  0.95080  1.0000 -0.6299732293
O   O30       1.0  0.35530  0.24478  0.54920  1.0000 -0.6299732293
O   O31       1.0  0.35530  0.25522  0.04920  1.0000 -0.6299732293
O   O32       1.0  0.64470  0.75522  0.45080  1.0000 -0.6299732293
O   O33       1.0  0.68650  0.50920  0.72670  1.0000 -0.5523586239
O   O34       1.0  0.31350  0.00920  0.77330  1.0000 -0.5523586239
O   O35       1.0  0.31350  0.49080  0.27330  1.0000 -0.5523586239
O   O36       1.0  0.68650  0.99080  0.22670  1.0000 -0.5523586239
O   O37       1.0  0.67770  0.55007  0.89840  1.0000 -0.638688993
O   O38       1.0  0.32230  0.05007  0.60160  1.0000 -0.638688993
O   O39       1.0  0.32230  0.44993  0.10160  1.0000 -0.638688993
O   O40       1.0  0.67770  0.94993  0.39840  1.0000 -0.638688993
O   O41       1.0  0.65850  0.45405  0.98590  1.0000 -0.6001503955
O   O42       1.0  0.34150  0.95405  0.51410  1.0000 -0.6001503955
O   O43       1.0  0.34150  0.54595  0.01410  1.0000 -0.6001503955
O   O44       1.0  0.65850  0.04595  0.48590  1.0000 -0.6001503955
O   O45       1.0  0.60690  0.50968  0.11610  1.0000 -0.5938505049
O   O46       1.0  0.39310  0.00968  0.38390  1.0000 -0.5938505049
O   O47       1.0  0.39310  0.49032  0.88390  1.0000 -0.5938505049
O   O48       1.0  0.60690  0.99032  0.61610  1.0000 -0.5938505049
O   O49       1.0  0.47860  0.57147  0.25120  1.0000 -0.7005562152
O   O50       1.0  0.52140  0.07147  0.24880  1.0000 -0.7005562152
O   O51       1.0  0.52140  0.42853  0.74880  1.0000 -0.7005562152
O   O52       1.0  0.47860  0.92853  0.75120  1.0000 -0.7005562152
O   O53       1.0  0.45090  0.61136  0.85320  1.0000 -0.7005562152
O   O54       1.0  0.54910  0.11136  0.64680  1.0000 -0.7005562152
O   O55       1.0  0.54910  0.38864  0.14680  1.0000 -0.7005562152
O   O56       1.0  0.45090  0.88864  0.35320  1.0000 -0.7005562152
O   O57       1.0  0.68260  0.68280  0.76250  1.0000 -0.7312689985
O   O58       1.0  0.31740  0.18280  0.73750  1.0000 -0.7312689985
O   O59       1.0  0.31740  0.31720  0.23750  1.0000 -0.7312689985
O   O60       1.0  0.68260  0.81720  0.26250  1.0000 -0.7312689985
O   O61       1.0  0.45970  0.69488  0.61410  1.0000 -0.722330075
O   O62       1.0  0.54030  0.19488  0.88590  1.0000 -0.722330075
O   O63       1.0  0.54030  0.30512  0.38590  1.0000 -0.722330075
O   O64       1.0  0.45970  0.80512  0.11410  1.0000 -0.722330075
O   O65       1.0  0.59600  0.82476  0.82010  1.0000 -0.7078284438
O   O66       1.0  0.40400  0.32476  0.67990  1.0000 -0.7078284438
O   O67       1.0  0.40400  0.17524  0.17990  1.0000 -0.7078284438
O   O68       1.0  0.59600  0.67524  0.32010  1.0000 -0.7078284438
