# DDEC6 charges by PACMAN v1.1 (https://github.com/mtap-research/PACMAN-charge/)
data_2013[Eu][dia]3[FSR]1
_chemical_formula_sum              "Eu4 H12 C16 O36"
_cell_length_a       9.6661
_cell_length_b       11.737
_cell_length_c       14.3828
_cell_angle_alpha    90
_cell_angle_beta     122.315
_cell_angle_gamma    90

_symmetry_space_group_name_H-M    "P 1"
_symmetry_Int_Tables_number       1

loop_
  _symmetry_equiv_pos_as_xyz
  'x, y, z'

loop_
  _atom_site_type_symbol
  _atom_site_label
  _atom_site_symmetry_multiplicity
  _atom_site_fract_x
  _atom_site_fract_y
  _atom_site_fract_z
  _atom_site_occupancy
  _atom_site_charge
Eu  Eu1       1.0  0.11708  0.98442  0.33093  1.0000 1.9634749767
Eu  Eu2       1.0  0.88292  0.48442  0.16907  1.0000 1.9634749767
Eu  Eu3       1.0  0.88292  0.01558  0.66907  1.0000 1.9634749767
Eu  Eu4       1.0  0.11708  0.51558  0.83093  1.0000 1.9634749767
H   H1        1.0  0.19250  0.00690  0.16290  1.0000 0.3027669739
H   H2        1.0  0.80750  0.50690  0.33710  1.0000 0.3027669739
H   H3        1.0  0.80750  0.99310  0.83710  1.0000 0.3027669739
H   H4        1.0  0.19250  0.49310  0.66290  1.0000 0.3027669739
H   H5        1.0  0.02290  0.01330  0.10520  1.0000 0.2932999607
H   H6        1.0  0.97710  0.51330  0.39480  1.0000 0.2932999607
H   H7        1.0  0.97710  0.98670  0.89480  1.0000 0.2932999607
H   H8        1.0  0.02290  0.48670  0.60520  1.0000 0.2932999607
H   H9        1.0  0.09990  0.90790  0.13440  1.0000 0.3027669739
H   H10       1.0  0.90010  0.40790  0.36560  1.0000 0.3027669739
H   H11       1.0  0.90010  0.09210  0.86560  1.0000 0.3027669739
H   H12       1.0  0.09990  0.59210  0.63440  1.0000 0.3027669739
C   C1        1.0  0.90440  0.21000  0.20540  1.0000 0.5243408557
C   C2        1.0  0.09560  0.71000  0.29460  1.0000 0.5243408557
C   C3        1.0  0.09560  0.79000  0.79460  1.0000 0.5243408557
C   C4        1.0  0.90440  0.29000  0.70540  1.0000 0.5243408557
C   C5        1.0  0.08300  0.25390  0.28280  1.0000 0.5324029129
C   C6        1.0  0.91700  0.75390  0.21720  1.0000 0.5324029129
C   C7        1.0  0.91700  0.74610  0.71720  1.0000 0.5324029129
C   C8        1.0  0.08300  0.24610  0.78280  1.0000 0.5324029129
C   C9        1.0  0.51580  0.99960  0.45290  1.0000 0.5367804047
C   C10       1.0  0.48420  0.49960  0.04710  1.0000 0.5367804047
C   C11       1.0  0.48420  0.00040  0.54710  1.0000 0.5367804047
C   C12       1.0  0.51580  0.50040  0.95290  1.0000 0.5367804047
C   C13       1.0  0.00490  0.06540  0.49990  1.0000 0.5324029129
C   C14       1.0  0.99510  0.56540  0.00010  1.0000 0.5324029129
C   C15       1.0  0.99510  0.93460  0.50010  1.0000 0.5324029129
C   C16       1.0  0.00490  0.43460  0.99990  1.0000 0.5324029129
O   O1        1.0  0.88410  0.10490  0.20000  1.0000 -0.5499346379
O   O2        1.0  0.11590  0.60490  0.30000  1.0000 -0.5499346379
O   O3        1.0  0.11590  0.89510  0.80000  1.0000 -0.5499346379
O   O4        1.0  0.88410  0.39510  0.70000  1.0000 -0.5499346379
O   O5        1.0  0.79610  0.28450  0.15580  1.0000 -0.5615596521
O   O6        1.0  0.20390  0.78450  0.34420  1.0000 -0.5615596521
O   O7        1.0  0.20390  0.71550  0.84420  1.0000 -0.5615596521
O   O8        1.0  0.79610  0.21550  0.65580  1.0000 -0.5615596521
O   O9        1.0  0.19330  0.18030  0.32780  1.0000 -0.5615596521
O   O10       1.0  0.80670  0.68030  0.17220  1.0000 -0.5615596521
O   O11       1.0  0.80670  0.81970  0.67220  1.0000 -0.5615596521
O   O12       1.0  0.19330  0.31970  0.82780  1.0000 -0.5615596521
O   O13       1.0  0.10210  0.35900  0.29440  1.0000 -0.5499346379
O   O14       1.0  0.89790  0.85900  0.20560  1.0000 -0.5499346379
O   O15       1.0  0.89790  0.64100  0.70560  1.0000 -0.5499346379
O   O16       1.0  0.10210  0.14100  0.79440  1.0000 -0.5499346379
O   O17       1.0  0.39130  0.98600  0.35720  1.0000 -0.5615596521
O   O18       1.0  0.60870  0.48600  0.14280  1.0000 -0.5615596521
O   O19       1.0  0.60870  0.01400  0.64280  1.0000 -0.5615596521
O   O20       1.0  0.39130  0.51400  0.85720  1.0000 -0.5615596521
O   O21       1.0  0.65940  0.01260  0.47770  1.0000 -0.5422588113
O   O22       1.0  0.34060  0.51260  0.02230  1.0000 -0.5422588113
O   O23       1.0  0.34060  0.98740  0.52230  1.0000 -0.5422588113
O   O24       1.0  0.65940  0.48740  0.97770  1.0000 -0.5422588113
O   O25       1.0  0.03450  0.10910  0.43290  1.0000 -0.5499346379
O   O26       1.0  0.96550  0.60910  0.06710  1.0000 -0.5499346379
O   O27       1.0  0.96550  0.89090  0.56710  1.0000 -0.5499346379
O   O28       1.0  0.03450  0.39090  0.93290  1.0000 -0.5499346379
O   O29       1.0  0.98220  0.11800  0.56620  1.0000 -0.5499346379
O   O30       1.0  0.01780  0.61800  0.93380  1.0000 -0.5499346379
O   O31       1.0  0.01780  0.88200  0.43380  1.0000 -0.5499346379
O   O32       1.0  0.98220  0.38200  0.06620  1.0000 -0.5499346379
O   O33       1.0  0.10630  0.97690  0.15430  1.0000 -0.5615596521
O   O34       1.0  0.89370  0.47690  0.34570  1.0000 -0.5615596521
O   O35       1.0  0.89370  0.02310  0.84570  1.0000 -0.5615596521
O   O36       1.0  0.10630  0.52310  0.65430  1.0000 -0.5615596521
