# DDEC6 charges by PACMAN v1.1 (https://github.com/mtap-research/PACMAN-charge/)
data_2013[La][nan]3[FSR]4
_chemical_formula_sum              "La2 H32 C48 S6 N2 O14"
_cell_length_a       14.1833
_cell_length_b       14.1833
_cell_length_c       8.206
_cell_angle_alpha    88.735
_cell_angle_beta     91.265
_cell_angle_gamma    110.032

_symmetry_space_group_name_H-M    "P 1"
_symmetry_Int_Tables_number       1

loop_
  _symmetry_equiv_pos_as_xyz
  'x, y, z'

loop_
  _atom_site_type_symbol
  _atom_site_label
  _atom_site_symmetry_multiplicity
  _atom_site_fract_x
  _atom_site_fract_y
  _atom_site_fract_z
  _atom_site_occupancy
  _atom_site_charge
La  La1       1.0  0.25122  0.78200  0.00345  1.0000 1.858788588
La  La2       1.0  0.21800  0.74878  0.50345  1.0000 1.858788588
H   H1        1.0  0.43680  0.39780  0.49730  1.0000 0.1185929493
H   H2        1.0  0.60220  0.56320  0.99730  1.0000 0.1185929493
H   H3        1.0  0.71820  0.59180  0.42870  1.0000 0.1086704106
H   H4        1.0  0.40820  0.28180  0.92870  1.0000 0.1086704106
H   H5        1.0  0.64260  0.30520  0.27710  1.0000 0.1086704106
H   H6        1.0  0.69480  0.35740  0.77710  1.0000 0.1086704106
H   H7        1.0  0.25710  0.04630  0.46390  1.0000 0.1312000375
H   H8        1.0  0.95370  0.74290  0.96390  1.0000 0.1312000375
H   H9        1.0  0.33970  0.22490  0.52670  1.0000 0.1312000375
H   H10       1.0  0.77510  0.66030  0.02670  1.0000 0.1312000375
H   H11       1.0  0.60440  0.78280  0.78460  1.0000 0.1376353026
H   H12       1.0  0.21720  0.39560  0.28460  1.0000 0.1376353026
H   H13       1.0  0.68650  0.68570  0.62670  1.0000 0.1185929493
H   H14       1.0  0.31430  0.31350  0.12670  1.0000 0.1185929493
H   H15       1.0  0.96050  0.42930  0.05090  1.0000 0.1312000375
H   H16       1.0  0.57070  0.03950  0.55090  1.0000 0.1312000375
H   H17       1.0  0.78540  0.35220  0.13170  1.0000 0.1185929493
H   H18       1.0  0.64780  0.21460  0.63170  1.0000 0.1185929493
H   H19       1.0  0.06530  0.87290  0.18140  1.0000 0.1086704106
H   H20       1.0  0.12710  0.93470  0.68140  1.0000 0.1086704106
H   H21       1.0  0.00080  0.06660  0.21080  1.0000 0.1376353026
H   H22       1.0  0.93340  0.99920  0.71080  1.0000 0.1376353026
H   H23       1.0  0.01310  0.97930  0.32680  1.0000 0.1312000375
H   H24       1.0  0.02070  0.98690  0.82680  1.0000 0.1312000375
H   H25       1.0  0.09270  0.09070  0.33830  1.0000 0.1376353026
H   H26       1.0  0.90930  0.90730  0.83830  1.0000 0.1376353026
H   H27       1.0  0.21250  0.07870  0.97070  1.0000 0.1376353026
H   H28       1.0  0.92130  0.78750  0.47070  1.0000 0.1376353026
H   H29       1.0  0.14260  0.14340  0.00650  1.0000 0.1312000375
H   H30       1.0  0.85660  0.85740  0.50650  1.0000 0.1312000375
H   H31       1.0  0.23010  0.14350  0.13290  1.0000 0.1312000375
H   H32       1.0  0.85650  0.76990  0.63290  1.0000 0.1312000375
C   C1        1.0  0.52610  0.33450  0.38510  1.0000 0.100442152
C   C2        1.0  0.66550  0.47390  0.88510  1.0000 0.100442152
C   C3        1.0  0.50300  0.41120  0.45940  1.0000 -0.1901973404
C   C4        1.0  0.58880  0.49700  0.95940  1.0000 -0.1901973404
C   C5        1.0  0.57400  0.50720  0.48020  1.0000 0.100442152
C   C6        1.0  0.49280  0.42600  0.98020  1.0000 0.100442152
C   C7        1.0  0.66980  0.52640  0.41860  1.0000 -0.2104288555
C   C8        1.0  0.47360  0.33020  0.91860  1.0000 -0.2104288555
C   C9        1.0  0.69660  0.45220  0.34250  1.0000 0.100442152
C   C10       1.0  0.54780  0.30340  0.84250  1.0000 0.100442152
C   C11       1.0  0.62490  0.35650  0.32710  1.0000 -0.2044179357
C   C12       1.0  0.64350  0.37510  0.82710  1.0000 -0.2044179357
C   C13       1.0  0.45220  0.23260  0.36720  1.0000 -0.0196808862
C   C14       1.0  0.76740  0.54780  0.86720  1.0000 -0.0196808862
C   C15       1.0  0.36760  0.05460  0.30000  1.0000 -0.1121159369
C   C16       1.0  0.94540  0.63240  0.80000  1.0000 -0.1121159369
C   C17       1.0  0.31760  0.08780  0.41470  1.0000 -0.1280761875
C   C18       1.0  0.91220  0.68240  0.91470  1.0000 -0.1280761875
C   C19       1.0  0.36510  0.18970  0.45170  1.0000 -0.1765572197
C   C20       1.0  0.81030  0.63490  0.95170  1.0000 -0.1765572197
C   C21       1.0  0.34050  0.95370  0.22900  1.0000 0.5875087165
C   C22       1.0  0.04630  0.65950  0.72900  1.0000 0.5875087165
C   C23       1.0  0.55110  0.58530  0.56830  1.0000 -0.0120966762
C   C24       1.0  0.41470  0.44890  0.06830  1.0000 -0.0120966762
C   C25       1.0  0.46570  0.68330  0.71670  1.0000 -0.115445017
C   C26       1.0  0.31670  0.53430  0.21670  1.0000 -0.1121159369
C   C27       1.0  0.56870  0.72390  0.72590  1.0000 -0.1121159369
C   C28       1.0  0.27610  0.43130  0.22590  1.0000 -0.1121159369
C   C29       1.0  0.61580  0.66700  0.63650  1.0000 -0.1681101389
C   C30       1.0  0.33300  0.38420  0.13650  1.0000 -0.1681101389
C   C31       1.0  0.39230  0.72030  0.79480  1.0000 0.5764839434
C   C32       1.0  0.27970  0.60770  0.29480  1.0000 0.5764839434
C   C33       1.0  0.79740  0.47320  0.27490  1.0000 -0.0196808862
C   C34       1.0  0.52680  0.20260  0.77490  1.0000 -0.0196808862
C   C35       1.0  0.97580  0.54980  0.19400  1.0000 -0.0949669398
C   C36       1.0  0.45020  0.02420  0.69400  1.0000 -0.0952161542
C   C37       1.0  0.92860  0.45960  0.12380  1.0000 -0.1121159369
C   C38       1.0  0.54040  0.07140  0.62380  1.0000 -0.1121159369
C   C39       1.0  0.82810  0.41550  0.16960  1.0000 -0.1681101389
C   C40       1.0  0.58450  0.17190  0.66960  1.0000 -0.1681101389
C   C41       1.0  0.07720  0.62140  0.15830  1.0000 0.5764839434
C   C42       1.0  0.37860  0.92280  0.65830  1.0000 0.5764839434
C   C43       1.0  0.10720  0.92580  0.11500  1.0000 0.2932061338
C   C44       1.0  0.07420  0.89280  0.61500  1.0000 0.2932061338
C   C45       1.0  0.04920  0.04020  0.26450  1.0000 -0.3503272749
C   C46       1.0  0.95980  0.95080  0.76450  1.0000 -0.3503272749
C   C47       1.0  0.17950  0.10270  0.05600  1.0000 -0.3503272749
C   C48       1.0  0.89730  0.82050  0.55600  1.0000 -0.3503272749
S   S1        1.0  0.47318  0.14936  0.23590  1.0000 0.1185929493
S   S2        1.0  0.85064  0.52682  0.73590  1.0000 0.1185929493
S   S3        1.0  0.42823  0.57633  0.59990  1.0000 0.1492941238
S   S4        1.0  0.42367  0.57177  0.09990  1.0000 0.1492941238
S   S5        1.0  0.89592  0.58136  0.32130  1.0000 0.1185929493
S   S6        1.0  0.41864  0.10408  0.82130  1.0000 0.1185929493
N   N1        1.0  0.10960  0.01680  0.14260  1.0000 0.0273995985
N   N2        1.0  0.98320  0.89040  0.64260  1.0000 0.0273995985
O   O1        1.0  0.26770  0.88330  0.29030  1.0000 -0.6525363393
O   O2        1.0  0.11670  0.73230  0.79030  1.0000 -0.6525363393
O   O3        1.0  0.38770  0.94070  0.10950  1.0000 -0.553273759
O   O4        1.0  0.05930  0.61230  0.60950  1.0000 -0.553273759
O   O5        1.0  0.42080  0.78180  0.90610  1.0000 -0.5316044308
O   O6        1.0  0.21820  0.57920  0.40610  1.0000 -0.5316044308
O   O7        1.0  0.30040  0.68460  0.74750  1.0000 -0.6525363393
O   O8        1.0  0.31540  0.69960  0.24750  1.0000 -0.6525363393
O   O9        1.0  0.12890  0.60150  0.05320  1.0000 -0.5247317172
O   O10       1.0  0.39850  0.87110  0.55320  1.0000 -0.5247317172
O   O11       1.0  0.10880  0.70420  0.23630  1.0000 -0.6637610413
O   O12       1.0  0.29580  0.89120  0.73630  1.0000 -0.6637610413
O   O13       1.0  0.15630  0.90350  0.00750  1.0000 -0.5055346407
O   O14       1.0  0.09650  0.84370  0.50750  1.0000 -0.5055346407
