# DDEC6 charges by PACMAN v1.1 (https://github.com/mtap-research/PACMAN-charge/)
data_2013[Zn][dia]3[FSR]5
_chemical_formula_sum              "Zn4 H24 C28 N24 O8"
_cell_length_a       11.4884
_cell_length_b       11.4884
_cell_length_c       9.9762
_cell_angle_alpha    72.9275
_cell_angle_beta     107.072
_cell_angle_gamma    89.5775

_symmetry_space_group_name_H-M    "P 1"
_symmetry_Int_Tables_number       1

loop_
  _symmetry_equiv_pos_as_xyz
  'x, y, z'

loop_
  _atom_site_type_symbol
  _atom_site_label
  _atom_site_symmetry_multiplicity
  _atom_site_fract_x
  _atom_site_fract_y
  _atom_site_fract_z
  _atom_site_occupancy
  _atom_site_charge
Zn  Zn1       1.0  0.11905  0.66419  0.64975  1.0000 0.6921073931
Zn  Zn2       1.0  0.33581  0.88095  0.14975  1.0000 0.6921073931
Zn  Zn3       1.0  0.66419  0.11905  0.85025  1.0000 0.6921073931
Zn  Zn4       1.0  0.88095  0.33581  0.35025  1.0000 0.6921073931
H   H1        1.0  0.33220  0.47520  0.83650  1.0000 0.11025074
H   H2        1.0  0.52480  0.66780  0.33650  1.0000 0.11025074
H   H3        1.0  0.37140  0.27260  0.97270  1.0000 0.1372297393
H   H4        1.0  0.72740  0.62860  0.47270  1.0000 0.1372297393
H   H5        1.0  0.01310  0.23790  0.82000  1.0000 0.1372297393
H   H6        1.0  0.76210  0.98690  0.32000  1.0000 0.1372297393
H   H7        1.0  0.98320  0.44100  0.68400  1.0000 0.11025074
H   H8        1.0  0.55900  0.01680  0.18400  1.0000 0.11025074
H   H9        1.0  0.19040  0.99100  0.33810  1.0000 0.3104938256
H   H10       1.0  0.00900  0.80960  0.83810  1.0000 0.3104938256
H   H11       1.0  0.13500  0.93340  0.45620  1.0000 0.3247850227
H   H12       1.0  0.06660  0.86500  0.95620  1.0000 0.3247850227
H   H13       1.0  0.47520  0.33220  0.66350  1.0000 0.11025074
H   H14       1.0  0.66780  0.52480  0.16350  1.0000 0.11025074
H   H15       1.0  0.27260  0.37140  0.52730  1.0000 0.1372297393
H   H16       1.0  0.62860  0.72740  0.02730  1.0000 0.1372297393
H   H17       1.0  0.23790  0.01310  0.68000  1.0000 0.1372297393
H   H18       1.0  0.98690  0.76210  0.18000  1.0000 0.1372297393
H   H19       1.0  0.44100  0.98320  0.81600  1.0000 0.11025074
H   H20       1.0  0.01680  0.55900  0.31600  1.0000 0.11025074
H   H21       1.0  0.99100  0.19040  0.16190  1.0000 0.3104938256
H   H22       1.0  0.80960  0.00900  0.66190  1.0000 0.3104938256
H   H23       1.0  0.93340  0.13500  0.04380  1.0000 0.3247850227
H   H24       1.0  0.86500  0.06660  0.54380  1.0000 0.3247850227
C   C1        1.0  0.26760  0.42680  0.83370  1.0000 0.0743157068
C   C2        1.0  0.57320  0.73240  0.33370  1.0000 0.0743157068
C   C3        1.0  0.29182  0.30562  0.91610  1.0000 -0.1444201333
C   C4        1.0  0.69438  0.70818  0.41610  1.0000 -0.1444201333
C   C5        1.0  0.19540  0.23300  0.91380  1.0000 0.0349267746
C   C6        1.0  0.76700  0.80460  0.41380  1.0000 0.0349267746
C   C7        1.0  0.07890  0.28490  0.82490  1.0000 -0.1453103138
C   C8        1.0  0.71510  0.92110  0.32490  1.0000 -0.1453103138
C   C9        1.0  0.06160  0.40680  0.74410  1.0000 0.0863146545
C   C10       1.0  0.59320  0.93840  0.24410  1.0000 0.0863146545
C   C11       1.0  0.21660  0.09960  0.00390  1.0000 0.5362094777
C   C12       1.0  0.90040  0.78340  0.50390  1.0000 0.5362094777
C   C13       1.0  0.20995  0.81495  0.39650  1.0000 0.4787321153
C   C14       1.0  0.18505  0.79005  0.89650  1.0000 0.4787321153
C   C15       1.0  0.42680  0.26760  0.66630  1.0000 0.0743157068
C   C16       1.0  0.73240  0.57320  0.16630  1.0000 0.0743157068
C   C17       1.0  0.30562  0.29182  0.58390  1.0000 -0.1444201333
C   C18       1.0  0.70818  0.69438  0.08390  1.0000 -0.1444201333
C   C19       1.0  0.23300  0.19540  0.58620  1.0000 0.0349267746
C   C20       1.0  0.80460  0.76700  0.08620  1.0000 0.0349267746
C   C21       1.0  0.28490  0.07890  0.67510  1.0000 -0.1453103138
C   C22       1.0  0.92110  0.71510  0.17510  1.0000 -0.1453103138
C   C23       1.0  0.40680  0.06160  0.75590  1.0000 0.0863146545
C   C24       1.0  0.93840  0.59320  0.25590  1.0000 0.0863146545
C   C25       1.0  0.09960  0.21660  0.49610  1.0000 0.5362094777
C   C26       1.0  0.78340  0.90040  0.99610  1.0000 0.5362094777
C   C27       1.0  0.81495  0.20995  0.10350  1.0000 0.4787321153
C   C28       1.0  0.79005  0.18505  0.60350  1.0000 0.4787321153
N   N1        1.0  0.15413  0.47861  0.74880  1.0000 -0.2137520624
N   N2        1.0  0.52139  0.84587  0.24880  1.0000 -0.2137520624
N   N3        1.0  0.19340  0.70888  0.48790  1.0000 -0.3416961593
N   N4        1.0  0.29112  0.80660  0.98790  1.0000 -0.3416961593
N   N5        1.0  0.24664  0.61812  0.45550  1.0000 -0.0753803713
N   N6        1.0  0.38188  0.75336  0.95550  1.0000 -0.0753803713
N   N7        1.0  0.29246  0.66614  0.35190  1.0000 -0.0852201315
N   N8        1.0  0.33386  0.70754  0.85190  1.0000 -0.0852201315
N   N9        1.0  0.27107  0.79153  0.31040  1.0000 -0.3556609912
N   N10       1.0  0.20847  0.72893  0.81040  1.0000 -0.3556609912
N   N11       1.0  0.17413  0.92653  0.39700  1.0000 -0.608542533
N   N12       1.0  0.07347  0.82587  0.89700  1.0000 -0.608542533
N   N13       1.0  0.47861  0.15413  0.75120  1.0000 -0.2137520624
N   N14       1.0  0.84587  0.52139  0.25120  1.0000 -0.2137520624
N   N15       1.0  0.70888  0.19340  0.01210  1.0000 -0.3416961593
N   N16       1.0  0.80660  0.29112  0.51210  1.0000 -0.3416961593
N   N17       1.0  0.61812  0.24664  0.04450  1.0000 -0.0753803713
N   N18       1.0  0.75336  0.38188  0.54450  1.0000 -0.0753803713
N   N19       1.0  0.66614  0.29246  0.14810  1.0000 -0.0852201315
N   N20       1.0  0.70754  0.33386  0.64810  1.0000 -0.0852201315
N   N21       1.0  0.79153  0.27107  0.18960  1.0000 -0.3556609912
N   N22       1.0  0.72893  0.20847  0.68960  1.0000 -0.3556609912
N   N23       1.0  0.92653  0.17413  0.10300  1.0000 -0.608542533
N   N24       1.0  0.82587  0.07347  0.60300  1.0000 -0.608542533
O   O1        1.0  0.32884  0.05866  0.07480  1.0000 -0.5314316166
O   O2        1.0  0.94134  0.67116  0.57480  1.0000 -0.5314316166
O   O3        1.0  0.12992  0.03754  0.00490  1.0000 -0.5314316166
O   O4        1.0  0.96246  0.87008  0.50490  1.0000 -0.5314316166
O   O5        1.0  0.05866  0.32884  0.42520  1.0000 -0.5314316166
O   O6        1.0  0.67116  0.94134  0.92520  1.0000 -0.5314316166
O   O7        1.0  0.03754  0.12992  0.49510  1.0000 -0.5314316166
O   O8        1.0  0.87008  0.96246  0.99510  1.0000 -0.5314316166
