# DDEC6 charges by PACMAN v1.1 (https://github.com/mtap-research/PACMAN-charge/)
data_2013[Cu][tbo]3[FSR]1
_chemical_formula_sum              "Cu12 H24 C72 S12 O48"
_cell_length_a       18.6434
_cell_length_b       18.6434
_cell_length_c       18.6434
_cell_angle_alpha    60
_cell_angle_beta     60
_cell_angle_gamma    60

_symmetry_space_group_name_H-M    "P 1"
_symmetry_Int_Tables_number       1

loop_
  _symmetry_equiv_pos_as_xyz
  'x, y, z'

loop_
  _atom_site_type_symbol
  _atom_site_label
  _atom_site_symmetry_multiplicity
  _atom_site_fract_x
  _atom_site_fract_y
  _atom_site_fract_z
  _atom_site_occupancy
  _atom_site_charge
Cu  Cu1       1.0  0.43018  0.56982  0.00000  1.0000 0.8348134159
Cu  Cu2       1.0  0.56982  0.43018  0.00000  1.0000 0.8359882532
Cu  Cu3       1.0  0.00000  0.00000  0.43018  1.0000 0.8348134159
Cu  Cu4       1.0  0.00000  0.00000  0.56982  1.0000 0.8348134159
Cu  Cu5       1.0  0.00000  0.43018  0.56982  1.0000 0.8359882532
Cu  Cu6       1.0  0.00000  0.56982  0.43018  1.0000 0.8348134159
Cu  Cu7       1.0  0.43018  0.00000  0.00000  1.0000 0.8359882532
Cu  Cu8       1.0  0.56982  0.00000  0.00000  1.0000 0.8359882532
Cu  Cu9       1.0  0.56982  0.00000  0.43018  1.0000 0.8359882532
Cu  Cu10      1.0  0.43018  0.00000  0.56982  1.0000 0.8359882532
Cu  Cu11      1.0  0.00000  0.43018  0.00000  1.0000 0.8359882532
Cu  Cu12      1.0  0.00000  0.56982  0.00000  1.0000 0.8359882532
H   H1        1.0  0.72980  0.51420  0.72980  1.0000 0.1549521683
H   H2        1.0  0.51420  0.72980  0.02620  1.0000 0.1553133427
H   H3        1.0  0.72980  0.02620  0.72980  1.0000 0.1549521683
H   H4        1.0  0.02620  0.72980  0.51420  1.0000 0.1553133427
H   H5        1.0  0.72980  0.72980  0.51420  1.0000 0.1553133427
H   H6        1.0  0.02620  0.51420  0.72980  1.0000 0.1553133427
H   H7        1.0  0.72980  0.72980  0.02620  1.0000 0.1553133427
H   H8        1.0  0.51420  0.02620  0.72980  1.0000 0.1549521683
H   H9        1.0  0.51420  0.72980  0.72980  1.0000 0.1549521683
H   H10       1.0  0.72980  0.02620  0.51420  1.0000 0.1549521683
H   H11       1.0  0.02620  0.72980  0.72980  1.0000 0.1553133427
H   H12       1.0  0.72980  0.51420  0.02620  1.0000 0.1549521683
H   H13       1.0  0.27020  0.48580  0.97380  1.0000 0.1553133427
H   H14       1.0  0.48580  0.27020  0.27020  1.0000 0.1549521683
H   H15       1.0  0.27020  0.97380  0.48580  1.0000 0.1549521683
H   H16       1.0  0.97380  0.27020  0.27020  1.0000 0.1549521683
H   H17       1.0  0.27020  0.27020  0.97380  1.0000 0.1549521683
H   H18       1.0  0.97380  0.48580  0.27020  1.0000 0.1549521683
H   H19       1.0  0.27020  0.27020  0.48580  1.0000 0.1549521683
H   H20       1.0  0.48580  0.97380  0.27020  1.0000 0.1553133427
H   H21       1.0  0.48580  0.27020  0.97380  1.0000 0.1549521683
H   H22       1.0  0.27020  0.97380  0.27020  1.0000 0.1553133427
H   H23       1.0  0.97380  0.27020  0.48580  1.0000 0.1549521683
H   H24       1.0  0.27020  0.48580  0.27020  1.0000 0.1553133427
C   C1        1.0  0.56920  0.56920  0.83900  1.0000 0.5857830369
C   C2        1.0  0.56920  0.56920  0.02260  1.0000 0.5857830369
C   C3        1.0  0.83900  0.02260  0.56920  1.0000 0.5857830369
C   C4        1.0  0.02260  0.83900  0.56920  1.0000 0.5857830369
C   C5        1.0  0.83900  0.56920  0.56920  1.0000 0.5857830369
C   C6        1.0  0.02260  0.56920  0.56920  1.0000 0.5857830369
C   C7        1.0  0.56920  0.83900  0.02260  1.0000 0.5857830369
C   C8        1.0  0.56920  0.02260  0.83900  1.0000 0.5857830369
C   C9        1.0  0.56920  0.83900  0.56920  1.0000 0.5857830369
C   C10       1.0  0.56920  0.02260  0.56920  1.0000 0.5857830369
C   C11       1.0  0.02260  0.56920  0.83900  1.0000 0.5857830369
C   C12       1.0  0.83900  0.56920  0.02260  1.0000 0.5857830369
C   C13       1.0  0.43080  0.43080  0.97740  1.0000 0.5857830369
C   C14       1.0  0.43080  0.43080  0.16100  1.0000 0.5857830369
C   C15       1.0  0.16100  0.97740  0.43080  1.0000 0.5857830369
C   C16       1.0  0.97740  0.16100  0.43080  1.0000 0.5857830369
C   C17       1.0  0.16100  0.43080  0.97740  1.0000 0.5857830369
C   C18       1.0  0.97740  0.43080  0.16100  1.0000 0.5857830369
C   C19       1.0  0.43080  0.16100  0.43080  1.0000 0.5857830369
C   C20       1.0  0.43080  0.97740  0.43080  1.0000 0.5857830369
C   C21       1.0  0.43080  0.16100  0.97740  1.0000 0.5857830369
C   C22       1.0  0.43080  0.97740  0.16100  1.0000 0.5857830369
C   C23       1.0  0.97740  0.43080  0.43080  1.0000 0.5857830369
C   C24       1.0  0.16100  0.43080  0.43080  1.0000 0.5857830369
C   C25       1.0  0.61410  0.61410  0.74270  1.0000 -0.0007406274
C   C26       1.0  0.61410  0.61410  0.02910  1.0000 -0.0007406274
C   C27       1.0  0.74270  0.02910  0.61410  1.0000 -0.0007406274
C   C28       1.0  0.02910  0.74270  0.61410  1.0000 -0.0007406274
C   C29       1.0  0.74270  0.61410  0.61410  1.0000 -0.0007406274
C   C30       1.0  0.02910  0.61410  0.61410  1.0000 -0.0007406274
C   C31       1.0  0.61410  0.74270  0.02910  1.0000 -0.0007406274
C   C32       1.0  0.61410  0.02910  0.74270  1.0000 -0.0007406274
C   C33       1.0  0.61410  0.74270  0.61410  1.0000 -0.0007406274
C   C34       1.0  0.61410  0.02910  0.61410  1.0000 -0.0007406274
C   C35       1.0  0.02910  0.61410  0.74270  1.0000 -0.0007406274
C   C36       1.0  0.74270  0.61410  0.02910  1.0000 -0.0007406274
C   C37       1.0  0.38590  0.38590  0.97090  1.0000 -0.0007406274
C   C38       1.0  0.38590  0.38590  0.25730  1.0000 -0.0007406274
C   C39       1.0  0.25730  0.97090  0.38590  1.0000 -0.0007406274
C   C40       1.0  0.97090  0.25730  0.38590  1.0000 -0.0007406274
C   C41       1.0  0.25730  0.38590  0.97090  1.0000 -0.0007406274
C   C42       1.0  0.97090  0.38590  0.25730  1.0000 0.000209892
C   C43       1.0  0.38590  0.25730  0.38590  1.0000 -0.0007406274
C   C44       1.0  0.38590  0.97090  0.38590  1.0000 -0.0007406274
C   C45       1.0  0.38590  0.25730  0.97090  1.0000 -0.0007406274
C   C46       1.0  0.38590  0.97090  0.25730  1.0000 -0.0007406274
C   C47       1.0  0.97090  0.38590  0.38590  1.0000 -0.0007406274
C   C48       1.0  0.25730  0.38590  0.38590  1.0000 -0.0007406274
C   C49       1.0  0.70040  0.57120  0.70040  1.0000 -0.0767316621
C   C50       1.0  0.57120  0.70040  0.02800  1.0000 -0.0767316621
C   C51       1.0  0.70040  0.02800  0.70040  1.0000 -0.0767316621
C   C52       1.0  0.02800  0.70040  0.57120  1.0000 -0.0767316621
C   C53       1.0  0.70040  0.70040  0.57120  1.0000 -0.0767316621
C   C54       1.0  0.02800  0.57120  0.70040  1.0000 -0.0767316621
C   C55       1.0  0.70040  0.70040  0.02800  1.0000 -0.0767316621
C   C56       1.0  0.57120  0.02800  0.70040  1.0000 -0.0767316621
C   C57       1.0  0.57120  0.70040  0.70040  1.0000 -0.0767316621
C   C58       1.0  0.70040  0.02800  0.57120  1.0000 -0.0767316621
C   C59       1.0  0.02800  0.70040  0.70040  1.0000 -0.0767316621
C   C60       1.0  0.70040  0.57120  0.02800  1.0000 -0.0767316621
C   C61       1.0  0.29960  0.42880  0.97200  1.0000 -0.0767316621
C   C62       1.0  0.42880  0.29960  0.29960  1.0000 -0.0767316621
C   C63       1.0  0.29960  0.97200  0.42880  1.0000 -0.0767316621
C   C64       1.0  0.97200  0.29960  0.29960  1.0000 -0.0767316621
C   C65       1.0  0.29960  0.29960  0.97200  1.0000 -0.0767316621
C   C66       1.0  0.97200  0.42880  0.29960  1.0000 -0.0767316621
C   C67       1.0  0.29960  0.29960  0.42880  1.0000 -0.0767316621
C   C68       1.0  0.42880  0.97200  0.29960  1.0000 -0.0767316621
C   C69       1.0  0.42880  0.29960  0.97200  1.0000 -0.0767316621
C   C70       1.0  0.29960  0.97200  0.29960  1.0000 -0.0767316621
C   C71       1.0  0.97200  0.29960  0.42880  1.0000 -0.0767316621
C   C72       1.0  0.29960  0.42880  0.29960  1.0000 -0.0767316621
S   S1        1.0  0.30820  0.69180  0.00000  1.0000 -0.2194422607
S   S2        1.0  0.69180  0.30820  0.00000  1.0000 -0.2194422607
S   S3        1.0  0.00000  0.00000  0.30820  1.0000 -0.2194422607
S   S4        1.0  0.00000  0.00000  0.69180  1.0000 -0.2194422607
S   S5        1.0  0.00000  0.30820  0.69180  1.0000 -0.2194422607
S   S6        1.0  0.00000  0.69180  0.30820  1.0000 -0.2194422607
S   S7        1.0  0.30820  0.00000  0.00000  1.0000 -0.2145442368
S   S8        1.0  0.69180  0.00000  0.00000  1.0000 -0.2194422607
S   S9        1.0  0.69180  0.00000  0.30820  1.0000 -0.2194422607
S   S10       1.0  0.30820  0.00000  0.69180  1.0000 -0.2194422607
S   S11       1.0  0.00000  0.30820  0.00000  1.0000 -0.2194422607
S   S12       1.0  0.00000  0.69180  0.00000  1.0000 -0.2194422607
O   O1        1.0  0.49222  0.61288  0.87420  1.0000 -0.4858964398
O   O2        1.0  0.61288  0.49222  0.02070  1.0000 -0.4858964398
O   O3        1.0  0.87420  0.02070  0.49222  1.0000 -0.4858964398
O   O4        1.0  0.02070  0.87420  0.61288  1.0000 -0.4858964398
O   O5        1.0  0.87420  0.49222  0.61288  1.0000 -0.4858964398
O   O6        1.0  0.02070  0.61288  0.49222  1.0000 -0.4858964398
O   O7        1.0  0.49222  0.87420  0.02070  1.0000 -0.4858964398
O   O8        1.0  0.61288  0.02070  0.87420  1.0000 -0.4858964398
O   O9        1.0  0.61288  0.87420  0.49222  1.0000 -0.4858964398
O   O10       1.0  0.49222  0.02070  0.61288  1.0000 -0.4858964398
O   O11       1.0  0.02070  0.49222  0.87420  1.0000 -0.4858964398
O   O12       1.0  0.87420  0.61288  0.02070  1.0000 -0.4858964398
O   O13       1.0  0.50778  0.38712  0.97930  1.0000 -0.4858964398
O   O14       1.0  0.38712  0.50778  0.12580  1.0000 -0.4858964398
O   O15       1.0  0.12580  0.97930  0.38712  1.0000 -0.4858964398
O   O16       1.0  0.97930  0.12580  0.50778  1.0000 -0.4858964398
O   O17       1.0  0.12580  0.50778  0.97930  1.0000 -0.4858964398
O   O18       1.0  0.97930  0.38712  0.12580  1.0000 -0.4844901563
O   O19       1.0  0.50778  0.12580  0.38712  1.0000 -0.4858964398
O   O20       1.0  0.38712  0.97930  0.50778  1.0000 -0.4858964398
O   O21       1.0  0.38712  0.12580  0.97930  1.0000 -0.4858964398
O   O22       1.0  0.50778  0.97930  0.12580  1.0000 -0.4858964398
O   O23       1.0  0.97930  0.50778  0.38712  1.0000 -0.4858964398
O   O24       1.0  0.12580  0.38712  0.50778  1.0000 -0.4858964398
O   O25       1.0  0.50778  0.38712  0.12580  1.0000 -0.4858964398
O   O26       1.0  0.38712  0.50778  0.97930  1.0000 -0.4858964398
O   O27       1.0  0.12580  0.97930  0.50778  1.0000 -0.4858964398
O   O28       1.0  0.97930  0.12580  0.38712  1.0000 -0.4858964398
O   O29       1.0  0.12580  0.50778  0.38712  1.0000 -0.4858964398
O   O30       1.0  0.97930  0.38712  0.50778  1.0000 -0.4858964398
O   O31       1.0  0.50778  0.12580  0.97930  1.0000 -0.4858964398
O   O32       1.0  0.38712  0.97930  0.12580  1.0000 -0.4858964398
O   O33       1.0  0.38712  0.12580  0.50778  1.0000 -0.4858964398
O   O34       1.0  0.50778  0.97930  0.38712  1.0000 -0.4858964398
O   O35       1.0  0.97930  0.50778  0.12580  1.0000 -0.4858964398
O   O36       1.0  0.12580  0.38712  0.97930  1.0000 -0.4858964398
O   O37       1.0  0.49222  0.61288  0.02070  1.0000 -0.4858964398
O   O38       1.0  0.61288  0.49222  0.87420  1.0000 -0.4858964398
O   O39       1.0  0.87420  0.02070  0.61288  1.0000 -0.4858964398
O   O40       1.0  0.02070  0.87420  0.49222  1.0000 -0.4858964398
O   O41       1.0  0.87420  0.49222  0.02070  1.0000 -0.4858964398
O   O42       1.0  0.02070  0.61288  0.87420  1.0000 -0.4858964398
O   O43       1.0  0.49222  0.87420  0.61288  1.0000 -0.4858964398
O   O44       1.0  0.61288  0.02070  0.49222  1.0000 -0.4858964398
O   O45       1.0  0.61288  0.87420  0.02070  1.0000 -0.4858964398
O   O46       1.0  0.49222  0.02070  0.87420  1.0000 -0.4858964398
O   O47       1.0  0.02070  0.49222  0.61288  1.0000 -0.4858964398
O   O48       1.0  0.87420  0.61288  0.49222  1.0000 -0.4858964398
