# DDEC6 charges by PACMAN v1.1 (https://github.com/mtap-research/PACMAN-charge/)
data_2013[Sm][pts]3[FSR]1
_chemical_formula_sum              "Sm4 H24 C30 N12 O32"
_cell_length_a       10.5017
_cell_length_b       10.5017
_cell_length_c       14.8076
_cell_angle_alpha    89.1223
_cell_angle_beta     90.8777
_cell_angle_gamma    74.3911

_symmetry_space_group_name_H-M    "P 1"
_symmetry_Int_Tables_number       1

loop_
  _symmetry_equiv_pos_as_xyz
  'x, y, z'

loop_
  _atom_site_type_symbol
  _atom_site_label
  _atom_site_symmetry_multiplicity
  _atom_site_fract_x
  _atom_site_fract_y
  _atom_site_fract_z
  _atom_site_occupancy
  _atom_site_charge
Sm  Sm1       1.0  0.42474  0.17854  0.94465  1.0000 2.0654012506
Sm  Sm2       1.0  0.17854  0.42474  0.55535  1.0000 2.0654012506
Sm  Sm3       1.0  0.57526  0.82146  0.05535  1.0000 2.0654012506
Sm  Sm4       1.0  0.82146  0.57526  0.44465  1.0000 2.0654012506
H   H1        1.0  0.54180  0.32520  0.65990  1.0000 0.1587865186
H   H2        1.0  0.32520  0.54180  0.84010  1.0000 0.1587865186
H   H3        1.0  0.45820  0.67480  0.34010  1.0000 0.1587865186
H   H4        1.0  0.67480  0.45820  0.15990  1.0000 0.1587865186
H   H5        1.0  0.65790  0.19650  0.67300  1.0000 0.1395438855
H   H6        1.0  0.19650  0.65790  0.82700  1.0000 0.1395438855
H   H7        1.0  0.34210  0.80350  0.32700  1.0000 0.1395438855
H   H8        1.0  0.80350  0.34210  0.17300  1.0000 0.1395438855
H   H9        1.0  0.79080  0.94620  0.78690  1.0000 0.1587865186
H   H10       1.0  0.94620  0.79080  0.71310  1.0000 0.1587865186
H   H11       1.0  0.20920  0.05380  0.21310  1.0000 0.1587865186
H   H12       1.0  0.05380  0.20920  0.28690  1.0000 0.1587865186
H   H13       1.0  0.64620  0.95100  0.75520  1.0000 0.1587865186
H   H14       1.0  0.95100  0.64620  0.74480  1.0000 0.1587865186
H   H15       1.0  0.35380  0.04900  0.24480  1.0000 0.1587865186
H   H16       1.0  0.04900  0.35380  0.25520  1.0000 0.1587865186
H   H17       1.0  0.89080  0.32460  0.75400  1.0000 0.1587865186
H   H18       1.0  0.32460  0.89080  0.74600  1.0000 0.1587865186
H   H19       1.0  0.10920  0.67540  0.24600  1.0000 0.1587865186
H   H20       1.0  0.67540  0.10920  0.25400  1.0000 0.1587865186
H   H21       1.0  0.86250  0.20550  0.70280  1.0000 0.1458850895
H   H22       1.0  0.20550  0.86250  0.79720  1.0000 0.1458850895
H   H23       1.0  0.13750  0.79450  0.29720  1.0000 0.1458850895
H   H24       1.0  0.79450  0.13750  0.20280  1.0000 0.1458850895
C   C1        1.0  0.55200  0.24680  0.78710  1.0000 0.5869823043
C   C2        1.0  0.24680  0.55200  0.71290  1.0000 0.5869823043
C   C3        1.0  0.44800  0.75320  0.21290  1.0000 0.5869823043
C   C4        1.0  0.75320  0.44800  0.28710  1.0000 0.5869823043
C   C5        1.0  0.61230  0.27870  0.70100  1.0000 -0.2330183721
C   C6        1.0  0.27870  0.61230  0.79900  1.0000 -0.2330183721
C   C7        1.0  0.38770  0.72130  0.29900  1.0000 -0.2330183721
C   C8        1.0  0.72130  0.38770  0.20100  1.0000 -0.2330183721
C   C9        1.0  0.68440  0.88800  0.88740  1.0000 0.6577371602
C   C10       1.0  0.88800  0.68440  0.61260  1.0000 0.6577371602
C   C11       1.0  0.31560  0.11200  0.11260  1.0000 0.6577371602
C   C12       1.0  0.11200  0.31560  0.38740  1.0000 0.6577371602
C   C13       1.0  0.72260  0.89980  0.78970  1.0000 -0.2330183721
C   C14       1.0  0.89980  0.72260  0.71030  1.0000 -0.2330183721
C   C15       1.0  0.27740  0.10020  0.21030  1.0000 -0.2330183721
C   C16       1.0  0.10020  0.27740  0.28970  1.0000 -0.2330183721
C   C17       1.0  0.90140  0.34480  0.61600  1.0000 0.6972619241
C   C18       1.0  0.34480  0.90140  0.88400  1.0000 0.6972619241
C   C19       1.0  0.09860  0.65520  0.38400  1.0000 0.6972619241
C   C20       1.0  0.65520  0.09860  0.11600  1.0000 0.6972619241
C   C21       1.0  0.84470  0.30110  0.70230  1.0000 -0.2381547446
C   C22       1.0  0.30110  0.84470  0.79770  1.0000 -0.2381547446
C   C23       1.0  0.15530  0.69890  0.29770  1.0000 -0.2381547446
C   C24       1.0  0.69890  0.15530  0.20230  1.0000 -0.2381547446
C   C25       1.0  0.65840  0.48800  0.73200  1.0000 0.4888353591
C   C26       1.0  0.48800  0.65840  0.76800  1.0000 0.4888353591
C   C27       1.0  0.34160  0.51200  0.26800  1.0000 0.4888353591
C   C28       1.0  0.51200  0.34160  0.23200  1.0000 0.4888353591
C   C29       1.0  0.68890  0.68890  0.75000  1.0000 0.469124863
C   C30       1.0  0.31110  0.31110  0.25000  1.0000 0.469124863
N   N1        1.0  0.70410  0.35790  0.71270  1.0000 -0.0721551446
N   N2        1.0  0.35790  0.70410  0.78730  1.0000 -0.0721551446
N   N3        1.0  0.29590  0.64210  0.28730  1.0000 -0.0721551446
N   N4        1.0  0.64210  0.29590  0.21270  1.0000 -0.0721551446
N   N5        1.0  0.77070  0.77070  0.75000  1.0000 -0.0721551446
N   N6        1.0  0.22930  0.22930  0.25000  1.0000 -0.0721551446
N   N7        1.0  0.52900  0.52900  0.75000  1.0000 -0.4895488079
N   N8        1.0  0.47100  0.47100  0.25000  1.0000 -0.4895488079
N   N9        1.0  0.74430  0.56170  0.73210  1.0000 -0.5029890294
N   N10       1.0  0.56170  0.74430  0.76790  1.0000 -0.5029890294
N   N11       1.0  0.25570  0.43830  0.26790  1.0000 -0.5029890294
N   N12       1.0  0.43830  0.25570  0.23210  1.0000 -0.5029890294
O   O1        1.0  0.60160  0.25540  0.86380  1.0000 -0.5820064599
O   O2        1.0  0.25540  0.60160  0.63620  1.0000 -0.5820064599
O   O3        1.0  0.39840  0.74460  0.13620  1.0000 -0.5820064599
O   O4        1.0  0.74460  0.39840  0.36380  1.0000 -0.5820064599
O   O5        1.0  0.44850  0.20570  0.78060  1.0000 -0.5344575549
O   O6        1.0  0.20570  0.44850  0.71940  1.0000 -0.5344575549
O   O7        1.0  0.55150  0.79430  0.21940  1.0000 -0.5344575549
O   O8        1.0  0.79430  0.55150  0.28060  1.0000 -0.5344575549
O   O9        1.0  0.74470  0.78970  0.93550  1.0000 -0.5549143012
O   O10       1.0  0.78970  0.74470  0.56450  1.0000 -0.5549143012
O   O11       1.0  0.25530  0.21030  0.06450  1.0000 -0.5549143012
O   O12       1.0  0.21030  0.25530  0.43550  1.0000 -0.5549143012
O   O13       1.0  0.59020  0.97600  0.92030  1.0000 -0.7361931856
O   O14       1.0  0.97600  0.59020  0.57970  1.0000 -0.7361931856
O   O15       1.0  0.40980  0.02400  0.07970  1.0000 -0.7361931856
O   O16       1.0  0.02400  0.40980  0.42030  1.0000 -0.7361931856
O   O17       1.0  0.82310  0.40570  0.55620  1.0000 -0.5884735937
O   O18       1.0  0.40570  0.82310  0.94380  1.0000 -0.5884735937
O   O19       1.0  0.17690  0.59430  0.44380  1.0000 -0.5884735937
O   O20       1.0  0.59430  0.17690  0.05620  1.0000 -0.5884735937
O   O21       1.0  0.02560  0.31420  0.61450  1.0000 -0.631027406
O   O22       1.0  0.31420  0.02560  0.88550  1.0000 -0.631027406
O   O23       1.0  0.97440  0.68580  0.38550  1.0000 -0.631027406
O   O24       1.0  0.68580  0.97440  0.11450  1.0000 -0.631027406
O   O25       1.0  0.41270  0.40190  0.00030  1.0000 -0.2140347416
O   O26       1.0  0.40190  0.41270  0.49970  1.0000 -0.2140347416
O   O27       1.0  0.58730  0.59810  0.99970  1.0000 -0.2166591565
O   O28       1.0  0.59810  0.58730  0.50030  1.0000 -0.2166591565
O   O29       1.0  0.22230  0.32230  0.87940  1.0000 -0.2487483899
O   O30       1.0  0.32230  0.22230  0.62060  1.0000 -0.2487483899
O   O31       1.0  0.77770  0.67770  0.12060  1.0000 -0.2487483899
O   O32       1.0  0.67770  0.77770  0.37940  1.0000 -0.2487483899
