# DDEC6 charges by PACMAN v1.1 (https://github.com/mtap-research/PACMAN-charge/)
data_2013[CdSi][pcu]3[FSR]1
_chemical_formula_sum              "Cd2 Si2 H56 C40 N16 F12"
_cell_length_a       10.3534
_cell_length_b       10.3534
_cell_length_c       15.877
_cell_angle_alpha    89.9689
_cell_angle_beta     90.0311
_cell_angle_gamma    82.7504

_symmetry_space_group_name_H-M    "P 1"
_symmetry_Int_Tables_number       1

loop_
  _symmetry_equiv_pos_as_xyz
  'x, y, z'

loop_
  _atom_site_type_symbol
  _atom_site_label
  _atom_site_symmetry_multiplicity
  _atom_site_fract_x
  _atom_site_fract_y
  _atom_site_fract_z
  _atom_site_occupancy
  _atom_site_charge
Cd  Cd1       1.0  0.01605  0.01605  0.25000  1.0000 0.8585939792
Cd  Cd2       1.0  0.98395  0.98395  0.75000  1.0000 0.8585939792
Si  Si1       1.0  0.00000  0.00000  0.00000  1.0000 1.6845305649
Si  Si2       1.0  0.00000  0.00000  0.50000  1.0000 1.6845305649
H   H1        1.0  0.81720  0.90460  0.12100  1.0000 0.3012388696
H   H2        1.0  0.90460  0.81720  0.37900  1.0000 0.3012388696
H   H3        1.0  0.18280  0.09540  0.87900  1.0000 0.3012388696
H   H4        1.0  0.09540  0.18280  0.62100  1.0000 0.3012388696
H   H5        1.0  0.23970  0.91510  0.38840  1.0000 0.3012388696
H   H6        1.0  0.91510  0.23970  0.11160  1.0000 0.3012388696
H   H7        1.0  0.76030  0.08490  0.61160  1.0000 0.3012388696
H   H8        1.0  0.08490  0.76030  0.88840  1.0000 0.3012388696
H   H9        1.0  0.74120  0.18480  0.34040  1.0000 0.1578414675
H   H10       1.0  0.18480  0.74120  0.15960  1.0000 0.1578414675
H   H11       1.0  0.25880  0.81520  0.65960  1.0000 0.1578414675
H   H12       1.0  0.81520  0.25880  0.84040  1.0000 0.1578414675
H   H13       1.0  0.59600  0.15860  0.35750  1.0000 0.1514728863
H   H14       1.0  0.15860  0.59600  0.14250  1.0000 0.1514728863
H   H15       1.0  0.40400  0.84140  0.64250  1.0000 0.1514728863
H   H16       1.0  0.84140  0.40400  0.85750  1.0000 0.1514728863
H   H17       1.0  0.71360  0.06500  0.39670  1.0000 0.1578414675
H   H18       1.0  0.06500  0.71360  0.10330  1.0000 0.1578414675
H   H19       1.0  0.28640  0.93500  0.60330  1.0000 0.1578414675
H   H20       1.0  0.93500  0.28640  0.89670  1.0000 0.1578414675
H   H21       1.0  0.64280  0.75080  0.08890  1.0000 0.1514728863
H   H22       1.0  0.75080  0.64280  0.41110  1.0000 0.1514728863
H   H23       1.0  0.35720  0.24920  0.91110  1.0000 0.1514728863
H   H24       1.0  0.24920  0.35720  0.58890  1.0000 0.1514728863
H   H25       1.0  0.50110  0.80330  0.12110  1.0000 0.1514728863
H   H26       1.0  0.80330  0.50110  0.37890  1.0000 0.1514728863
H   H27       1.0  0.49890  0.19670  0.87890  1.0000 0.1514728863
H   H28       1.0  0.19670  0.49890  0.62110  1.0000 0.1514728863
H   H29       1.0  0.56730  0.87950  0.04990  1.0000 0.1578414675
H   H30       1.0  0.87950  0.56730  0.45010  1.0000 0.1578414675
H   H31       1.0  0.43270  0.12050  0.95010  1.0000 0.1578414675
H   H32       1.0  0.12050  0.43270  0.54990  1.0000 0.1578414675
H   H33       1.0  0.24600  0.14820  0.14610  1.0000 0.1514728863
H   H34       1.0  0.14820  0.24600  0.35390  1.0000 0.1514728863
H   H35       1.0  0.75400  0.85180  0.85390  1.0000 0.1514728863
H   H36       1.0  0.85180  0.75400  0.64610  1.0000 0.1514728863
H   H37       1.0  0.39750  0.11770  0.12910  1.0000 0.1514728863
H   H38       1.0  0.11770  0.39750  0.37090  1.0000 0.1514728863
H   H39       1.0  0.60250  0.88230  0.87090  1.0000 0.1514728863
H   H40       1.0  0.88230  0.60250  0.62910  1.0000 0.1514728863
H   H41       1.0  0.30300  0.01620  0.10180  1.0000 0.1578414675
H   H42       1.0  0.01620  0.30300  0.39820  1.0000 0.1578414675
H   H43       1.0  0.69700  0.98380  0.89820  1.0000 0.1578414675
H   H44       1.0  0.98380  0.69700  0.60180  1.0000 0.1578414675
H   H45       1.0  0.50380  0.91820  0.46090  1.0000 0.1514728863
H   H46       1.0  0.91820  0.50380  0.03910  1.0000 0.1514728863
H   H47       1.0  0.49620  0.08180  0.53910  1.0000 0.1514728863
H   H48       1.0  0.08180  0.49620  0.96090  1.0000 0.1514728863
H   H49       1.0  0.45070  0.78590  0.43760  1.0000 0.1578414675
H   H50       1.0  0.78590  0.45070  0.06240  1.0000 0.1578414675
H   H51       1.0  0.54930  0.21410  0.56240  1.0000 0.1578414675
H   H52       1.0  0.21410  0.54930  0.93760  1.0000 0.1578414675
H   H53       1.0  0.58030  0.82150  0.39550  1.0000 0.1514728863
H   H54       1.0  0.82150  0.58030  0.10450  1.0000 0.1514728863
H   H55       1.0  0.41970  0.17850  0.60450  1.0000 0.1514728863
H   H56       1.0  0.17850  0.41970  0.89550  1.0000 0.1514728863
C   C1        1.0  0.68460  0.11800  0.34830  1.0000 -0.4864365339
C   C2        1.0  0.11800  0.68460  0.15170  1.0000 -0.4864365339
C   C3        1.0  0.31540  0.88200  0.65170  1.0000 -0.4864365339
C   C4        1.0  0.88200  0.31540  0.84830  1.0000 -0.4864365339
C   C5        1.0  0.68890  0.03410  0.27140  1.0000 0.2171140697
C   C6        1.0  0.03410  0.68890  0.22860  1.0000 0.2171140697
C   C7        1.0  0.31110  0.96590  0.72860  1.0000 0.2171140697
C   C8        1.0  0.96590  0.31110  0.77140  1.0000 0.2171140697
C   C9        1.0  0.58790  0.96870  0.23790  1.0000 -0.1219715278
C   C10       1.0  0.96870  0.58790  0.26210  1.0000 -0.1219715278
C   C11       1.0  0.41210  0.03130  0.76210  1.0000 -0.1219715278
C   C12       1.0  0.03130  0.41210  0.73790  1.0000 -0.1219715278
C   C13       1.0  0.63990  0.90710  0.16650  1.0000 0.1921998218
C   C14       1.0  0.90710  0.63990  0.33350  1.0000 0.1921998218
C   C15       1.0  0.36010  0.09290  0.83350  1.0000 0.1921998218
C   C16       1.0  0.09290  0.36010  0.66650  1.0000 0.1921998218
C   C17       1.0  0.58280  0.82820  0.10090  1.0000 -0.4814034657
C   C18       1.0  0.82820  0.58280  0.39910  1.0000 -0.4814034657
C   C19       1.0  0.41720  0.17180  0.89910  1.0000 -0.4814034657
C   C20       1.0  0.17180  0.41720  0.60090  1.0000 -0.4814034657
C   C21       1.0  0.31940  0.08000  0.14390  1.0000 -0.4864365339
C   C22       1.0  0.08000  0.31940  0.35610  1.0000 -0.4864365339
C   C23       1.0  0.68060  0.92000  0.85610  1.0000 -0.4864365339
C   C24       1.0  0.92000  0.68060  0.64390  1.0000 -0.4814034657
C   C25       1.0  0.33700  0.01600  0.22750  1.0000 0.2110054244
C   C26       1.0  0.01600  0.33700  0.27250  1.0000 0.2110054244
C   C27       1.0  0.66300  0.98400  0.77250  1.0000 0.2110054244
C   C28       1.0  0.98400  0.66300  0.72750  1.0000 0.2110054244
C   C29       1.0  0.45370  0.96870  0.26980  1.0000 -0.1219715278
C   C30       1.0  0.96870  0.45370  0.23020  1.0000 -0.1219715278
C   C31       1.0  0.54630  0.03130  0.73020  1.0000 -0.1219715278
C   C32       1.0  0.03130  0.54630  0.76980  1.0000 -0.1219715278
C   C33       1.0  0.41670  0.92330  0.34560  1.0000 0.1921998218
C   C34       1.0  0.92330  0.41670  0.15440  1.0000 0.1921998218
C   C35       1.0  0.58330  0.07670  0.65440  1.0000 0.1921998218
C   C36       1.0  0.07670  0.58330  0.84560  1.0000 0.1921998218
C   C37       1.0  0.49470  0.85630  0.41610  1.0000 -0.4864365339
C   C38       1.0  0.85630  0.49470  0.08390  1.0000 -0.4814034657
C   C39       1.0  0.50530  0.14370  0.58390  1.0000 -0.4864365339
C   C40       1.0  0.14370  0.50530  0.91610  1.0000 -0.4814034657
N   N1        1.0  0.79447  0.01187  0.22400  1.0000 -0.2624933373
N   N2        1.0  0.01187  0.79447  0.27600  1.0000 -0.2624933373
N   N3        1.0  0.20553  0.98813  0.77600  1.0000 -0.2624933373
N   N4        1.0  0.98813  0.20553  0.72400  1.0000 -0.2624933373
N   N5        1.0  0.76357  0.93397  0.16070  1.0000 -0.1406093563
N   N6        1.0  0.93397  0.76357  0.33930  1.0000 -0.1406093563
N   N7        1.0  0.23643  0.06603  0.83930  1.0000 -0.1406093563
N   N8        1.0  0.06603  0.23643  0.66070  1.0000 -0.1406093563
N   N9        1.0  0.23520  0.99620  0.27546  1.0000 -0.2624933373
N   N10       1.0  0.99620  0.23520  0.22454  1.0000 -0.2624933373
N   N11       1.0  0.76480  0.00380  0.72454  1.0000 -0.2624933373
N   N12       1.0  0.00380  0.76480  0.77546  1.0000 -0.2624933373
N   N13       1.0  0.28600  0.93900  0.34680  1.0000 -0.1345955718
N   N14       1.0  0.93900  0.28600  0.15320  1.0000 -0.1345955718
N   N15       1.0  0.71400  0.06100  0.65320  1.0000 -0.1345955718
N   N16       1.0  0.06100  0.71400  0.84680  1.0000 -0.1345955718
F   F1        1.0  0.03873  0.98771  0.10433  1.0000 -0.5183345887
F   F2        1.0  0.98771  0.03873  0.39567  1.0000 -0.5183345887
F   F3        1.0  0.96127  0.01229  0.89567  1.0000 -0.5183345887
F   F4        1.0  0.01229  0.96127  0.60433  1.0000 -0.5183345887
F   F5        1.0  0.90466  0.88206  0.01158  1.0000 -0.5183345887
F   F6        1.0  0.88206  0.90466  0.48842  1.0000 -0.5183345887
F   F7        1.0  0.09534  0.11794  0.98842  1.0000 -0.5183345887
F   F8        1.0  0.11794  0.09534  0.51158  1.0000 -0.5183345887
F   F9        1.0  0.87444  0.11284  0.02417  1.0000 -0.5183345887
F   F10       1.0  0.11284  0.87444  0.47583  1.0000 -0.5183345887
F   F11       1.0  0.12556  0.88716  0.97583  1.0000 -0.5183345887
F   F12       1.0  0.88716  0.12556  0.52417  1.0000 -0.5183345887
