# DDEC6 charges by PACMAN v1.1 (https://github.com/mtap-research/PACMAN-charge/)
data_2013[Zn][ths]3[FSR]10
_chemical_formula_sum              "Zn12 H96 C144 I24 N48"
_cell_length_a       19.293
_cell_length_b       19.293
_cell_length_c       30.538
_cell_angle_alpha    77.8803
_cell_angle_beta     102.12
_cell_angle_gamma    134.637

_symmetry_space_group_name_H-M    "P 1"
_symmetry_Int_Tables_number       1

loop_
  _symmetry_equiv_pos_as_xyz
  'x, y, z'

loop_
  _atom_site_type_symbol
  _atom_site_label
  _atom_site_symmetry_multiplicity
  _atom_site_fract_x
  _atom_site_fract_y
  _atom_site_fract_z
  _atom_site_occupancy
  _atom_site_charge
Zn  Zn1       1.0  0.45815  0.28811  0.08828  1.0000 0.4557972953
Zn  Zn2       1.0  0.71189  0.54185  0.58828  1.0000 0.4557972953
Zn  Zn3       1.0  0.97554  0.21506  0.94225  1.0000 0.4756142452
Zn  Zn4       1.0  0.78494  0.02446  0.44225  1.0000 0.4756142452
Zn  Zn5       1.0  0.03816  0.69276  0.76847  1.0000 0.4426129639
Zn  Zn6       1.0  0.30724  0.96184  0.26847  1.0000 0.4426129639
Zn  Zn7       1.0  0.28811  0.45815  0.41172  1.0000 0.4557972953
Zn  Zn8       1.0  0.54185  0.71189  0.91172  1.0000 0.4557972953
Zn  Zn9       1.0  0.21506  0.97554  0.55775  1.0000 0.4744801476
Zn  Zn10      1.0  0.02446  0.78494  0.05775  1.0000 0.4744801476
Zn  Zn11      1.0  0.69276  0.03816  0.73153  1.0000 0.4426129639
Zn  Zn12      1.0  0.96184  0.30724  0.23153  1.0000 0.4426129639
H   H1        1.0  0.58500  0.35020  0.01920  1.0000 0.1089303134
H   H2        1.0  0.64980  0.41500  0.51920  1.0000 0.1089303134
H   H3        1.0  0.69180  0.47940  0.96890  1.0000 0.1386506481
H   H4        1.0  0.52060  0.30820  0.46890  1.0000 0.1386506481
H   H5        1.0  0.65970  0.63410  0.01640  1.0000 0.1386506481
H   H6        1.0  0.36590  0.34030  0.51640  1.0000 0.1386506481
H   H7        1.0  0.54300  0.49620  0.05990  1.0000 0.1089303134
H   H8        1.0  0.50380  0.45700  0.55990  1.0000 0.1089303134
H   H9        1.0  0.07120  0.84940  0.80410  1.0000 0.1012869212
H   H10       1.0  0.15060  0.92880  0.30410  1.0000 0.1012869212
H   H11       1.0  0.00510  0.86350  0.85210  1.0000 0.1386506481
H   H12       1.0  0.13650  0.99490  0.35210  1.0000 0.1386506481
H   H13       1.0  0.80250  0.57310  0.87530  1.0000 0.1305286914
H   H14       1.0  0.42690  0.19750  0.37530  1.0000 0.1305286914
H   H15       1.0  0.87820  0.56360  0.83090  1.0000 0.1089303134
H   H16       1.0  0.43640  0.12180  0.33090  1.0000 0.1089303134
H   H17       1.0  0.89890  0.03170  0.00420  1.0000 0.1089303134
H   H18       1.0  0.96830  0.10110  0.50420  1.0000 0.1089303134
H   H19       1.0  0.85100  0.88520  0.00280  1.0000 0.1386506481
H   H20       1.0  0.11480  0.14900  0.50280  1.0000 0.1386506481
H   H21       1.0  0.92140  0.96720  0.87390  1.0000 0.1386506481
H   H22       1.0  0.03280  0.07860  0.37390  1.0000 0.1386506481
H   H23       1.0  0.97530  0.11510  0.88140  1.0000 0.1089303134
H   H24       1.0  0.88490  0.02470  0.38140  1.0000 0.1089303134
H   H25       1.0  0.95950  0.31730  0.85450  1.0000 0.1012869212
H   H26       1.0  0.68270  0.04050  0.35450  1.0000 0.1012869212
H   H27       1.0  0.83860  0.29960  0.80670  1.0000 0.1200489357
H   H28       1.0  0.70040  0.16140  0.30670  1.0000 0.1200489357
H   H29       1.0  0.63270  0.05090  0.88020  1.0000 0.1305286914
H   H30       1.0  0.94910  0.36730  0.38020  1.0000 0.1305286914
H   H31       1.0  0.76090  0.08330  0.93270  1.0000 0.1012869212
H   H32       1.0  0.91670  0.23910  0.43270  1.0000 0.1012869212
H   H33       1.0  0.54350  0.34370  0.62180  1.0000 0.1012869212
H   H34       1.0  0.65630  0.45650  0.12180  1.0000 0.1012869212
H   H35       1.0  0.49780  0.22400  0.68280  1.0000 0.1305286914
H   H36       1.0  0.77600  0.50220  0.18280  1.0000 0.1305286914
H   H37       1.0  0.78570  0.39030  0.72060  1.0000 0.1305286914
H   H38       1.0  0.60970  0.21430  0.22060  1.0000 0.1305286914
H   H39       1.0  0.82100  0.50160  0.65840  1.0000 0.1089303134
H   H40       1.0  0.49840  0.17900  0.15840  1.0000 0.1089303134
H   H41       1.0  0.22920  0.76100  0.82300  1.0000 0.1089303134
H   H42       1.0  0.23900  0.77080  0.32300  1.0000 0.1089303134
H   H43       1.0  0.39200  0.90600  0.83220  1.0000 0.1386506481
H   H44       1.0  0.09400  0.60800  0.33220  1.0000 0.1386506481
H   H45       1.0  0.33880  0.03740  0.73180  1.0000 0.1386506481
H   H46       1.0  0.96260  0.66120  0.23180  1.0000 0.1386506481
H   H47       1.0  0.17530  0.89930  0.73160  1.0000 0.1012869212
H   H48       1.0  0.10070  0.82470  0.23160  1.0000 0.1012869212
H   H49       1.0  0.35020  0.58500  0.48080  1.0000 0.1089303134
H   H50       1.0  0.41500  0.64980  0.98080  1.0000 0.1089303134
H   H51       1.0  0.47940  0.69180  0.53110  1.0000 0.1386506481
H   H52       1.0  0.30820  0.52060  0.03110  1.0000 0.1386506481
H   H53       1.0  0.63410  0.65970  0.48360  1.0000 0.1386506481
H   H54       1.0  0.34030  0.36590  0.98360  1.0000 0.1386506481
H   H55       1.0  0.49620  0.54300  0.44010  1.0000 0.1089303134
H   H56       1.0  0.45700  0.50380  0.94010  1.0000 0.1089303134
H   H57       1.0  0.84940  0.07120  0.69590  1.0000 0.1012869212
H   H58       1.0  0.92880  0.15060  0.19590  1.0000 0.1012869212
H   H59       1.0  0.86350  0.00510  0.64790  1.0000 0.1386506481
H   H60       1.0  0.99490  0.13650  0.14790  1.0000 0.1386506481
H   H61       1.0  0.57310  0.80250  0.62470  1.0000 0.1305286914
H   H62       1.0  0.19750  0.42690  0.12470  1.0000 0.1305286914
H   H63       1.0  0.56360  0.87820  0.66910  1.0000 0.1089303134
H   H64       1.0  0.12180  0.43640  0.16910  1.0000 0.1089303134
H   H65       1.0  0.03170  0.89890  0.49580  1.0000 0.1089303134
H   H66       1.0  0.10110  0.96830  0.99580  1.0000 0.1089303134
H   H67       1.0  0.88520  0.85100  0.49720  1.0000 0.1386506481
H   H68       1.0  0.14900  0.11480  0.99720  1.0000 0.1386506481
H   H69       1.0  0.96720  0.92140  0.62610  1.0000 0.1386506481
H   H70       1.0  0.07860  0.03280  0.12610  1.0000 0.1386506481
H   H71       1.0  0.11510  0.97530  0.61860  1.0000 0.1089303134
H   H72       1.0  0.02470  0.88490  0.11860  1.0000 0.1089303134
H   H73       1.0  0.31730  0.95950  0.64550  1.0000 0.1012869212
H   H74       1.0  0.04050  0.68270  0.14550  1.0000 0.1012869212
H   H75       1.0  0.29960  0.83860  0.69330  1.0000 0.1200489357
H   H76       1.0  0.16140  0.70040  0.19330  1.0000 0.1200489357
H   H77       1.0  0.05090  0.63270  0.61980  1.0000 0.1305286914
H   H78       1.0  0.36730  0.94910  0.11980  1.0000 0.1305286914
H   H79       1.0  0.08330  0.76090  0.56730  1.0000 0.1012869212
H   H80       1.0  0.23910  0.91670  0.06730  1.0000 0.1012869212
H   H81       1.0  0.34370  0.54350  0.87820  1.0000 0.1012869212
H   H82       1.0  0.45650  0.65630  0.37820  1.0000 0.1012869212
H   H83       1.0  0.22400  0.49780  0.81720  1.0000 0.1305286914
H   H84       1.0  0.50220  0.77600  0.31720  1.0000 0.1305286914
H   H85       1.0  0.39030  0.78570  0.77940  1.0000 0.1305286914
H   H86       1.0  0.21430  0.60970  0.27940  1.0000 0.1305286914
H   H87       1.0  0.50160  0.82100  0.84160  1.0000 0.1089303134
H   H88       1.0  0.17900  0.49840  0.34160  1.0000 0.1089303134
H   H89       1.0  0.76100  0.22920  0.67700  1.0000 0.1089303134
H   H90       1.0  0.77080  0.23900  0.17700  1.0000 0.1089303134
H   H91       1.0  0.90600  0.39200  0.66780  1.0000 0.1386506481
H   H92       1.0  0.60800  0.09400  0.16780  1.0000 0.1386506481
H   H93       1.0  0.03740  0.33880  0.76820  1.0000 0.1386506481
H   H94       1.0  0.66120  0.96260  0.26820  1.0000 0.1386506481
H   H95       1.0  0.89930  0.17530  0.76840  1.0000 0.1012869212
H   H96       1.0  0.82470  0.10070  0.26840  1.0000 0.1012869212
C   C1        1.0  0.59880  0.40860  0.01750  1.0000 0.0642400116
C   C2        1.0  0.59140  0.40120  0.51750  1.0000 0.0642400116
C   C3        1.0  0.66450  0.48530  0.98870  1.0000 -0.1385113179
C   C4        1.0  0.51470  0.33550  0.48870  1.0000 -0.1385113179
C   C5        1.0  0.68970  0.57170  0.98970  1.0000 0.0784523177
C   C6        1.0  0.42830  0.31030  0.48970  1.0000 0.0784523177
C   C7        1.0  0.64410  0.57530  0.01600  1.0000 -0.1497886896
C   C8        1.0  0.42470  0.35590  0.51600  1.0000 -0.1497886896
C   C9        1.0  0.57560  0.49340  0.04200  1.0000 0.0702105609
C   C10       1.0  0.50660  0.42440  0.54200  1.0000 0.0702105609
C   C11       1.0  0.76350  0.65990  0.95870  1.0000 0.3766754336
C   C12       1.0  0.34010  0.23650  0.45870  1.0000 0.3766754336
C   C13       1.0  0.85640  0.72600  0.90230  1.0000 0.3532394573
C   C14       1.0  0.27400  0.14360  0.40230  1.0000 0.3532394573
C   C15       1.0  0.85680  0.81840  0.93650  1.0000 0.3589140989
C   C16       1.0  0.18160  0.14320  0.43650  1.0000 0.3589140989
C   C17       1.0  0.01720  0.79200  0.81970  1.0000 0.0784523177
C   C18       1.0  0.20800  0.98280  0.31970  1.0000 0.0784523177
C   C19       1.0  0.97750  0.80030  0.84840  1.0000 -0.1316664402
C   C20       1.0  0.19970  0.02250  0.34840  1.0000 -0.1316664402
C   C21       1.0  0.90180  0.72320  0.87120  1.0000 0.0702105609
C   C22       1.0  0.27680  0.09820  0.37120  1.0000 0.0642400116
C   C23       1.0  0.86040  0.63120  0.86230  1.0000 -0.1316664402
C   C24       1.0  0.36880  0.13960  0.36230  1.0000 -0.1316664402
C   C25       1.0  0.90390  0.62590  0.83490  1.0000 0.0702105609
C   C26       1.0  0.37410  0.09610  0.33490  1.0000 0.0702105609
C   C27       1.0  0.90400  0.01860  0.97730  1.0000 0.0702105609
C   C28       1.0  0.98140  0.09600  0.47730  1.0000 0.0702105609
C   C29       1.0  0.87620  0.93120  0.97710  1.0000 -0.1385113179
C   C30       1.0  0.06880  0.12380  0.47710  1.0000 -0.1385113179
C   C31       1.0  0.88470  0.91010  0.93960  1.0000 0.0538516018
C   C32       1.0  0.08990  0.11530  0.43960  1.0000 0.0538516018
C   C33       1.0  0.91870  0.98010  0.90160  1.0000 -0.1385113179
C   C34       1.0  0.01990  0.08130  0.40160  1.0000 -0.1385113179
C   C35       1.0  0.94710  0.06630  0.90600  1.0000 0.0702105609
C   C36       1.0  0.93370  0.05290  0.40600  1.0000 0.0702105609
C   C37       1.0  0.89310  0.26370  0.86050  1.0000 0.0784523177
C   C38       1.0  0.73630  0.10690  0.36050  1.0000 0.0784523177
C   C39       1.0  0.82090  0.25270  0.83170  1.0000 -0.1385113179
C   C40       1.0  0.74730  0.17910  0.33170  1.0000 -0.1385113179
C   C41       1.0  0.72350  0.17450  0.83870  1.0000 0.0438598126
C   C42       1.0  0.82550  0.27650  0.33870  1.0000 0.0438598126
C   C43       1.0  0.69920  0.10740  0.87540  1.0000 -0.1385113179
C   C44       1.0  0.89260  0.30080  0.37540  1.0000 -0.1385113179
C   C45       1.0  0.77650  0.12510  0.90580  1.0000 0.1012869212
C   C46       1.0  0.87490  0.22350  0.40580  1.0000 0.1012869212
C   C47       1.0  0.64850  0.16310  0.80720  1.0000 0.3532394573
C   C48       1.0  0.83690  0.35150  0.30720  1.0000 0.3532394573
C   C49       1.0  0.61040  0.22340  0.74640  1.0000 0.3766754336
C   C50       1.0  0.77660  0.38960  0.24640  1.0000 0.3766754336
C   C51       1.0  0.49080  0.07520  0.78210  1.0000 0.3589140989
C   C52       1.0  0.92480  0.50920  0.28210  1.0000 0.3589140989
C   C53       1.0  0.59280  0.35300  0.64290  1.0000 0.0702105609
C   C54       1.0  0.64700  0.40720  0.14290  1.0000 0.0702105609
C   C55       1.0  0.56460  0.28100  0.67900  1.0000 -0.1316664402
C   C56       1.0  0.71900  0.43540  0.17900  1.0000 -0.1316664402
C   C57       1.0  0.63790  0.29690  0.70810  1.0000 0.0538516018
C   C58       1.0  0.70310  0.36210  0.20810  1.0000 0.0538516018
C   C59       1.0  0.73410  0.37910  0.70080  1.0000 -0.1676472619
C   C60       1.0  0.62090  0.26590  0.20080  1.0000 -0.1676472619
C   C61       1.0  0.75450  0.44610  0.66380  1.0000 0.1089303134
C   C62       1.0  0.55390  0.24550  0.16380  1.0000 0.1089303134
C   C63       1.0  0.25120  0.81920  0.80540  1.0000 0.0702105609
C   C64       1.0  0.18080  0.74880  0.30540  1.0000 0.0702105609
C   C65       1.0  0.34910  0.90470  0.80960  1.0000 -0.1609479122
C   C66       1.0  0.09530  0.65090  0.30960  1.0000 -0.1609479122
C   C67       1.0  0.38580  0.98820  0.78150  1.0000 0.0642400116
C   C68       1.0  0.01180  0.61420  0.28150  1.0000 0.0702105609
C   C69       1.0  0.31780  0.98220  0.75210  1.0000 -0.1497886896
C   C70       1.0  0.01780  0.68220  0.25210  1.0000 -0.1497886896
C   C71       1.0  0.22030  0.89870  0.75120  1.0000 0.0784523177
C   C72       1.0  0.10130  0.77970  0.25120  1.0000 0.0784523177
C   C73       1.0  0.40860  0.59880  0.48250  1.0000 0.0642400116
C   C74       1.0  0.40120  0.59140  0.98250  1.0000 0.0642400116
C   C75       1.0  0.48530  0.66450  0.51130  1.0000 -0.1385113179
C   C76       1.0  0.33550  0.51470  0.01130  1.0000 -0.1385113179
C   C77       1.0  0.57170  0.68970  0.51030  1.0000 0.0784523177
C   C78       1.0  0.31030  0.42830  0.01030  1.0000 0.0784523177
C   C79       1.0  0.57530  0.64410  0.48400  1.0000 -0.1497886896
C   C80       1.0  0.35590  0.42470  0.98400  1.0000 -0.1497886896
C   C81       1.0  0.49340  0.57560  0.45800  1.0000 0.0702105609
C   C82       1.0  0.42440  0.50660  0.95800  1.0000 0.0702105609
C   C83       1.0  0.65990  0.76350  0.54130  1.0000 0.3766754336
C   C84       1.0  0.23650  0.34010  0.04130  1.0000 0.3766754336
C   C85       1.0  0.72600  0.85640  0.59770  1.0000 0.3532394573
C   C86       1.0  0.14360  0.27400  0.09770  1.0000 0.3532394573
C   C87       1.0  0.81840  0.85680  0.56350  1.0000 0.3589140989
C   C88       1.0  0.14320  0.18160  0.06350  1.0000 0.3589140989
C   C89       1.0  0.79200  0.01720  0.68030  1.0000 0.0784523177
C   C90       1.0  0.98280  0.20800  0.18030  1.0000 0.0784523177
C   C91       1.0  0.80030  0.97750  0.65160  1.0000 -0.1316664402
C   C92       1.0  0.02250  0.19970  0.15160  1.0000 -0.1316664402
C   C93       1.0  0.72320  0.90180  0.62880  1.0000 0.0702105609
C   C94       1.0  0.09820  0.27680  0.12880  1.0000 0.0702105609
C   C95       1.0  0.63120  0.86040  0.63770  1.0000 -0.1316664402
C   C96       1.0  0.13960  0.36880  0.13770  1.0000 -0.1316664402
C   C97       1.0  0.62590  0.90390  0.66510  1.0000 0.0702105609
C   C98       1.0  0.09610  0.37410  0.16510  1.0000 0.0702105609
C   C99       1.0  0.01860  0.90400  0.52270  1.0000 0.0702105609
C   C100      1.0  0.09600  0.98140  0.02270  1.0000 0.0702105609
C   C101      1.0  0.93120  0.87620  0.52290  1.0000 -0.1385113179
C   C102      1.0  0.12380  0.06880  0.02290  1.0000 -0.1385113179
C   C103      1.0  0.91010  0.88470  0.56040  1.0000 0.0538516018
C   C104      1.0  0.11530  0.08990  0.06040  1.0000 0.0538516018
C   C105      1.0  0.98010  0.91870  0.59840  1.0000 -0.1385113179
C   C106      1.0  0.08130  0.01990  0.09840  1.0000 -0.1385113179
C   C107      1.0  0.06630  0.94710  0.59400  1.0000 0.0702105609
C   C108      1.0  0.05290  0.93370  0.09400  1.0000 0.0702105609
C   C109      1.0  0.26370  0.89310  0.63950  1.0000 0.0784523177
C   C110      1.0  0.10690  0.73630  0.13950  1.0000 0.0784523177
C   C111      1.0  0.25270  0.82090  0.66830  1.0000 -0.1385113179
C   C112      1.0  0.17910  0.74730  0.16830  1.0000 -0.1385113179
C   C113      1.0  0.17450  0.72350  0.66130  1.0000 0.0438598126
C   C114      1.0  0.27650  0.82550  0.16130  1.0000 0.0438598126
C   C115      1.0  0.10740  0.69920  0.62460  1.0000 -0.1385113179
C   C116      1.0  0.30080  0.89260  0.12460  1.0000 -0.1316664402
C   C117      1.0  0.12510  0.77650  0.59420  1.0000 0.1012869212
C   C118      1.0  0.22350  0.87490  0.09420  1.0000 0.1012869212
C   C119      1.0  0.16310  0.64850  0.69280  1.0000 0.3532394573
C   C120      1.0  0.35150  0.83690  0.19280  1.0000 0.3532394573
C   C121      1.0  0.22340  0.61040  0.75360  1.0000 0.3766754336
C   C122      1.0  0.38960  0.77660  0.25360  1.0000 0.3766754336
C   C123      1.0  0.07520  0.49080  0.71790  1.0000 0.3589140989
C   C124      1.0  0.50920  0.92480  0.21790  1.0000 0.3589140989
C   C125      1.0  0.35300  0.59280  0.85710  1.0000 0.0702105609
C   C126      1.0  0.40720  0.64700  0.35710  1.0000 0.0702105609
C   C127      1.0  0.28100  0.56460  0.82100  1.0000 -0.1316664402
C   C128      1.0  0.43540  0.71900  0.32100  1.0000 -0.1316664402
C   C129      1.0  0.29690  0.63790  0.79190  1.0000 0.0538516018
C   C130      1.0  0.36210  0.70310  0.29190  1.0000 0.0538516018
C   C131      1.0  0.37910  0.73410  0.79920  1.0000 -0.1676472619
C   C132      1.0  0.26590  0.62090  0.29920  1.0000 -0.1676472619
C   C133      1.0  0.44610  0.75450  0.83620  1.0000 0.1089303134
C   C134      1.0  0.24550  0.55390  0.33620  1.0000 0.1089303134
C   C135      1.0  0.81920  0.25120  0.69460  1.0000 0.0702105609
C   C136      1.0  0.74880  0.18080  0.19460  1.0000 0.0702105609
C   C137      1.0  0.90470  0.34910  0.69040  1.0000 -0.1609479122
C   C138      1.0  0.65090  0.09530  0.19040  1.0000 -0.1609479122
C   C139      1.0  0.98820  0.38580  0.71850  1.0000 0.0642400116
C   C140      1.0  0.61420  0.01180  0.21850  1.0000 0.0642400116
C   C141      1.0  0.98220  0.31780  0.74790  1.0000 -0.1497886896
C   C142      1.0  0.68220  0.01780  0.24790  1.0000 -0.1497886896
C   C143      1.0  0.89870  0.22030  0.74880  1.0000 0.0784523177
C   C144      1.0  0.77970  0.10130  0.24880  1.0000 0.0784523177
I   I1        1.0  0.37030  0.14026  0.04887  1.0000 -0.431330509
I   I2        1.0  0.85974  0.62970  0.54887  1.0000 -0.431330509
I   I3        1.0  0.38394  0.32340  0.12771  1.0000 -0.420755782
I   I4        1.0  0.67660  0.61606  0.62771  1.0000 -0.420755782
I   I5        1.0  0.13550  0.34658  0.90552  1.0000 -0.4562306225
I   I6        1.0  0.65342  0.86450  0.40552  1.0000 -0.4562306225
I   I7        1.0  0.94818  0.21910  0.01859  1.0000 -0.431330509
I   I8        1.0  0.78090  0.05182  0.51859  1.0000 -0.431330509
I   I9        1.0  0.00579  0.53931  0.79751  1.0000 -0.431330509
I   I10       1.0  0.46069  0.99421  0.29751  1.0000 -0.431330509
I   I11       1.0  0.97426  0.71548  0.69041  1.0000 -0.420755782
I   I12       1.0  0.28452  0.02574  0.19041  1.0000 -0.420755782
I   I13       1.0  0.14026  0.37030  0.45113  1.0000 -0.431330509
I   I14       1.0  0.62970  0.85974  0.95113  1.0000 -0.431330509
I   I15       1.0  0.32340  0.38394  0.37229  1.0000 -0.420755782
I   I16       1.0  0.61606  0.67660  0.87229  1.0000 -0.420755782
I   I17       1.0  0.34658  0.13550  0.59448  1.0000 -0.4562306225
I   I18       1.0  0.86450  0.65342  0.09448  1.0000 -0.4562306225
I   I19       1.0  0.21910  0.94818  0.48141  1.0000 -0.431330509
I   I20       1.0  0.05182  0.78090  0.98141  1.0000 -0.431330509
I   I21       1.0  0.53931  0.00579  0.70249  1.0000 -0.431330509
I   I22       1.0  0.99421  0.46069  0.20249  1.0000 -0.431330509
I   I23       1.0  0.71548  0.97426  0.80959  1.0000 -0.420755782
I   I24       1.0  0.02574  0.28452  0.30959  1.0000 -0.420755782
N   N1        1.0  0.55230  0.41050  0.04340  1.0000 -0.1894790463
N   N2        1.0  0.58950  0.44770  0.54340  1.0000 -0.1894790463
N   N3        1.0  0.79120  0.64520  0.92840  1.0000 -0.381898294
N   N4        1.0  0.35480  0.20880  0.42840  1.0000 -0.381898294
N   N5        1.0  0.88970  0.81390  0.90390  1.0000 -0.381898294
N   N6        1.0  0.18610  0.11030  0.40390  1.0000 -0.381898294
N   N7        1.0  0.79670  0.74450  0.96650  1.0000 -0.381898294
N   N8        1.0  0.25550  0.20330  0.46650  1.0000 -0.381898294
N   N9        1.0  0.98190  0.70610  0.81330  1.0000 -0.1783534569
N   N10       1.0  0.29390  0.01810  0.31330  1.0000 -0.1783534569
N   N11       1.0  0.93810  0.08730  0.94260  1.0000 -0.1894790463
N   N12       1.0  0.91270  0.06190  0.44260  1.0000 -0.1894790463
N   N13       1.0  0.87140  0.19960  0.89730  1.0000 -0.1894790463
N   N14       1.0  0.80040  0.12860  0.39730  1.0000 -0.1894790463
N   N15       1.0  0.67950  0.23310  0.77300  1.0000 -0.381898294
N   N16       1.0  0.76690  0.32050  0.27300  1.0000 -0.381898294
N   N17       1.0  0.51410  0.14610  0.74740  1.0000 -0.4004614621
N   N18       1.0  0.85390  0.48590  0.24740  1.0000 -0.4004614621
N   N19       1.0  0.55200  0.07960  0.81290  1.0000 -0.3910208389
N   N20       1.0  0.92040  0.44800  0.31290  1.0000 -0.3910208389
N   N21       1.0  0.68880  0.43600  0.63720  1.0000 -0.1783534569
N   N22       1.0  0.56400  0.31120  0.13720  1.0000 -0.1783534569
N   N23       1.0  0.18620  0.81720  0.77650  1.0000 -0.1783534569
N   N24       1.0  0.18280  0.81380  0.27650  1.0000 -0.1783534569
N   N25       1.0  0.41050  0.55230  0.45660  1.0000 -0.1894790463
N   N26       1.0  0.44770  0.58950  0.95660  1.0000 -0.1894790463
N   N27       1.0  0.64520  0.79120  0.57160  1.0000 -0.381898294
N   N28       1.0  0.20880  0.35480  0.07160  1.0000 -0.381898294
N   N29       1.0  0.81390  0.88970  0.59610  1.0000 -0.381898294
N   N30       1.0  0.11030  0.18610  0.09610  1.0000 -0.381898294
N   N31       1.0  0.74450  0.79670  0.53350  1.0000 -0.381898294
N   N32       1.0  0.20330  0.25550  0.03350  1.0000 -0.381898294
N   N33       1.0  0.70610  0.98190  0.68670  1.0000 -0.1783534569
N   N34       1.0  0.01810  0.29390  0.18670  1.0000 -0.1783534569
N   N35       1.0  0.08730  0.93810  0.55740  1.0000 -0.1894790463
N   N36       1.0  0.06190  0.91270  0.05740  1.0000 -0.1894790463
N   N37       1.0  0.19960  0.87140  0.60270  1.0000 -0.1894790463
N   N38       1.0  0.12860  0.80040  0.10270  1.0000 -0.1894790463
N   N39       1.0  0.23310  0.67950  0.72700  1.0000 -0.381898294
N   N40       1.0  0.32050  0.76690  0.22700  1.0000 -0.381898294
N   N41       1.0  0.14610  0.51410  0.75260  1.0000 -0.4004614621
N   N42       1.0  0.48590  0.85390  0.25260  1.0000 -0.4004614621
N   N43       1.0  0.07960  0.55200  0.68710  1.0000 -0.3910208389
N   N44       1.0  0.44800  0.92040  0.18710  1.0000 -0.3910208389
N   N45       1.0  0.43600  0.68880  0.86280  1.0000 -0.1783534569
N   N46       1.0  0.31120  0.56400  0.36280  1.0000 -0.1783534569
N   N47       1.0  0.81720  0.18620  0.72350  1.0000 -0.1783534569
N   N48       1.0  0.81380  0.18280  0.22350  1.0000 -0.1783534569
