# DDEC6 charges by PACMAN v1.1 (https://github.com/mtap-research/PACMAN-charge/)
data_2014[Y][nan]3[FSR]2
_chemical_formula_sum              "Y8 H88 C168 N16 O60"
_cell_length_a       21.1406
_cell_length_b       21.1406
_cell_length_c       21.1406
_cell_angle_alpha    93.5373
_cell_angle_beta     93.5373
_cell_angle_gamma    151.235

_symmetry_space_group_name_H-M    "P 1"
_symmetry_Int_Tables_number       1

loop_
  _symmetry_equiv_pos_as_xyz
  'x, y, z'

loop_
  _atom_site_type_symbol
  _atom_site_label
  _atom_site_symmetry_multiplicity
  _atom_site_fract_x
  _atom_site_fract_y
  _atom_site_fract_z
  _atom_site_occupancy
  _atom_site_charge
Y   Y1        1.0  0.10583  0.39797  0.07448  1.0000 1.6394807177
Y   Y2        1.0  0.32349  0.03135  0.92552  1.0000 1.6394807177
Y   Y3        1.0  0.96865  0.89417  0.29214  1.0000 1.6394807177
Y   Y4        1.0  0.60203  0.67651  0.70786  1.0000 1.6394807177
Y   Y5        1.0  0.14417  0.71865  0.79214  1.0000 1.6394807177
Y   Y6        1.0  0.92651  0.35203  0.20786  1.0000 1.6394807177
Y   Y7        1.0  0.28135  0.07349  0.42552  1.0000 1.6394807177
Y   Y8        1.0  0.64797  0.85583  0.57448  1.0000 1.6394807177
H   H1        1.0  0.42540  0.63430  0.22470  1.0000 0.1291566785
H   H2        1.0  0.40960  0.20070  0.77530  1.0000 0.1291566785
H   H3        1.0  0.79930  0.57460  0.20890  1.0000 0.1291566785
H   H4        1.0  0.36570  0.59040  0.79110  1.0000 0.1291566785
H   H5        1.0  0.82460  0.54930  0.70890  1.0000 0.1291566785
H   H6        1.0  0.84040  0.11570  0.29110  1.0000 0.1291566785
H   H7        1.0  0.45070  0.15960  0.27530  1.0000 0.1291566785
H   H8        1.0  0.88430  0.17540  0.72470  1.0000 0.1291566785
H   H9        1.0  0.59080  0.75570  0.33230  1.0000 0.1399056802
H   H10       1.0  0.42340  0.25850  0.66770  1.0000 0.1399056802
H   H11       1.0  0.74150  0.40920  0.16490  1.0000 0.1399056802
H   H12       1.0  0.24430  0.57660  0.83510  1.0000 0.1399056802
H   H13       1.0  0.65920  0.49150  0.66490  1.0000 0.1399056802
H   H14       1.0  0.82660  0.99430  0.33510  1.0000 0.1399056802
H   H15       1.0  0.50850  0.17340  0.16770  1.0000 0.1399056802
H   H16       1.0  0.00570  0.34080  0.83230  1.0000 0.1399056802
H   H17       1.0  0.72520  0.06890  0.91950  1.0000 0.1462484227
H   H18       1.0  0.14940  0.80570  0.08050  1.0000 0.1462484227
H   H19       1.0  0.19430  0.27480  0.34370  1.0000 0.1462484227
H   H20       1.0  0.93110  0.85060  0.65630  1.0000 0.1462484227
H   H21       1.0  0.52480  0.94430  0.84370  1.0000 0.1462484227
H   H22       1.0  0.10060  0.68110  0.15630  1.0000 0.1462484227
H   H23       1.0  0.05570  0.89940  0.58050  1.0000 0.1462484227
H   H24       1.0  0.31890  0.47520  0.41950  1.0000 0.1462484227
H   H25       1.0  0.14930  0.28330  0.11200  1.0000 0.1199715229
H   H26       1.0  0.17130  0.03730  0.88800  1.0000 0.1199715229
H   H27       1.0  0.96270  0.85070  0.13400  1.0000 0.1199715229
H   H28       1.0  0.71670  0.82870  0.86600  1.0000 0.1199715229
H   H29       1.0  0.10070  0.71270  0.63400  1.0000 0.1199715229
H   H30       1.0  0.07870  0.46670  0.36600  1.0000 0.1199715229
H   H31       1.0  0.28730  0.92130  0.38800  1.0000 0.1199715229
H   H32       1.0  0.53330  0.89930  0.61200  1.0000 0.1199715229
H   H33       1.0  0.30800  0.34250  0.14010  1.0000 0.1291566785
H   H34       1.0  0.20240  0.16790  0.85990  1.0000 0.1291566785
H   H35       1.0  0.83210  0.69200  0.03450  1.0000 0.1291566785
H   H36       1.0  0.65750  0.79760  0.96550  1.0000 0.1291566785
H   H37       1.0  0.94200  0.58210  0.53450  1.0000 0.1291566785
H   H38       1.0  0.04760  0.40750  0.46550  1.0000 0.1291566785
H   H39       1.0  0.41790  0.95240  0.35990  1.0000 0.1291566785
H   H40       1.0  0.59250  0.05800  0.64010  1.0000 0.1291566785
H   H41       1.0  0.53410  0.56030  0.14320  1.0000 0.1199715229
H   H42       1.0  0.41710  0.39090  0.85680  1.0000 0.1199715229
H   H43       1.0  0.60910  0.46590  0.02620  1.0000 0.1199715229
H   H44       1.0  0.43970  0.58290  0.97380  1.0000 0.1199715229
H   H45       1.0  0.71590  0.35910  0.52620  1.0000 0.1199715229
H   H46       1.0  0.83290  0.18970  0.47380  1.0000 0.1199715229
H   H47       1.0  0.64090  0.16710  0.35680  1.0000 0.1199715229
H   H48       1.0  0.81030  0.28410  0.64320  1.0000 0.1199715229
H   H49       1.0  0.71550  0.79740  0.12730  1.0000 0.1399056802
H   H50       1.0  0.67010  0.58820  0.87270  1.0000 0.1399056802
H   H51       1.0  0.41180  0.28450  0.08190  1.0000 0.1399056802
H   H52       1.0  0.20260  0.32990  0.91810  1.0000 0.1399056802
H   H53       1.0  0.53450  0.16180  0.58190  1.0000 0.1399056802
H   H54       1.0  0.57990  0.95260  0.41810  1.0000 0.1399056802
H   H55       1.0  0.83820  0.42010  0.37270  1.0000 0.1399056802
H   H56       1.0  0.04740  0.46550  0.62730  1.0000 0.1399056802
H   H57       1.0  0.76750  0.93680  0.09270  1.0000 0.1399056802
H   H58       1.0  0.84410  0.67480  0.90730  1.0000 0.1399056802
H   H59       1.0  0.32520  0.23250  0.16930  1.0000 0.1399056802
H   H60       1.0  0.06320  0.15590  0.83070  1.0000 0.1399056802
H   H61       1.0  0.48250  0.07520  0.66930  1.0000 0.1399056802
H   H62       1.0  0.40590  0.81320  0.33070  1.0000 0.1399056802
H   H63       1.0  0.92480  0.59410  0.40730  1.0000 0.1399056802
H   H64       1.0  0.18680  0.51750  0.59270  1.0000 0.1399056802
H   H65       1.0  0.69270  0.97900  0.05130  1.0000 0.1399056802
H   H66       1.0  0.92770  0.64140  0.94870  1.0000 0.1399056802
H   H67       1.0  0.35860  0.30730  0.28630  1.0000 0.1399056802
H   H68       1.0  0.02100  0.07230  0.71370  1.0000 0.1399056802
H   H69       1.0  0.55730  0.10860  0.78630  1.0000 0.1399056802
H   H70       1.0  0.32230  0.77100  0.21370  1.0000 0.1399056802
H   H71       1.0  0.89140  0.67770  0.44870  1.0000 0.1399056802
H   H72       1.0  0.22900  0.44270  0.55130  1.0000 0.1399056802
H   H73       1.0  0.51730  0.89360  0.01750  1.0000 0.1291566785
H   H74       1.0  0.87610  0.49980  0.98250  1.0000 0.1291566785
H   H75       1.0  0.50020  0.48270  0.37630  1.0000 0.1291566785
H   H76       1.0  0.10640  0.12390  0.62370  1.0000 0.1291566785
H   H77       1.0  0.73270  0.25020  0.87630  1.0000 0.1291566785
H   H78       1.0  0.37390  0.85640  0.12370  1.0000 0.1291566785
H   H79       1.0  0.74980  0.62610  0.48250  1.0000 0.1291566785
H   H80       1.0  0.14360  0.26730  0.51750  1.0000 0.1291566785
H   H81       1.0  0.30170  0.67950  0.02840  1.0000 0.1199715229
H   H82       1.0  0.65110  0.27330  0.97160  1.0000 0.1199715229
H   H83       1.0  0.72670  0.69830  0.37780  1.0000 0.1199715229
H   H84       1.0  0.32050  0.34890  0.62220  1.0000 0.1199715229
H   H85       1.0  0.94830  0.47670  0.87780  1.0000 0.1199715229
H   H86       1.0  0.59890  0.07050  0.12220  1.0000 0.1199715229
H   H87       1.0  0.52330  0.40110  0.47160  1.0000 0.1199715229
H   H88       1.0  0.92950  0.05170  0.52840  1.0000 0.1199715229
C   C1        1.0  0.21697  0.54062  0.23979  1.0000 0.5795511233
C   C2        1.0  0.30083  0.97718  0.76021  1.0000 0.5795511233
C   C3        1.0  0.02282  0.78303  0.32365  1.0000 0.5795511233
C   C4        1.0  0.45938  0.69917  0.67635  1.0000 0.5795511233
C   C5        1.0  0.03303  0.77282  0.82365  1.0000 0.5795511233
C   C6        1.0  0.94917  0.20938  0.17635  1.0000 0.5795511233
C   C7        1.0  0.22718  0.05083  0.26021  1.0000 0.5795511233
C   C8        1.0  0.79062  0.96697  0.73979  1.0000 0.5795511233
C   C9        1.0  0.33471  0.61420  0.28251  1.0000 0.0703738483
C   C10       1.0  0.33169  0.05220  0.71749  1.0000 0.0703738483
C   C11       1.0  0.94780  0.66529  0.27949  1.0000 0.0703738483
C   C12       1.0  0.38580  0.66831  0.72051  1.0000 0.0703738483
C   C13       1.0  0.91529  0.69780  0.77949  1.0000 0.0703738483
C   C14       1.0  0.91831  0.13580  0.22051  1.0000 0.0703738483
C   C15       1.0  0.30220  0.08169  0.21749  1.0000 0.0703738483
C   C16       1.0  0.86420  0.08471  0.78251  1.0000 0.0703738483
C   C17       1.0  0.42415  0.65051  0.26706  1.0000 -0.1827130837
C   C18       1.0  0.38345  0.15709  0.73294  1.0000 -0.1827130837
C   C19       1.0  0.84291  0.57585  0.22636  1.0000 -0.1827130837
C   C20       1.0  0.34949  0.61655  0.77364  1.0000 -0.1827130837
C   C21       1.0  0.82585  0.59291  0.72636  1.0000 -0.1827130837
C   C22       1.0  0.86655  0.09949  0.27364  1.0000 -0.1827130837
C   C23       1.0  0.40709  0.13345  0.23294  1.0000 -0.1827130837
C   C24       1.0  0.90051  0.17415  0.76706  1.0000 -0.1827130837
C   C25       1.0  0.51606  0.71807  0.32693  1.0000 -0.1713703906
C   C26       1.0  0.39114  0.18913  0.67307  1.0000 -0.1713703906
C   C27       1.0  0.81087  0.48394  0.20201  1.0000 -0.1713703906
C   C28       1.0  0.28193  0.60886  0.79799  1.0000 -0.1713703906
C   C29       1.0  0.73394  0.56087  0.70201  1.0000 -0.1713703906
C   C30       1.0  0.85886  0.03193  0.29799  1.0000 -0.1713703906
C   C31       1.0  0.43913  0.14114  0.17307  1.0000 -0.1713703906
C   C32       1.0  0.96807  0.26606  0.82693  1.0000 -0.1713703906
C   C33       1.0  0.47717  0.71840  0.37417  1.0000 0.0605285959
C   C34       1.0  0.34423  0.10300  0.62583  1.0000 0.0605285959
C   C35       1.0  0.89700  0.52283  0.24123  1.0000 0.0605285959
C   C36       1.0  0.28160  0.65577  0.75877  1.0000 0.0605285959
C   C37       1.0  0.77283  0.64700  0.74123  1.0000 0.0605285959
C   C38       1.0  0.90577  0.03160  0.25877  1.0000 0.0605285959
C   C39       1.0  0.35300  0.09423  0.12583  1.0000 0.0605285959
C   C40       1.0  0.96840  0.22717  0.87417  1.0000 0.0605285959
C   C41       1.0  0.53734  0.77761  0.44435  1.0000 0.518447064
C   C42       1.0  0.33326  0.09299  0.55565  1.0000 0.518447064
C   C43       1.0  0.90701  0.46266  0.24027  1.0000 0.518447064
C   C44       1.0  0.22239  0.66674  0.75973  1.0000 0.518447064
C   C45       1.0  0.71266  0.65701  0.74027  1.0000 0.518447064
C   C46       1.0  0.91674  0.97239  0.25973  1.0000 0.518447064
C   C47       1.0  0.34299  0.08326  0.05565  1.0000 0.518447064
C   C48       1.0  0.02761  0.28734  0.94435  1.0000 0.518447064
C   C49       1.0  0.80852  0.20678  0.04770  1.0000 0.5743441807
C   C50       1.0  0.15908  0.76082  0.95230  1.0000 0.5743441807
C   C51       1.0  0.23918  0.19148  0.39826  1.0000 0.5743441807
C   C52       1.0  0.79322  0.84092  0.60174  1.0000 0.5743441807
C   C53       1.0  0.44148  0.98918  0.89826  1.0000 0.5743441807
C   C54       1.0  0.09092  0.54322  0.10174  1.0000 0.5743441807
C   C55       1.0  0.01082  0.90908  0.45230  1.0000 0.5743441807
C   C56       1.0  0.45678  0.55852  0.54770  1.0000 0.5743441807
C   C57       1.0  0.70877  0.12863  0.98560  1.0000 0.0605285959
C   C58       1.0  0.14303  0.72317  0.01440  1.0000 0.0605285959
C   C59       1.0  0.27683  0.29123  0.41986  1.0000 0.0605285959
C   C60       1.0  0.87137  0.85697  0.58014  1.0000 0.0605285959
C   C61       1.0  0.54123  0.02683  0.91986  1.0000 0.0605285959
C   C62       1.0  0.10697  0.62137  0.08014  1.0000 0.0605285959
C   C63       1.0  0.97317  0.89303  0.51440  1.0000 0.0605285959
C   C64       1.0  0.37863  0.45877  0.48560  1.0000 0.0605285959
C   C65       1.0  0.68010  0.06688  0.92898  1.0000 -0.1855846269
C   C66       1.0  0.13790  0.75112  0.07102  1.0000 -0.1855846269
C   C67       1.0  0.24888  0.31990  0.38678  1.0000 -0.1855846269
C   C68       1.0  0.93312  0.86210  0.61322  1.0000 -0.1855846269
C   C69       1.0  0.56990  0.99888  0.88678  1.0000 -0.1855846269
C   C70       1.0  0.11210  0.68312  0.11322  1.0000 -0.1855846269
C   C71       1.0  0.00112  0.88790  0.57102  1.0000 -0.1855846269
C   C72       1.0  0.31688  0.43010  0.42898  1.0000 -0.1855846269
C   C73       1.0  0.24144  0.37255  0.11279  1.0000 0.1199715229
C   C74       1.0  0.25976  0.12865  0.88721  1.0000 0.1199715229
C   C75       1.0  0.87135  0.75856  0.13111  1.0000 0.1199715229
C   C76       1.0  0.62745  0.74024  0.86889  1.0000 0.1199715229
C   C77       1.0  0.00856  0.62135  0.63111  1.0000 0.1199715229
C   C78       1.0  0.99024  0.37745  0.36889  1.0000 0.1199715229
C   C79       1.0  0.37865  0.00976  0.38721  1.0000 0.1199715229
C   C80       1.0  0.62255  0.99144  0.61279  1.0000 0.1199715229
C   C81       1.0  0.33620  0.40730  0.12990  1.0000 -0.1387943928
C   C82       1.0  0.27740  0.20630  0.87010  1.0000 -0.1387943928
C   C83       1.0  0.79370  0.66380  0.07110  1.0000 -0.1387943928
C   C84       1.0  0.59270  0.72260  0.92890  1.0000 -0.1387943928
C   C85       1.0  0.91380  0.54370  0.57110  1.0000 -0.1387943928
C   C86       1.0  0.97260  0.34270  0.42890  1.0000 -0.1387943928
C   C87       1.0  0.45630  0.02740  0.37010  1.0000 -0.1387943928
C   C88       1.0  0.65730  0.08620  0.62990  1.0000 -0.1387943928
C   C89       1.0  0.46900  0.53540  0.13160  1.0000 -0.0972948817
C   C90       1.0  0.40380  0.33740  0.86840  1.0000 -0.0972948817
C   C91       1.0  0.66260  0.53100  0.06640  1.0000 -0.0972948817
C   C92       1.0  0.46460  0.59620  0.93360  1.0000 -0.0972948817
C   C93       1.0  0.78100  0.41260  0.56640  1.0000 -0.0972948817
C   C94       1.0  0.84620  0.21460  0.43360  1.0000 -0.0972948817
C   C95       1.0  0.58740  0.15380  0.36840  1.0000 -0.0972948817
C   C96       1.0  0.78540  0.21900  0.63160  1.0000 -0.0972948817
C   C97       1.0  0.50908  0.62976  0.11604  1.0000 0.0490865896
C   C98       1.0  0.51372  0.39304  0.88396  1.0000 0.0490865896
C   C99       1.0  0.60696  0.49092  0.12068  1.0000 0.0490865896
C   C100      1.0  0.37024  0.48628  0.87932  1.0000 0.0490865896
C   C101      1.0  0.74092  0.35696  0.62068  1.0000 0.0490865896
C   C102      1.0  0.73628  0.12024  0.37932  1.0000 0.0490865896
C   C103      1.0  0.64304  0.26372  0.38396  1.0000 0.0490865896
C   C104      1.0  0.87976  0.25908  0.61604  1.0000 0.0490865896
C   C105      1.0  0.64570  0.76595  0.11425  1.0000 -0.1387943928
C   C106      1.0  0.65170  0.53145  0.88575  1.0000 -0.1387943928
C   C107      1.0  0.46855  0.35430  0.12025  1.0000 -0.1387943928
C   C108      1.0  0.23405  0.34830  0.87975  1.0000 -0.1387943928
C   C109      1.0  0.60430  0.21855  0.62025  1.0000 -0.1387943928
C   C110      1.0  0.59830  0.98405  0.37975  1.0000 -0.1387943928
C   C111      1.0  0.78145  0.40170  0.38575  1.0000 -0.1387943928
C   C112      1.0  0.01595  0.39570  0.61425  1.0000 -0.1387943928
C   C113      1.0  0.67693  0.84911  0.09484  1.0000 -0.1387943928
C   C114      1.0  0.75427  0.58209  0.90516  1.0000 -0.1387943928
C   C115      1.0  0.41791  0.32307  0.17218  1.0000 -0.1387943928
C   C116      1.0  0.15089  0.24573  0.82782  1.0000 -0.1387943928
C   C117      1.0  0.57307  0.16791  0.67218  1.0000 -0.1387943928
C   C118      1.0  0.49573  0.90089  0.32782  1.0000 -0.1387943928
C   C119      1.0  0.83209  0.50427  0.40516  1.0000 -0.1387943928
C   C120      1.0  0.09911  0.42693  0.59484  1.0000 -0.1387943928
C   C121      1.0  0.57810  0.80937  0.07747  1.0000 0.0490865896
C   C122      1.0  0.73190  0.50063  0.92253  1.0000 0.0490865896
C   C123      1.0  0.49937  0.42190  0.23127  1.0000 0.0490865896
C   C124      1.0  0.19063  0.26810  0.76873  1.0000 0.0490865896
C   C125      1.0  0.67190  0.24937  0.73127  1.0000 0.0490865896
C   C126      1.0  0.51810  0.94063  0.26873  1.0000 0.0490865896
C   C127      1.0  0.75063  0.48190  0.42253  1.0000 0.0490865896
C   C128      1.0  0.05937  0.32810  0.57747  1.0000 0.0490865896
C   C129      1.0  0.60370  0.89002  0.05392  1.0000 -0.0854839681
C   C130      1.0  0.83610  0.54978  0.94608  1.0000 -0.0854839681
C   C131      1.0  0.45022  0.39630  0.28632  1.0000 -0.0854839681
C   C132      1.0  0.10998  0.16390  0.71368  1.0000 -0.0854839681
C   C133      1.0  0.64630  0.20022  0.78632  1.0000 -0.0854839681
C   C134      1.0  0.41390  0.85998  0.21368  1.0000 -0.0854839681
C   C135      1.0  0.79978  0.58610  0.44608  1.0000 -0.0854839681
C   C136      1.0  0.14002  0.35370  0.55392  1.0000 -0.0854839681
C   C137      1.0  0.50150  0.84080  0.03490  1.0000 -0.1332944406
C   C138      1.0  0.80590  0.46660  0.96510  1.0000 -0.1332944406
C   C139      1.0  0.53340  0.49850  0.33930  1.0000 -0.1332944406
C   C140      1.0  0.15920  0.19410  0.66070  1.0000 -0.1332944406
C   C141      1.0  0.74850  0.28340  0.83930  1.0000 -0.1332944406
C   C142      1.0  0.44410  0.90920  0.16070  1.0000 -0.1332944406
C   C143      1.0  0.71660  0.55590  0.46510  1.0000 -0.1332944406
C   C144      1.0  0.09080  0.25150  0.53490  1.0000 -0.1332944406
C   C145      1.0  0.37180  0.71135  0.04095  1.0000 0.1199715229
C   C146      1.0  0.67040  0.33085  0.95905  1.0000 0.1199715229
C   C147      1.0  0.66915  0.62820  0.33955  1.0000 0.1199715229
C   C148      1.0  0.28865  0.32960  0.66045  1.0000 0.1199715229
C   C149      1.0  0.87820  0.41915  0.83955  1.0000 0.1199715229
C   C150      1.0  0.57960  0.03865  0.16045  1.0000 0.1199715229
C   C151      1.0  0.58085  0.42040  0.45905  1.0000 0.1199715229
C   C152      1.0  0.96135  0.12180  0.54095  1.0000 0.1199715229
C   C153      1.0  0.44195  0.67661  0.07976  1.0000 0.1199715229
C   C154      1.0  0.59685  0.36219  0.92024  1.0000 0.1199715229
C   C155      1.0  0.63781  0.55805  0.23466  1.0000 0.1199715229
C   C156      1.0  0.32339  0.40315  0.76534  1.0000 0.1199715229
C   C157      1.0  0.80805  0.38781  0.73466  1.0000 0.1199715229
C   C158      1.0  0.65315  0.07339  0.26534  1.0000 0.1199715229
C   C159      1.0  0.61219  0.34685  0.42024  1.0000 0.1199715229
C   C160      1.0  0.92661  0.19195  0.57976  1.0000 0.1199715229
C   C161      1.0  0.40750  0.58602  0.09912  1.0000 0.1095397325
C   C162      1.0  0.48690  0.30838  0.90088  1.0000 0.1095397325
C   C163      1.0  0.69162  0.59250  0.17852  1.0000 0.1095397325
C   C164      1.0  0.41398  0.51310  0.82148  1.0000 0.1095397325
C   C165      1.0  0.84250  0.44162  0.67852  1.0000 0.1095397325
C   C166      1.0  0.76310  0.16398  0.32148  1.0000 0.1095397325
C   C167      1.0  0.55838  0.23690  0.40088  1.0000 0.1095397325
C   C168      1.0  0.83602  0.15750  0.59912  1.0000 0.1095397325
N   N1        1.0  0.27475  0.45790  0.09785  1.0000 -0.3010097144
N   N2        1.0  0.36005  0.17690  0.90215  1.0000 -0.3010097144
N   N3        1.0  0.82310  0.72525  0.18315  1.0000 -0.3010097144
N   N4        1.0  0.54210  0.63995  0.81685  1.0000 -0.3010097144
N   N5        1.0  0.97525  0.57310  0.68315  1.0000 -0.3010097144
N   N6        1.0  0.88995  0.29210  0.31685  1.0000 -0.3010097144
N   N7        1.0  0.42690  0.11005  0.40215  1.0000 -0.3010097144
N   N8        1.0  0.70790  0.02475  0.59785  1.0000 -0.3010097144
N   N9        1.0  0.34125  0.63098  0.06303  1.0000 -0.293382447
N   N10       1.0  0.56795  0.27822  0.93697  1.0000 -0.293382447
N   N11       1.0  0.72178  0.65875  0.28973  1.0000 -0.293382447
N   N12       1.0  0.36902  0.43205  0.71027  1.0000 -0.293382447
N   N13       1.0  0.90875  0.47178  0.78973  1.0000 -0.293382447
N   N14       1.0  0.68205  0.11902  0.21027  1.0000 -0.293382447
N   N15       1.0  0.52822  0.31795  0.43697  1.0000 -0.293382447
N   N16       1.0  0.88098  0.09125  0.56303  1.0000 -0.293382447
O   O1        1.0  0.14140  0.50895  0.26535  1.0000 -0.5708213571
O   O2        1.0  0.24360  0.87605  0.73465  1.0000 -0.5708213571
O   O3        1.0  0.12395  0.85860  0.36755  1.0000 -0.5708213571
O   O4        1.0  0.49105  0.75640  0.63245  1.0000 -0.5708213571
O   O5        1.0  0.10860  0.87395  0.86755  1.0000 -0.5708213571
O   O6        1.0  0.00640  0.24105  0.13245  1.0000 -0.5708213571
O   O7        1.0  0.12605  0.99360  0.23465  1.0000 -0.5708213571
O   O8        1.0  0.75895  0.89140  0.76535  1.0000 -0.5708213571
O   O9        1.0  0.20130  0.51303  0.17913  1.0000 -0.6274275554
O   O10       1.0  0.33390  0.02217  0.82087  1.0000 -0.6274275554
O   O11       1.0  0.97783  0.79870  0.31173  1.0000 -0.6274275554
O   O12       1.0  0.48697  0.66610  0.68827  1.0000 -0.6274275554
O   O13       1.0  0.04870  0.72783  0.81173  1.0000 -0.6274275554
O   O14       1.0  0.91610  0.23697  0.18827  1.0000 -0.6274275554
O   O15       1.0  0.27217  0.08390  0.32087  1.0000 -0.6274275554
O   O16       1.0  0.76303  0.95130  0.67913  1.0000 -0.6274275554
O   O17       1.0  0.36355  0.65330  0.34825  1.0000 -0.1077246962
O   O18       1.0  0.30505  0.01530  0.65175  1.0000 -0.1077246962
O   O19       1.0  0.98470  0.63645  0.28975  1.0000 -0.1077246962
O   O20       1.0  0.34670  0.69495  0.71025  1.0000 -0.1077246962
O   O21       1.0  0.88645  0.73470  0.78975  1.0000 -0.1077246962
O   O22       1.0  0.94495  0.09670  0.21025  1.0000 -0.1077246962
O   O23       1.0  0.26530  0.05505  0.15175  1.0000 -0.1077246962
O   O24       1.0  0.90330  0.11355  0.84825  1.0000 -0.1077246962
O   O25       1.0  0.48816  0.76814  0.48410  1.0000 -0.5708213571
O   O26       1.0  0.28404  0.00406  0.51590  1.0000 -0.5708213571
O   O27       1.0  0.99594  0.51184  0.27998  1.0000 -0.5708213571
O   O28       1.0  0.23186  0.71596  0.72002  1.0000 -0.5708213571
O   O29       1.0  0.76184  0.74594  0.77998  1.0000 -0.5708213571
O   O30       1.0  0.96596  0.98186  0.22002  1.0000 -0.5708213571
O   O31       1.0  0.25406  0.03404  0.01590  1.0000 -0.5708213571
O   O32       1.0  0.01814  0.23816  0.98410  1.0000 -0.5708213571
O   O33       1.0  0.64444  0.83998  0.46342  1.0000 -0.5708213571
O   O34       1.0  0.37656  0.18102  0.53658  1.0000 -0.5708213571
O   O35       1.0  0.81898  0.35556  0.19554  1.0000 -0.5708213571
O   O36       1.0  0.16002  0.62344  0.80446  1.0000 -0.5708213571
O   O37       1.0  0.60556  0.56898  0.69554  1.0000 -0.5708213571
O   O38       1.0  0.87344  0.91002  0.30446  1.0000 -0.5708213571
O   O39       1.0  0.43102  0.12656  0.03658  1.0000 -0.5708213571
O   O40       1.0  0.08998  0.39444  0.96342  1.0000 -0.5708213571
O   O41       1.0  0.81020  0.24537  0.09657  1.0000 -0.5780709757
O   O42       1.0  0.14880  0.71363  0.90343  1.0000 -0.5780709757
O   O43       1.0  0.28637  0.18980  0.43517  1.0000 -0.5780709757
O   O44       1.0  0.75463  0.85120  0.56483  1.0000 -0.5780709757
O   O45       1.0  0.43980  0.03637  0.93517  1.0000 -0.5780709757
O   O46       1.0  0.10120  0.50463  0.06483  1.0000 -0.5780709757
O   O47       1.0  0.96363  0.89880  0.40343  1.0000 -0.5780709757
O   O48       1.0  0.49537  0.56020  0.59657  1.0000 -0.5780709757
O   O49       1.0  0.88305  0.22535  0.04540  1.0000 -0.5780709757
O   O50       1.0  0.17995  0.83765  0.95460  1.0000 -0.5780709757
O   O51       1.0  0.16235  0.11695  0.34230  1.0000 -0.5780709757
O   O52       1.0  0.77465  0.82005  0.65770  1.0000 -0.5780709757
O   O53       1.0  0.36695  0.91235  0.84230  1.0000 -0.5780709757
O   O54       1.0  0.07005  0.52465  0.15770  1.0000 -0.5780709757
O   O55       1.0  0.08765  0.92995  0.45460  1.0000 -0.5780709757
O   O56       1.0  0.47535  0.63305  0.54540  1.0000 -0.5780709757
O   O57       1.0  0.62500  0.10624  0.98124  1.0000 -0.1077246962
O   O58       1.0  0.12500  0.64376  0.01876  1.0000 -0.1077246962
O   O59       1.0  0.35624  0.37500  0.48124  1.0000 -0.1077246962
O   O60       1.0  0.89376  0.87500  0.51876  1.0000 -0.1077246962
