# DDEC6 charges by PACMAN v1.1 (https://github.com/mtap-research/PACMAN-charge/)
data_2014[Co][hms]3[FSR]2
_chemical_formula_sum              "Co4 H128 C188 N24 O20"
_cell_length_a       9.1792
_cell_length_b       32.323
_cell_length_c       14.867
_cell_angle_alpha    90
_cell_angle_beta     104.26
_cell_angle_gamma    90

_symmetry_space_group_name_H-M    "P 1"
_symmetry_Int_Tables_number       1

loop_
  _symmetry_equiv_pos_as_xyz
  'x, y, z'

loop_
  _atom_site_type_symbol
  _atom_site_label
  _atom_site_symmetry_multiplicity
  _atom_site_fract_x
  _atom_site_fract_y
  _atom_site_fract_z
  _atom_site_occupancy
  _atom_site_charge
Co  Co1       1.0  0.38181  0.12484  0.19346  1.0000 0.7908299992
Co  Co2       1.0  0.11819  0.62484  0.80654  1.0000 0.7908299992
Co  Co3       1.0  0.61819  0.87516  0.80654  1.0000 0.7908299992
Co  Co4       1.0  0.88181  0.37516  0.19346  1.0000 0.7908299992
H   H1        1.0  0.29690  0.17340  0.36880  1.0000 0.1209711032
H   H2        1.0  0.20310  0.67340  0.63120  1.0000 0.1209711032
H   H3        1.0  0.01730  0.13920  0.13710  1.0000 0.1294105582
H   H4        1.0  0.48270  0.63920  0.86290  1.0000 0.1294105582
H   H5        1.0  0.86550  0.16180  0.24360  1.0000 0.1294105582
H   H6        1.0  0.63450  0.66180  0.75640  1.0000 0.1294105582
H   H7        1.0  0.86090  0.22670  0.34420  1.0000 0.1209711032
H   H8        1.0  0.63910  0.72670  0.65580  1.0000 0.1209711032
H   H9        1.0  0.82020  0.26070  0.47140  1.0000 0.1209711032
H   H10       1.0  0.67980  0.76070  0.52860  1.0000 0.1209711032
H   H11       1.0  0.15260  0.19810  0.63760  1.0000 0.1209711032
H   H12       1.0  0.34740  0.69810  0.36240  1.0000 0.1209711032
H   H13       1.0  0.18810  0.16090  0.51210  1.0000 0.1294105582
H   H14       1.0  0.31190  0.66090  0.48790  1.0000 0.1294105582
H   H15       1.0  0.04080  0.31180  0.59330  1.0000 0.1294105582
H   H16       1.0  0.45920  0.81180  0.40670  1.0000 0.1294105582
H   H17       1.0  0.92500  0.33280  0.83160  1.0000 0.1129653236
H   H18       1.0  0.57500  0.83280  0.16840  1.0000 0.1129653236
H   H19       1.0  0.88830  0.21880  0.72310  1.0000 0.1209711032
H   H20       1.0  0.61170  0.71880  0.27690  1.0000 0.1209711032
H   H21       1.0  0.87120  0.19730  0.85990  1.0000 0.1129653236
H   H22       1.0  0.62880  0.69730  0.14010  1.0000 0.1129653236
H   H23       1.0  0.77600  0.17490  0.98150  1.0000 0.1209711032
H   H24       1.0  0.72400  0.67490  0.01850  1.0000 0.1209711032
H   H25       1.0  0.64650  0.29080  0.01710  1.0000 0.1294105582
H   H26       1.0  0.85350  0.79080  0.98290  1.0000 0.1294105582
H   H27       1.0  0.75280  0.31350  0.90120  1.0000 0.1129653236
H   H28       1.0  0.74720  0.81350  0.09880  1.0000 0.1129653236
H   H29       1.0  0.54130  0.16030  0.03230  1.0000 0.1129653236
H   H30       1.0  0.95870  0.66030  0.96770  1.0000 0.1129653236
H   H31       1.0  0.50570  0.21890  0.25410  1.0000 0.1209711032
H   H32       1.0  0.99430  0.71890  0.74590  1.0000 0.1209711032
H   H33       1.0  0.64580  0.26410  0.17380  1.0000 0.1209711032
H   H34       1.0  0.85420  0.76410  0.82620  1.0000 0.1209711032
H   H35       1.0  0.13160  0.37940  0.85130  1.0000 0.1129653236
H   H36       1.0  0.36840  0.87940  0.14870  1.0000 0.1129653236
H   H37       1.0  0.19310  0.44870  0.84880  1.0000 0.1294105582
H   H38       1.0  0.30690  0.94870  0.15120  1.0000 0.1294105582
H   H39       1.0  0.03370  0.45150  0.57290  1.0000 0.1294105582
H   H40       1.0  0.46630  0.95150  0.42710  1.0000 0.1294105582
H   H41       1.0  0.96840  0.38290  0.57470  1.0000 0.1209711032
H   H42       1.0  0.53160  0.88290  0.42530  1.0000 0.1209711032
H   H43       1.0  0.10080  0.52320  0.82460  1.0000 0.1294105582
H   H44       1.0  0.39920  0.02320  0.17540  1.0000 0.1294105582
H   H45       1.0  0.26520  0.58030  0.64110  1.0000 0.1209711032
H   H46       1.0  0.23480  0.08030  0.35890  1.0000 0.1209711032
H   H47       1.0  0.23190  0.50830  0.59380  1.0000 0.1209711032
H   H48       1.0  0.26810  0.00830  0.40620  1.0000 0.1209711032
H   H49       1.0  0.00790  0.10400  0.91650  1.0000 0.1209711032
H   H50       1.0  0.49210  0.60400  0.08350  1.0000 0.1209711032
H   H51       1.0  0.91600  0.08560  0.76330  1.0000 0.1209711032
H   H52       1.0  0.58400  0.58560  0.23670  1.0000 0.1209711032
H   H53       1.0  0.32330  0.05580  0.74160  1.0000 0.1294105582
H   H54       1.0  0.17670  0.55580  0.25840  1.0000 0.1294105582
H   H55       1.0  0.41690  0.06670  0.90150  1.0000 0.1129653236
H   H56       1.0  0.08310  0.56670  0.09850  1.0000 0.1129653236
H   H57       1.0  0.95740  0.12990  0.64700  1.0000 0.1294105582
H   H58       1.0  0.54260  0.62990  0.35300  1.0000 0.1294105582
H   H59       1.0  0.77130  0.16090  0.53300  1.0000 0.1129653236
H   H60       1.0  0.72870  0.66090  0.46700  1.0000 0.1129653236
H   H61       1.0  0.71580  0.05450  0.38880  1.0000 0.1209711032
H   H62       1.0  0.78420  0.55450  0.61120  1.0000 0.1209711032
H   H63       1.0  0.90410  0.02430  0.50690  1.0000 0.1294105582
H   H64       1.0  0.59590  0.52430  0.49310  1.0000 0.1294105582
H   H65       1.0  0.70310  0.82660  0.63120  1.0000 0.1209711032
H   H66       1.0  0.79690  0.32660  0.36880  1.0000 0.1209711032
H   H67       1.0  0.98270  0.86080  0.86290  1.0000 0.1294105582
H   H68       1.0  0.51730  0.36080  0.13710  1.0000 0.1294105582
H   H69       1.0  0.13450  0.83820  0.75640  1.0000 0.1294105582
H   H70       1.0  0.36550  0.33820  0.24360  1.0000 0.1294105582
H   H71       1.0  0.13910  0.77330  0.65580  1.0000 0.1209711032
H   H72       1.0  0.36090  0.27330  0.34420  1.0000 0.1209711032
H   H73       1.0  0.17980  0.73930  0.52860  1.0000 0.1209711032
H   H74       1.0  0.32020  0.23930  0.47140  1.0000 0.1209711032
H   H75       1.0  0.84740  0.80190  0.36240  1.0000 0.1209711032
H   H76       1.0  0.65260  0.30190  0.63760  1.0000 0.1209711032
H   H77       1.0  0.81190  0.83910  0.48790  1.0000 0.1294105582
H   H78       1.0  0.68810  0.33910  0.51210  1.0000 0.1294105582
H   H79       1.0  0.95920  0.68820  0.40670  1.0000 0.1294105582
H   H80       1.0  0.54080  0.18820  0.59330  1.0000 0.1294105582
H   H81       1.0  0.07500  0.66720  0.16840  1.0000 0.1129653236
H   H82       1.0  0.42500  0.16720  0.83160  1.0000 0.1129653236
H   H83       1.0  0.11170  0.78120  0.27690  1.0000 0.1209711032
H   H84       1.0  0.38830  0.28120  0.72310  1.0000 0.1209711032
H   H85       1.0  0.12880  0.80270  0.14010  1.0000 0.1129653236
H   H86       1.0  0.37120  0.30270  0.85990  1.0000 0.1129653236
H   H87       1.0  0.22400  0.82510  0.01850  1.0000 0.1209711032
H   H88       1.0  0.27600  0.32510  0.98150  1.0000 0.1209711032
H   H89       1.0  0.35350  0.70920  0.98290  1.0000 0.1294105582
H   H90       1.0  0.14650  0.20920  0.01710  1.0000 0.1294105582
H   H91       1.0  0.24720  0.68650  0.09880  1.0000 0.1129653236
H   H92       1.0  0.25280  0.18650  0.90120  1.0000 0.1129653236
H   H93       1.0  0.45870  0.83970  0.96770  1.0000 0.1129653236
H   H94       1.0  0.04130  0.33970  0.03230  1.0000 0.1129653236
H   H95       1.0  0.49430  0.78110  0.74590  1.0000 0.1209711032
H   H96       1.0  0.00570  0.28110  0.25410  1.0000 0.1209711032
H   H97       1.0  0.35420  0.73590  0.82620  1.0000 0.1209711032
H   H98       1.0  0.14580  0.23590  0.17380  1.0000 0.1209711032
H   H99       1.0  0.86840  0.62060  0.14870  1.0000 0.1129653236
H   H100      1.0  0.63160  0.12060  0.85130  1.0000 0.1129653236
H   H101      1.0  0.80690  0.55130  0.15120  1.0000 0.1294105582
H   H102      1.0  0.69310  0.05130  0.84880  1.0000 0.1294105582
H   H103      1.0  0.96630  0.54850  0.42710  1.0000 0.1294105582
H   H104      1.0  0.53370  0.04850  0.57290  1.0000 0.1294105582
H   H105      1.0  0.03160  0.61710  0.42530  1.0000 0.1209711032
H   H106      1.0  0.46840  0.11710  0.57470  1.0000 0.1209711032
H   H107      1.0  0.89920  0.47680  0.17540  1.0000 0.1294105582
H   H108      1.0  0.60080  0.97680  0.82460  1.0000 0.1294105582
H   H109      1.0  0.73480  0.41970  0.35890  1.0000 0.1209711032
H   H110      1.0  0.76520  0.91970  0.64110  1.0000 0.1209711032
H   H111      1.0  0.76810  0.49170  0.40620  1.0000 0.1209711032
H   H112      1.0  0.73190  0.99170  0.59380  1.0000 0.1209711032
H   H113      1.0  0.99210  0.89600  0.08350  1.0000 0.1209711032
H   H114      1.0  0.50790  0.39600  0.91650  1.0000 0.1209711032
H   H115      1.0  0.08400  0.91440  0.23670  1.0000 0.1209711032
H   H116      1.0  0.41600  0.41440  0.76330  1.0000 0.1209711032
H   H117      1.0  0.67670  0.94420  0.25840  1.0000 0.1294105582
H   H118      1.0  0.82330  0.44420  0.74160  1.0000 0.1294105582
H   H119      1.0  0.58310  0.93330  0.09850  1.0000 0.1129653236
H   H120      1.0  0.91690  0.43330  0.90150  1.0000 0.1129653236
H   H121      1.0  0.04260  0.87010  0.35300  1.0000 0.1294105582
H   H122      1.0  0.45740  0.37010  0.64700  1.0000 0.1294105582
H   H123      1.0  0.22870  0.83910  0.46700  1.0000 0.1129653236
H   H124      1.0  0.27130  0.33910  0.53300  1.0000 0.1129653236
H   H125      1.0  0.28420  0.94550  0.61120  1.0000 0.1209711032
H   H126      1.0  0.21580  0.44550  0.38880  1.0000 0.1209711032
H   H127      1.0  0.09590  0.97570  0.49310  1.0000 0.1294105582
H   H128      1.0  0.40410  0.47570  0.50690  1.0000 0.1294105582
C   C1        1.0  0.20900  0.16750  0.32410  1.0000 0.0905489976
C   C2        1.0  0.29100  0.66750  0.67590  1.0000 0.0905489976
C   C3        1.0  0.05480  0.14890  0.19730  1.0000 -0.0323567458
C   C4        1.0  0.44520  0.64890  0.80270  1.0000 -0.0323567458
C   C5        1.0  0.96980  0.16140  0.25580  1.0000 -0.1070796537
C   C6        1.0  0.53020  0.66140  0.74420  1.0000 -0.1070796537
C   C7        1.0  0.03430  0.19240  0.41520  1.0000 0.1543388794
C   C8        1.0  0.46570  0.69240  0.58480  1.0000 0.1559204737
C   C9        1.0  0.92100  0.22110  0.40310  1.0000 -0.1653734167
C   C10       1.0  0.57900  0.72110  0.59690  1.0000 -0.1653734167
C   C11       1.0  0.89790  0.24150  0.47970  1.0000 -0.1200243301
C   C12       1.0  0.60210  0.74150  0.52030  1.0000 -0.1200243301
C   C13       1.0  0.98560  0.23470  0.56880  1.0000 0.0592322159
C   C14       1.0  0.51440  0.73470  0.43120  1.0000 0.0592322159
C   C15       1.0  0.09380  0.20410  0.57860  1.0000 -0.1306320416
C   C16       1.0  0.40620  0.70410  0.42140  1.0000 -0.1306320416
C   C17       1.0  0.11770  0.18210  0.50350  1.0000 -0.1790330951
C   C18       1.0  0.38230  0.68210  0.49650  1.0000 -0.1790330951
C   C19       1.0  0.96760  0.26090  0.64880  1.0000 0.0806297864
C   C20       1.0  0.53240  0.76090  0.35120  1.0000 0.0806297864
C   C21       1.0  0.00600  0.30250  0.64350  1.0000 -0.2000840475
C   C22       1.0  0.49400  0.80250  0.35650  1.0000 -0.2000840475
C   C23       1.0  0.99270  0.33030  0.71280  1.0000 0.0806297864
C   C24       1.0  0.50730  0.83030  0.28720  1.0000 0.0806297864
C   C25       1.0  0.93560  0.31470  0.78510  1.0000 -0.2075365653
C   C26       1.0  0.56440  0.81470  0.21490  1.0000 -0.2075365653
C   C27       1.0  0.89340  0.27320  0.79140  1.0000 0.0806297864
C   C28       1.0  0.60660  0.77320  0.20860  1.0000 0.0806297864
C   C29       1.0  0.91290  0.24660  0.72100  1.0000 -0.1941238214
C   C30       1.0  0.58710  0.74660  0.27900  1.0000 -0.1941238214
C   C31       1.0  0.82490  0.25830  0.86630  1.0000 0.0592322159
C   C32       1.0  0.67510  0.75830  0.13370  1.0000 0.0592322159
C   C33       1.0  0.82760  0.21650  0.89200  1.0000 -0.1306320416
C   C34       1.0  0.67240  0.71650  0.10800  1.0000 -0.1306320416
C   C35       1.0  0.76750  0.20250  0.96380  1.0000 -0.1941238214
C   C36       1.0  0.73250  0.70250  0.03620  1.0000 -0.1941238214
C   C37       1.0  0.69530  0.23020  0.00800  1.0000 0.1543388794
C   C38       1.0  0.80470  0.73020  0.99200  1.0000 0.1543388794
C   C39       1.0  0.69190  0.27190  0.98530  1.0000 -0.1635190529
C   C40       1.0  0.80810  0.77190  0.01470  1.0000 -0.1635190529
C   C41       1.0  0.75590  0.28550  0.91560  1.0000 -0.1306320416
C   C42       1.0  0.74410  0.78550  0.08440  1.0000 -0.1306320416
C   C43       1.0  0.55120  0.18020  0.07850  1.0000 0.0957686881
C   C44       1.0  0.94880  0.68020  0.92150  1.0000 0.0957686881
C   C45       1.0  0.53120  0.21250  0.19900  1.0000 -0.0323567458
C   C46       1.0  0.96880  0.71250  0.80100  1.0000 -0.0323567458
C   C47       1.0  0.60990  0.23780  0.15550  1.0000 -0.1070796537
C   C48       1.0  0.89010  0.73780  0.84450  1.0000 -0.0994229916
C   C49       1.0  0.03670  0.37390  0.71210  1.0000 0.0592322159
C   C50       1.0  0.46330  0.87390  0.28790  1.0000 0.0592322159
C   C51       1.0  0.10910  0.39390  0.79550  1.0000 -0.1306320416
C   C52       1.0  0.39090  0.89390  0.20450  1.0000 -0.1306320416
C   C53       1.0  0.14640  0.43550  0.79360  1.0000 -0.1790330951
C   C54       1.0  0.35360  0.93550  0.20640  1.0000 -0.1790330951
C   C55       1.0  0.11550  0.45790  0.71110  1.0000 0.1559204737
C   C56       1.0  0.38450  0.95790  0.28890  1.0000 0.1559204737
C   C57       1.0  0.05100  0.43740  0.62910  1.0000 -0.1790330951
C   C58       1.0  0.44900  0.93740  0.37090  1.0000 -0.1790330951
C   C59       1.0  0.01220  0.39610  0.63040  1.0000 -0.1200243301
C   C60       1.0  0.48780  0.89610  0.36960  1.0000 -0.1200243301
C   C61       1.0  0.13870  0.52900  0.77350  1.0000 0.1129653236
C   C62       1.0  0.36130  0.02900  0.22650  1.0000 0.1129653236
C   C63       1.0  0.22770  0.55970  0.67290  1.0000 -0.0380170309
C   C64       1.0  0.27230  0.05970  0.32710  1.0000 -0.0380170309
C   C65       1.0  0.21030  0.52000  0.64620  1.0000 -0.0994229916
C   C66       1.0  0.28970  0.02000  0.35380  1.0000 -0.0994229916
C   C67       1.0  0.28830  0.10030  0.02530  1.0000 0.5249340067
C   C68       1.0  0.21170  0.60030  0.97470  1.0000 0.5252217184
C   C69       1.0  0.22410  0.08910  0.92530  1.0000 -0.0323567458
C   C70       1.0  0.27590  0.58910  0.07470  1.0000 -0.0323567458
C   C71       1.0  0.07300  0.09360  0.88300  1.0000 -0.0913342058
C   C72       1.0  0.42700  0.59360  0.11700  1.0000 -0.0913342058
C   C73       1.0  0.01820  0.08260  0.79020  1.0000 -0.2279886511
C   C74       1.0  0.48180  0.58260  0.20980  1.0000 -0.2279886511
C   C75       1.0  0.10720  0.06760  0.73730  1.0000 0.2623610626
C   C76       1.0  0.39280  0.56760  0.26270  1.0000 0.2623610626
C   C77       1.0  0.25850  0.06390  0.77750  1.0000 -0.2279886511
C   C78       1.0  0.24150  0.56390  0.22250  1.0000 -0.2279886511
C   C79       1.0  0.31670  0.07240  0.87340  1.0000 -0.0994229916
C   C80       1.0  0.18330  0.57240  0.12660  1.0000 -0.0994229916
C   C81       1.0  0.94900  0.07500  0.58640  1.0000 0.2419561724
C   C82       1.0  0.55100  0.57500  0.41360  1.0000 0.2419561724
C   C83       1.0  0.90930  0.11480  0.59500  1.0000 -0.2236415913
C   C84       1.0  0.59070  0.61480  0.40500  1.0000 -0.2236415913
C   C85       1.0  0.79670  0.13340  0.52650  1.0000 -0.0913342058
C   C86       1.0  0.70330  0.63340  0.47350  1.0000 -0.0913342058
C   C87       1.0  0.72150  0.11110  0.44780  1.0000 -0.0380170309
C   C88       1.0  0.77850  0.61110  0.55220  1.0000 -0.0380170309
C   C89       1.0  0.76300  0.07010  0.44030  1.0000 -0.0913342058
C   C90       1.0  0.73700  0.57010  0.55970  1.0000 -0.0913342058
C   C91       1.0  0.87770  0.05190  0.51140  1.0000 -0.235619696
C   C92       1.0  0.62230  0.55190  0.48860  1.0000 -0.235619696
C   C93       1.0  0.59500  0.13210  0.37510  1.0000 0.5445842276
C   C94       1.0  0.90500  0.63210  0.62490  1.0000 0.5445842276
C   C95       1.0  0.79100  0.83250  0.67590  1.0000 0.0905489976
C   C96       1.0  0.70900  0.33250  0.32410  1.0000 0.0905489976
C   C97       1.0  0.94520  0.85110  0.80270  1.0000 -0.0323567458
C   C98       1.0  0.55480  0.35110  0.19730  1.0000 -0.0323567458
C   C99       1.0  0.03020  0.83860  0.74420  1.0000 -0.1070796537
C   C100      1.0  0.46980  0.33860  0.25580  1.0000 -0.1070796537
C   C101      1.0  0.96570  0.80760  0.58480  1.0000 0.1543388794
C   C102      1.0  0.53430  0.30760  0.41520  1.0000 0.1543388794
C   C103      1.0  0.07900  0.77890  0.59690  1.0000 -0.1653734167
C   C104      1.0  0.42100  0.27890  0.40310  1.0000 -0.1653734167
C   C105      1.0  0.10210  0.75850  0.52030  1.0000 -0.1200243301
C   C106      1.0  0.39790  0.25850  0.47970  1.0000 -0.1200243301
C   C107      1.0  0.01440  0.76530  0.43120  1.0000 0.0592322159
C   C108      1.0  0.48560  0.26530  0.56880  1.0000 0.0592322159
C   C109      1.0  0.90620  0.79590  0.42140  1.0000 -0.1306320416
C   C110      1.0  0.59380  0.29590  0.57860  1.0000 -0.1306320416
C   C111      1.0  0.88230  0.81790  0.49650  1.0000 -0.1790330951
C   C112      1.0  0.61770  0.31790  0.50350  1.0000 -0.1790330951
C   C113      1.0  0.03240  0.73910  0.35120  1.0000 0.0806297864
C   C114      1.0  0.46760  0.23910  0.64880  1.0000 0.0806297864
C   C115      1.0  0.99400  0.69750  0.35650  1.0000 -0.2000840475
C   C116      1.0  0.50600  0.19750  0.64350  1.0000 -0.2000840475
C   C117      1.0  0.00730  0.66970  0.28720  1.0000 0.0806297864
C   C118      1.0  0.49270  0.16970  0.71280  1.0000 0.0806297864
C   C119      1.0  0.06440  0.68530  0.21490  1.0000 -0.2075365653
C   C120      1.0  0.43560  0.18530  0.78510  1.0000 -0.2075365653
C   C121      1.0  0.10660  0.72680  0.20860  1.0000 0.0806297864
C   C122      1.0  0.39340  0.22680  0.79140  1.0000 0.0806297864
C   C123      1.0  0.08710  0.75340  0.27900  1.0000 -0.1941238214
C   C124      1.0  0.41290  0.25340  0.72100  1.0000 -0.1941238214
C   C125      1.0  0.17510  0.74170  0.13370  1.0000 0.0592322159
C   C126      1.0  0.32490  0.24170  0.86630  1.0000 0.0592322159
C   C127      1.0  0.17240  0.78350  0.10800  1.0000 -0.1306320416
C   C128      1.0  0.32760  0.28350  0.89200  1.0000 -0.1306320416
C   C129      1.0  0.23250  0.79750  0.03620  1.0000 -0.1941238214
C   C130      1.0  0.26750  0.29750  0.96380  1.0000 -0.1941238214
C   C131      1.0  0.30470  0.76980  0.99200  1.0000 0.1543388794
C   C132      1.0  0.19530  0.26980  0.00800  1.0000 0.1543388794
C   C133      1.0  0.30810  0.72810  0.01470  1.0000 -0.1635190529
C   C134      1.0  0.19190  0.22810  0.98530  1.0000 -0.1635190529
C   C135      1.0  0.24410  0.71450  0.08440  1.0000 -0.1306320416
C   C136      1.0  0.25590  0.21450  0.91560  1.0000 -0.1306320416
C   C137      1.0  0.44880  0.81980  0.92150  1.0000 0.0957686881
C   C138      1.0  0.05120  0.31980  0.07850  1.0000 0.0957686881
C   C139      1.0  0.46880  0.78750  0.80100  1.0000 -0.0323567458
C   C140      1.0  0.03120  0.28750  0.19900  1.0000 -0.0323567458
C   C141      1.0  0.39010  0.76220  0.84450  1.0000 -0.1070796537
C   C142      1.0  0.10990  0.26220  0.15550  1.0000 -0.1070796537
C   C143      1.0  0.96330  0.62610  0.28790  1.0000 0.0592322159
C   C144      1.0  0.53670  0.12610  0.71210  1.0000 0.0592322159
C   C145      1.0  0.89090  0.60610  0.20450  1.0000 -0.1306320416
C   C146      1.0  0.60910  0.10610  0.79550  1.0000 -0.1306320416
C   C147      1.0  0.85360  0.56450  0.20640  1.0000 -0.1790330951
C   C148      1.0  0.64640  0.06450  0.79360  1.0000 -0.1790330951
C   C149      1.0  0.88450  0.54210  0.28890  1.0000 0.1559204737
C   C150      1.0  0.61550  0.04210  0.71110  1.0000 0.1559204737
C   C151      1.0  0.94900  0.56260  0.37090  1.0000 -0.1790330951
C   C152      1.0  0.55100  0.06260  0.62910  1.0000 -0.1790330951
C   C153      1.0  0.98780  0.60390  0.36960  1.0000 -0.1200243301
C   C154      1.0  0.51220  0.10390  0.63040  1.0000 -0.1200243301
C   C155      1.0  0.86130  0.47100  0.22650  1.0000 0.1129653236
C   C156      1.0  0.63870  0.97100  0.77350  1.0000 0.1129653236
C   C157      1.0  0.77230  0.44030  0.32710  1.0000 -0.0380170309
C   C158      1.0  0.72770  0.94030  0.67290  1.0000 -0.0380170309
C   C159      1.0  0.78970  0.48000  0.35380  1.0000 -0.0994229916
C   C160      1.0  0.71030  0.98000  0.64620  1.0000 -0.0994229916
C   C161      1.0  0.71170  0.89970  0.97470  1.0000 0.5249340067
C   C162      1.0  0.78830  0.39970  0.02530  1.0000 0.5249340067
C   C163      1.0  0.77590  0.91090  0.07470  1.0000 -0.0323567458
C   C164      1.0  0.72410  0.41090  0.92530  1.0000 -0.0323567458
C   C165      1.0  0.92700  0.90640  0.11700  1.0000 -0.0913342058
C   C166      1.0  0.57300  0.40640  0.88300  1.0000 -0.0913342058
C   C167      1.0  0.98180  0.91740  0.20980  1.0000 -0.2279886511
C   C168      1.0  0.51820  0.41740  0.79020  1.0000 -0.2279886511
C   C169      1.0  0.89280  0.93240  0.26270  1.0000 0.2623610626
C   C170      1.0  0.60720  0.43240  0.73730  1.0000 0.2623610626
C   C171      1.0  0.74150  0.93610  0.22250  1.0000 -0.2279886511
C   C172      1.0  0.75850  0.43610  0.77750  1.0000 -0.2279886511
C   C173      1.0  0.68330  0.92760  0.12660  1.0000 -0.0994229916
C   C174      1.0  0.81670  0.42760  0.87340  1.0000 -0.0994229916
C   C175      1.0  0.05100  0.92500  0.41360  1.0000 0.2419561724
C   C176      1.0  0.44900  0.42500  0.58640  1.0000 0.2419561724
C   C177      1.0  0.09070  0.88520  0.40500  1.0000 -0.2236415913
C   C178      1.0  0.40930  0.38520  0.59500  1.0000 -0.2236415913
C   C179      1.0  0.20330  0.86660  0.47350  1.0000 -0.0913342058
C   C180      1.0  0.29670  0.36660  0.52650  1.0000 -0.0913342058
C   C181      1.0  0.27850  0.88890  0.55220  1.0000 -0.0380170309
C   C182      1.0  0.22150  0.38890  0.44780  1.0000 -0.0380170309
C   C183      1.0  0.23700  0.92990  0.55970  1.0000 -0.0913342058
C   C184      1.0  0.26300  0.42990  0.44030  1.0000 -0.0913342058
C   C185      1.0  0.12230  0.94810  0.48860  1.0000 -0.235619696
C   C186      1.0  0.37770  0.44810  0.51140  1.0000 -0.235619696
C   C187      1.0  0.40500  0.86790  0.62490  1.0000 0.5445842276
C   C188      1.0  0.09500  0.36790  0.37510  1.0000 0.545179082
N   N1        1.0  0.20540  0.15270  0.24140  1.0000 -0.294450747
N   N2        1.0  0.29460  0.65270  0.75860  1.0000 -0.2950842251
N   N3        1.0  0.06960  0.17330  0.33600  1.0000 0.001971676
N   N4        1.0  0.43040  0.67330  0.66400  1.0000 0.001971676
N   N5        1.0  0.49480  0.17680  0.15180  1.0000 -0.2692964007
N   N6        1.0  0.00520  0.67680  0.84820  1.0000 -0.2692964007
N   N7        1.0  0.62550  0.21650  0.07930  1.0000 0.001971676
N   N8        1.0  0.87450  0.71650  0.92070  1.0000 0.001971676
N   N9        1.0  0.18210  0.56600  0.75440  1.0000 -0.2692964007
N   N10       1.0  0.31790  0.06600  0.24560  1.0000 -0.2750398089
N   N11       1.0  0.15510  0.50040  0.71090  1.0000 0.001971676
N   N12       1.0  0.34490  0.00040  0.28910  1.0000 0.001971676
N   N13       1.0  0.79460  0.84730  0.75860  1.0000 -0.2950842251
N   N14       1.0  0.70540  0.34730  0.24140  1.0000 -0.294450747
N   N15       1.0  0.93040  0.82670  0.66400  1.0000 0.001971676
N   N16       1.0  0.56960  0.32670  0.33600  1.0000 0.001971676
N   N17       1.0  0.50520  0.82320  0.84820  1.0000 -0.2692964007
N   N18       1.0  0.99480  0.32320  0.15180  1.0000 -0.2692964007
N   N19       1.0  0.37450  0.78350  0.92070  1.0000 0.001971676
N   N20       1.0  0.12550  0.28350  0.07930  1.0000 0.001971676
N   N21       1.0  0.81790  0.43400  0.24560  1.0000 -0.2750398089
N   N22       1.0  0.68210  0.93400  0.75440  1.0000 -0.2750398089
N   N23       1.0  0.84490  0.49960  0.28910  1.0000 0.001971676
N   N24       1.0  0.65510  0.99960  0.71090  1.0000 0.001971676
O   O1        1.0  0.41710  0.08710  0.06880  1.0000 -0.5669301619
O   O2        1.0  0.08290  0.58710  0.93120  1.0000 -0.5669301619
O   O3        1.0  0.21340  0.12370  0.06130  1.0000 -0.5297416468
O   O4        1.0  0.28660  0.62370  0.93870  1.0000 -0.5297416468
O   O5        1.0  0.06180  0.05460  0.64850  1.0000 -0.2000840475
O   O6        1.0  0.43820  0.55460  0.35150  1.0000 -0.2000840475
O   O7        1.0  0.53420  0.16270  0.40090  1.0000 -0.5788351764
O   O8        1.0  0.96580  0.66270  0.59910  1.0000 -0.5788351764
O   O9        1.0  0.56880  0.11470  0.29640  1.0000 -0.5514002909
O   O10       1.0  0.93120  0.61470  0.70360  1.0000 -0.5514002909
O   O11       1.0  0.58290  0.91290  0.93120  1.0000 -0.5669301619
O   O12       1.0  0.91710  0.41290  0.06880  1.0000 -0.5669301619
O   O13       1.0  0.78660  0.87630  0.93870  1.0000 -0.5297416468
O   O14       1.0  0.71340  0.37630  0.06130  1.0000 -0.5297416468
O   O15       1.0  0.93820  0.94540  0.35150  1.0000 -0.2000840475
O   O16       1.0  0.56180  0.44540  0.64850  1.0000 -0.2000840475
O   O17       1.0  0.46580  0.83730  0.59910  1.0000 -0.5788351764
O   O18       1.0  0.03420  0.33730  0.40090  1.0000 -0.5788351764
O   O19       1.0  0.43120  0.88530  0.70360  1.0000 -0.5514002909
O   O20       1.0  0.06880  0.38530  0.29640  1.0000 -0.5514002909
