# DDEC6 charges by PACMAN v1.1 (https://github.com/mtap-research/PACMAN-charge/)
data_2014[Mg][nan]3[FSR]2
_chemical_formula_sum              "Mg4 H32 C52 N4 O20"
_cell_length_a       12.4861
_cell_length_b       12.4861
_cell_length_c       13.4128
_cell_angle_alpha    62.7637
_cell_angle_beta     117.236
_cell_angle_gamma    92.6006

_symmetry_space_group_name_H-M    "P 1"
_symmetry_Int_Tables_number       1

loop_
  _symmetry_equiv_pos_as_xyz
  'x, y, z'

loop_
  _atom_site_type_symbol
  _atom_site_label
  _atom_site_symmetry_multiplicity
  _atom_site_fract_x
  _atom_site_fract_y
  _atom_site_fract_z
  _atom_site_occupancy
  _atom_site_charge
Mg  Mg1       1.0  0.69501  0.69501  0.75000  1.0000 1.3512403784
Mg  Mg2       1.0  0.30499  0.30499  0.25000  1.0000 1.3512403784
Mg  Mg3       1.0  0.50000  0.00000  0.50000  1.0000 1.3512403784
Mg  Mg4       1.0  0.00000  0.50000  0.00000  1.0000 1.3512403784
H   H1        1.0  0.58100  0.65500  0.99000  1.0000 0.1308913745
H   H2        1.0  0.65500  0.58100  0.51000  1.0000 0.1308913745
H   H3        1.0  0.41900  0.34500  0.01000  1.0000 0.1308913745
H   H4        1.0  0.34500  0.41900  0.49000  1.0000 0.1308913745
H   H5        1.0  0.47000  0.54400  0.09700  1.0000 0.1308913745
H   H6        1.0  0.54400  0.47000  0.40300  1.0000 0.1308913745
H   H7        1.0  0.53000  0.45600  0.90300  1.0000 0.1308913745
H   H8        1.0  0.45600  0.53000  0.59700  1.0000 0.1308913745
H   H9        1.0  0.15700  0.73900  0.77000  1.0000 0.1122954456
H   H10       1.0  0.73900  0.15700  0.73000  1.0000 0.1122954456
H   H11       1.0  0.84300  0.26100  0.23000  1.0000 0.1122954456
H   H12       1.0  0.26100  0.84300  0.27000  1.0000 0.1122954456
H   H13       1.0  0.27100  0.84300  0.66700  1.0000 0.1122954456
H   H14       1.0  0.84300  0.27100  0.83300  1.0000 0.1122954456
H   H15       1.0  0.72900  0.15700  0.33300  1.0000 0.1122954456
H   H16       1.0  0.15700  0.72900  0.16700  1.0000 0.1122954456
H   H17       1.0  0.74100  0.81100  0.50400  1.0000 0.1399053911
H   H18       1.0  0.81100  0.74100  0.99600  1.0000 0.1399053911
H   H19       1.0  0.25900  0.18900  0.49600  1.0000 0.1399053911
H   H20       1.0  0.18900  0.25900  0.00400  1.0000 0.1399053911
H   H21       1.0  0.90100  0.85900  0.44700  1.0000 0.1399053911
H   H22       1.0  0.85900  0.90100  0.05300  1.0000 0.1399053911
H   H23       1.0  0.09900  0.14100  0.55300  1.0000 0.1399053911
H   H24       1.0  0.14100  0.09900  0.94700  1.0000 0.1399053911
H   H25       1.0  0.95300  0.09100  0.59600  1.0000 0.1399053911
H   H26       1.0  0.09100  0.95300  0.90400  1.0000 0.1399053911
H   H27       1.0  0.04700  0.90900  0.40400  1.0000 0.1399053911
H   H28       1.0  0.90900  0.04700  0.09600  1.0000 0.1399053911
H   H29       1.0  0.79500  0.03300  0.63600  1.0000 0.1308913745
H   H30       1.0  0.03300  0.79500  0.86400  1.0000 0.1308913745
H   H31       1.0  0.20500  0.96700  0.36400  1.0000 0.1308913745
H   H32       1.0  0.96700  0.20500  0.13600  1.0000 0.1308913745
C   C1        1.0  0.44023  0.76323  0.82280  1.0000 -0.019829947
C   C2        1.0  0.76323  0.44023  0.67720  1.0000 -0.019829947
C   C3        1.0  0.55977  0.23677  0.17720  1.0000 -0.019829947
C   C4        1.0  0.23677  0.55977  0.32280  1.0000 -0.019829947
C   C5        1.0  0.49950  0.67190  0.95030  1.0000 -0.0928479391
C   C6        1.0  0.67190  0.49950  0.54970  1.0000 -0.0928479391
C   C7        1.0  0.50050  0.32810  0.04970  1.0000 -0.0928479391
C   C8        1.0  0.32810  0.50050  0.45030  1.0000 -0.0928479391
C   C9        1.0  0.43330  0.60830  0.00950  1.0000 -0.1022367584
C   C10       1.0  0.60830  0.43330  0.49050  1.0000 -0.1022367584
C   C11       1.0  0.56670  0.39170  0.99050  1.0000 -0.1022367584
C   C12       1.0  0.39170  0.56670  0.50950  1.0000 -0.1022367584
C   C13       1.0  0.30594  0.63454  0.94160  1.0000 -0.019829947
C   C14       1.0  0.63454  0.30594  0.55840  1.0000 -0.019829947
C   C15       1.0  0.69406  0.36546  0.05840  1.0000 -0.019829947
C   C16       1.0  0.36546  0.69406  0.44160  1.0000 -0.019829947
C   C17       1.0  0.24630  0.72650  0.81430  1.0000 -0.1259448523
C   C18       1.0  0.72650  0.24630  0.68570  1.0000 -0.1259448523
C   C19       1.0  0.75370  0.27350  0.18570  1.0000 -0.1259448523
C   C20       1.0  0.27350  0.75370  0.31430  1.0000 -0.1259448523
C   C21       1.0  0.31310  0.79110  0.75610  1.0000 -0.1080628815
C   C22       1.0  0.79110  0.31310  0.74390  1.0000 -0.1080628815
C   C23       1.0  0.68690  0.20890  0.24390  1.0000 -0.1080628815
C   C24       1.0  0.20890  0.68690  0.25610  1.0000 -0.1080628815
C   C25       1.0  0.51253  0.82453  0.75520  1.0000 0.6268974063
C   C26       1.0  0.82453  0.51253  0.74480  1.0000 0.6268974063
C   C27       1.0  0.48747  0.17547  0.24480  1.0000 0.6268974063
C   C28       1.0  0.17547  0.48747  0.25520  1.0000 0.6268974063
C   C29       1.0  0.23588  0.55728  0.00520  1.0000 0.618134391
C   C30       1.0  0.55728  0.23588  0.49480  1.0000 0.618134391
C   C31       1.0  0.76412  0.44272  0.99480  1.0000 0.618134391
C   C32       1.0  0.44272  0.76412  0.50520  1.0000 0.618134391
C   C33       1.0  0.79190  0.86530  0.51850  1.0000 -0.0030843371
C   C34       1.0  0.86530  0.79190  0.98150  1.0000 -0.0030843371
C   C35       1.0  0.20810  0.13470  0.48150  1.0000 -0.0030843371
C   C36       1.0  0.13470  0.20810  0.01850  1.0000 -0.0030843371
C   C37       1.0  0.88410  0.89830  0.48790  1.0000 -0.1882406506
C   C38       1.0  0.89830  0.88410  0.01210  1.0000 -0.1882406506
C   C39       1.0  0.11590  0.10170  0.51210  1.0000 -0.1882406506
C   C40       1.0  0.10170  0.11590  0.98790  1.0000 -0.1882406506
C   C41       1.0  0.95051  0.98151  0.51650  1.0000 0.0957480487
C   C42       1.0  0.98151  0.95051  0.98350  1.0000 0.0957480487
C   C43       1.0  0.04949  0.01849  0.48350  1.0000 0.0957480487
C   C44       1.0  0.01849  0.04949  0.01650  1.0000 0.0957480487
C   C45       1.0  0.91775  0.03215  0.57470  1.0000 -0.1882406506
C   C46       1.0  0.03215  0.91775  0.92530  1.0000 -0.1951163444
C   C47       1.0  0.08225  0.96785  0.42530  1.0000 -0.1951163444
C   C48       1.0  0.96785  0.08225  0.07470  1.0000 -0.1882406506
C   C49       1.0  0.82469  0.99809  0.60290  1.0000 -0.0457243989
C   C50       1.0  0.99809  0.82469  0.89710  1.0000 -0.0457243989
C   C51       1.0  0.17531  0.00191  0.39710  1.0000 -0.0457243989
C   C52       1.0  0.00191  0.17531  0.10290  1.0000 -0.0457243989
N   N1        1.0  0.76569  0.91391  0.57720  1.0000 0.3225634215
N   N2        1.0  0.91391  0.76569  0.92280  1.0000 0.3225634215
N   N3        1.0  0.23431  0.08609  0.42280  1.0000 0.3225634215
N   N4        1.0  0.08609  0.23431  0.07720  1.0000 0.3225634215
O   O1        1.0  0.62494  0.77592  0.81467  1.0000 -0.6579953316
O   O2        1.0  0.77592  0.62494  0.68533  1.0000 -0.6579953316
O   O3        1.0  0.37506  0.22408  0.18533  1.0000 -0.6579953316
O   O4        1.0  0.22408  0.37506  0.31467  1.0000 -0.6579953316
O   O5        1.0  0.45657  0.91641  0.64541  1.0000 -0.6197680118
O   O6        1.0  0.91641  0.45657  0.85459  1.0000 -0.6197680118
O   O7        1.0  0.54343  0.08359  0.35459  1.0000 -0.6197680118
O   O8        1.0  0.08359  0.54343  0.14541  1.0000 -0.6197680118
O   O9        1.0  0.29902  0.47584  0.12010  1.0000 -0.6276693227
O   O10       1.0  0.47584  0.29902  0.37990  1.0000 -0.6276693227
O   O11       1.0  0.70098  0.52416  0.87990  1.0000 -0.6276693227
O   O12       1.0  0.52416  0.70098  0.62010  1.0000 -0.6276693227
O   O13       1.0  0.12032  0.58090  0.93773  1.0000 -0.6376560214
O   O14       1.0  0.58090  0.12032  0.56227  1.0000 -0.6376560214
O   O15       1.0  0.87968  0.41910  0.06227  1.0000 -0.6376560214
O   O16       1.0  0.41910  0.87968  0.43773  1.0000 -0.6376560214
O   O17       1.0  0.67917  0.87907  0.61033  1.0000 -0.6109959367
O   O18       1.0  0.87907  0.67917  0.88967  1.0000 -0.6109959367
O   O19       1.0  0.32083  0.12093  0.38967  1.0000 -0.6109959367
O   O20       1.0  0.12093  0.32083  0.11033  1.0000 -0.6109959367
