# DDEC6 charges by PACMAN v1.1 (https://github.com/mtap-research/PACMAN-charge/)
data_2014[Cd][lvt]3[FSR]1
_chemical_formula_sum              "Cd8 H104 C160 N16 O40"
_cell_length_a       25.8118
_cell_length_b       21.0112
_cell_length_c       17.7847
_cell_angle_alpha    82.9662
_cell_angle_beta     53.8902
_cell_angle_gamma    43.1436

_symmetry_space_group_name_H-M    "P 1"
_symmetry_Int_Tables_number       1

loop_
  _symmetry_equiv_pos_as_xyz
  'x, y, z'

loop_
  _atom_site_type_symbol
  _atom_site_label
  _atom_site_symmetry_multiplicity
  _atom_site_fract_x
  _atom_site_fract_y
  _atom_site_fract_z
  _atom_site_occupancy
  _atom_site_charge
Cd  Cd1       1.0  0.57097  0.20011  0.06803  1.0000 0.952548538
Cd  Cd2       1.0  0.20011  0.57097  0.16089  1.0000 0.952548538
Cd  Cd3       1.0  0.06803  0.16089  0.57097  1.0000 0.952548538
Cd  Cd4       1.0  0.16089  0.06803  0.20011  1.0000 0.952548538
Cd  Cd5       1.0  0.67903  0.04989  0.18197  1.0000 0.952548538
Cd  Cd6       1.0  0.04989  0.67903  0.08911  1.0000 0.952548538
Cd  Cd7       1.0  0.18197  0.08911  0.67903  1.0000 0.952548538
Cd  Cd8       1.0  0.08911  0.18197  0.04989  1.0000 0.952548538
H   H1        1.0  0.40510  0.46290  0.41870  1.0000 0.1453421457
H   H2        1.0  0.46290  0.40510  0.71330  1.0000 0.1453421457
H   H3        1.0  0.41870  0.71330  0.40510  1.0000 0.1453421457
H   H4        1.0  0.71330  0.41870  0.46290  1.0000 0.1453421457
H   H5        1.0  0.84490  0.78710  0.83130  1.0000 0.1453421457
H   H6        1.0  0.78710  0.84490  0.53670  1.0000 0.1453421457
H   H7        1.0  0.83130  0.53670  0.84490  1.0000 0.1453421457
H   H8        1.0  0.53670  0.83130  0.78710  1.0000 0.1453421457
H   H9        1.0  0.30600  0.63360  0.44040  1.0000 0.1235956444
H   H10       1.0  0.63360  0.30600  0.62000  1.0000 0.1235956444
H   H11       1.0  0.44040  0.62000  0.30600  1.0000 0.1235956444
H   H12       1.0  0.62000  0.44040  0.63360  1.0000 0.1235956444
H   H13       1.0  0.94400  0.61640  0.80960  1.0000 0.1235956444
H   H14       1.0  0.61640  0.94400  0.63000  1.0000 0.1235956444
H   H15       1.0  0.80960  0.63000  0.94400  1.0000 0.1235956444
H   H16       1.0  0.63000  0.80960  0.61640  1.0000 0.1235956444
H   H17       1.0  0.24920  0.68640  0.35740  1.0000 0.1374933315
H   H18       1.0  0.68640  0.24920  0.70700  1.0000 0.1374933315
H   H19       1.0  0.35740  0.70700  0.24920  1.0000 0.1374933315
H   H20       1.0  0.70700  0.35740  0.68640  1.0000 0.1374933315
H   H21       1.0  0.00080  0.56360  0.89260  1.0000 0.1374933315
H   H22       1.0  0.56360  0.00080  0.54300  1.0000 0.1374933315
H   H23       1.0  0.89260  0.54300  0.00080  1.0000 0.1374933315
H   H24       1.0  0.54300  0.89260  0.56360  1.0000 0.1374933315
H   H25       1.0  0.36780  0.59000  0.13860  1.0000 0.1374933315
H   H26       1.0  0.59000  0.36780  0.90360  1.0000 0.1374933315
H   H27       1.0  0.13860  0.90360  0.36780  1.0000 0.1374933315
H   H28       1.0  0.90360  0.13860  0.59000  1.0000 0.1374933315
H   H29       1.0  0.88220  0.66000  0.11140  1.0000 0.1374933315
H   H30       1.0  0.66000  0.88220  0.34640  1.0000 0.1374933315
H   H31       1.0  0.11140  0.34640  0.88220  1.0000 0.1374933315
H   H32       1.0  0.34640  0.11140  0.66000  1.0000 0.1374933315
H   H33       1.0  0.34100  0.70960  0.10240  1.0000 0.1119625248
H   H34       1.0  0.70960  0.34100  0.84700  1.0000 0.1119625248
H   H35       1.0  0.10240  0.84700  0.34100  1.0000 0.1119625248
H   H36       1.0  0.84700  0.10240  0.70960  1.0000 0.1119625248
H   H37       1.0  0.90900  0.54040  0.14760  1.0000 0.1119625248
H   H38       1.0  0.54040  0.90900  0.40300  1.0000 0.1119625248
H   H39       1.0  0.14760  0.40300  0.90900  1.0000 0.1119625248
H   H40       1.0  0.40300  0.14760  0.54040  1.0000 0.1119625248
H   H41       1.0  0.50180  0.11280  0.18620  1.0000 0.1119625248
H   H42       1.0  0.11280  0.50180  0.19920  1.0000 0.1119625248
H   H43       1.0  0.18620  0.19920  0.50180  1.0000 0.1119625248
H   H44       1.0  0.19920  0.18620  0.11280  1.0000 0.1119625248
H   H45       1.0  0.74820  0.13720  0.06380  1.0000 0.1119625248
H   H46       1.0  0.13720  0.74820  0.05080  1.0000 0.1119625248
H   H47       1.0  0.06380  0.05080  0.74820  1.0000 0.1119625248
H   H48       1.0  0.05080  0.06380  0.13720  1.0000 0.1119625248
H   H49       1.0  0.42470  0.08290  0.21070  1.0000 0.130912425
H   H50       1.0  0.08290  0.42470  0.28170  1.0000 0.130912425
H   H51       1.0  0.21070  0.28170  0.42470  1.0000 0.130912425
H   H52       1.0  0.28170  0.21070  0.08290  1.0000 0.130912425
H   H53       1.0  0.82530  0.16710  0.03930  1.0000 0.130912425
H   H54       1.0  0.16710  0.82530  0.96830  1.0000 0.130912425
H   H55       1.0  0.03930  0.96830  0.82530  1.0000 0.130912425
H   H56       1.0  0.96830  0.03930  0.16710  1.0000 0.130912425
H   H57       1.0  0.39080  0.19740  0.02360  1.0000 0.130912425
H   H58       1.0  0.19740  0.39080  0.38820  1.0000 0.130912425
H   H59       1.0  0.02360  0.38820  0.39080  1.0000 0.130912425
H   H60       1.0  0.38820  0.02360  0.19740  1.0000 0.130912425
H   H61       1.0  0.85920  0.05260  0.22640  1.0000 0.130912425
H   H62       1.0  0.05260  0.85920  0.86180  1.0000 0.130912425
H   H63       1.0  0.22640  0.86180  0.85920  1.0000 0.130912425
H   H64       1.0  0.86180  0.22640  0.05260  1.0000 0.130912425
H   H65       1.0  0.46160  0.23080  0.01060  1.0000 0.1119625248
H   H66       1.0  0.23080  0.46160  0.29700  1.0000 0.1119625248
H   H67       1.0  0.01060  0.29700  0.46160  1.0000 0.1119625248
H   H68       1.0  0.29700  0.01060  0.23080  1.0000 0.1119625248
H   H69       1.0  0.78840  0.01920  0.23940  1.0000 0.1119625248
H   H70       1.0  0.01920  0.78840  0.95300  1.0000 0.1119625248
H   H71       1.0  0.23940  0.95300  0.78840  1.0000 0.1119625248
H   H72       1.0  0.95300  0.23940  0.01920  1.0000 0.1119625248
H   H73       1.0  0.43920  0.72740  0.83600  1.0000 0.1119625248
H   H74       1.0  0.72740  0.43920  0.99740  1.0000 0.1119625248
H   H75       1.0  0.83600  0.99740  0.43920  1.0000 0.1119625248
H   H76       1.0  0.99740  0.83600  0.72740  1.0000 0.1119625248
H   H77       1.0  0.81080  0.52260  0.41400  1.0000 0.1119625248
H   H78       1.0  0.52260  0.81080  0.25260  1.0000 0.1119625248
H   H79       1.0  0.41400  0.25260  0.81080  1.0000 0.1119625248
H   H80       1.0  0.25260  0.41400  0.52260  1.0000 0.1119625248
H   H81       1.0  0.35960  0.60480  0.90280  1.0000 0.1119625248
H   H82       1.0  0.60480  0.35960  0.13280  1.0000 0.1119625248
H   H83       1.0  0.90280  0.13280  0.35960  1.0000 0.1119625248
H   H84       1.0  0.13280  0.90280  0.60480  1.0000 0.1119625248
H   H85       1.0  0.89040  0.64520  0.34720  1.0000 0.1119625248
H   H86       1.0  0.64520  0.89040  0.11720  1.0000 0.1119625248
H   H87       1.0  0.34720  0.11720  0.89040  1.0000 0.1119625248
H   H88       1.0  0.11720  0.34720  0.64520  1.0000 0.1119625248
H   H89       1.0  0.41920  0.65180  0.78840  1.0000 0.1119625248
H   H90       1.0  0.65180  0.41920  0.14060  1.0000 0.1119625248
H   H91       1.0  0.78840  0.14060  0.41920  1.0000 0.1119625248
H   H92       1.0  0.14060  0.78840  0.65180  1.0000 0.1119625248
H   H93       1.0  0.83080  0.59820  0.46160  1.0000 0.1119625248
H   H94       1.0  0.59820  0.83080  0.10940  1.0000 0.1119625248
H   H95       1.0  0.46160  0.10940  0.83080  1.0000 0.1119625248
H   H96       1.0  0.10940  0.46160  0.59820  1.0000 0.1119625248
H   H97       1.0  0.38690  0.76730  0.99910  1.0000 0.130912425
H   H98       1.0  0.76730  0.38690  0.84670  1.0000 0.130912425
H   H99       1.0  0.99910  0.84670  0.38690  1.0000 0.130912425
H   H100      1.0  0.84670  0.99910  0.76730  1.0000 0.130912425
H   H101      1.0  0.86310  0.48270  0.25090  1.0000 0.130912425
H   H102      1.0  0.48270  0.86310  0.40330  1.0000 0.130912425
H   H103      1.0  0.25090  0.40330  0.86310  1.0000 0.130912425
H   H104      1.0  0.40330  0.25090  0.48270  1.0000 0.130912425
C   C1        1.0  0.48277  0.30057  0.30383  1.0000 0.5419628439
C   C2        1.0  0.30057  0.48277  0.91283  1.0000 0.5419628439
C   C3        1.0  0.30383  0.91283  0.48277  1.0000 0.5419628439
C   C4        1.0  0.91283  0.30383  0.30057  1.0000 0.5419628439
C   C5        1.0  0.76723  0.94943  0.94617  1.0000 0.5419628439
C   C6        1.0  0.94943  0.76723  0.33717  1.0000 0.5419628439
C   C7        1.0  0.94617  0.33717  0.76723  1.0000 0.5419628439
C   C8        1.0  0.33717  0.94617  0.94943  1.0000 0.5419628439
C   C9        1.0  0.41135  0.41375  0.32005  1.0000 -0.0045482832
C   C10       1.0  0.41375  0.41135  0.85485  1.0000 -0.0045482832
C   C11       1.0  0.32005  0.85485  0.41135  1.0000 -0.0045482832
C   C12       1.0  0.85485  0.32005  0.41375  1.0000 -0.0045482832
C   C13       1.0  0.83865  0.83625  0.92995  1.0000 -0.0045482832
C   C14       1.0  0.83625  0.83865  0.39515  1.0000 -0.0045482832
C   C15       1.0  0.92995  0.39515  0.83865  1.0000 -0.0045482832
C   C16       1.0  0.39515  0.92995  0.83625  1.0000 -0.0045482832
C   C17       1.0  0.38330  0.48470  0.38430  1.0000 -0.148700382
C   C18       1.0  0.48470  0.38330  0.74770  1.0000 -0.148700382
C   C19       1.0  0.38430  0.74770  0.38330  1.0000 -0.148700382
C   C20       1.0  0.74770  0.38430  0.48470  1.0000 -0.148700382
C   C21       1.0  0.86670  0.76530  0.86570  1.0000 -0.148700382
C   C22       1.0  0.76530  0.86670  0.50230  1.0000 -0.148700382
C   C23       1.0  0.86570  0.50230  0.86670  1.0000 -0.148700382
C   C24       1.0  0.50230  0.86570  0.76530  1.0000 -0.148700382
C   C25       1.0  0.32350  0.58670  0.39830  1.0000 -0.0788345667
C   C26       1.0  0.58670  0.32350  0.69150  1.0000 -0.0788345667
C   C27       1.0  0.39830  0.69150  0.32350  1.0000 -0.0788345667
C   C28       1.0  0.69150  0.39830  0.58670  1.0000 -0.0788345667
C   C29       1.0  0.92650  0.66330  0.85170  1.0000 -0.0788345667
C   C30       1.0  0.66330  0.92650  0.55850  1.0000 -0.0788345667
C   C31       1.0  0.85170  0.55850  0.92650  1.0000 -0.0788345667
C   C32       1.0  0.55850  0.85170  0.66330  1.0000 -0.0788345667
C   C33       1.0  0.29050  0.61730  0.34790  1.0000 -0.1774877267
C   C34       1.0  0.61730  0.29050  0.74430  1.0000 -0.1774877267
C   C35       1.0  0.34790  0.74430  0.29050  1.0000 -0.1774877267
C   C36       1.0  0.74430  0.34790  0.61730  1.0000 -0.1774877267
C   C37       1.0  0.95950  0.63270  0.90210  1.0000 -0.1774877267
C   C38       1.0  0.63270  0.95950  0.50570  1.0000 -0.1774877267
C   C39       1.0  0.90210  0.50570  0.95950  1.0000 -0.1774877267
C   C40       1.0  0.50570  0.90210  0.63270  1.0000 -0.1774877267
C   C41       1.0  0.31668  0.54908  0.28452  1.0000 0.0439805403
C   C42       1.0  0.54908  0.31668  0.84972  1.0000 0.0439805403
C   C43       1.0  0.28452  0.84972  0.31668  1.0000 0.0439805403
C   C44       1.0  0.84972  0.28452  0.54908  1.0000 0.0439805403
C   C45       1.0  0.93332  0.70092  0.96548  1.0000 0.0439805403
C   C46       1.0  0.70092  0.93332  0.40028  1.0000 0.0439805403
C   C47       1.0  0.96548  0.40028  0.93332  1.0000 0.0439805403
C   C48       1.0  0.40028  0.96548  0.70092  1.0000 0.0439805403
C   C49       1.0  0.28183  0.58063  0.22917  1.0000 0.3444630547
C   C50       1.0  0.58063  0.28183  0.90837  1.0000 0.3444630547
C   C51       1.0  0.22917  0.90837  0.28183  1.0000 0.3444630547
C   C52       1.0  0.90837  0.22917  0.58063  1.0000 0.3444630547
C   C53       1.0  0.96817  0.66937  0.02083  1.0000 0.3444630547
C   C54       1.0  0.66937  0.96817  0.34163  1.0000 0.3444630547
C   C55       1.0  0.02083  0.34163  0.96817  1.0000 0.3444630547
C   C56       1.0  0.34163  0.02083  0.66937  1.0000 0.3444630547
C   C57       1.0  0.32168  0.59888  0.15172  1.0000 -0.4653332737
C   C58       1.0  0.59888  0.32168  0.92772  1.0000 -0.4653332737
C   C59       1.0  0.15172  0.92772  0.32168  1.0000 -0.4653332737
C   C60       1.0  0.92772  0.15172  0.59888  1.0000 -0.4649235563
C   C61       1.0  0.92832  0.65112  0.09828  1.0000 -0.4649235563
C   C62       1.0  0.65112  0.92832  0.32228  1.0000 -0.4653332737
C   C63       1.0  0.09828  0.32228  0.92832  1.0000 -0.4653332737
C   C64       1.0  0.32228  0.09828  0.65112  1.0000 -0.4653332737
C   C65       1.0  0.29945  0.62985  0.08975  1.0000 0.3824419124
C   C66       1.0  0.62985  0.29945  0.98095  1.0000 0.3824419124
C   C67       1.0  0.08975  0.98095  0.29945  1.0000 0.3824419124
C   C68       1.0  0.98095  0.08975  0.62985  1.0000 0.3824419124
C   C69       1.0  0.95055  0.62015  0.16025  1.0000 0.3824419124
C   C70       1.0  0.62015  0.95055  0.26905  1.0000 0.3824419124
C   C71       1.0  0.16025  0.26905  0.95055  1.0000 0.3824419124
C   C72       1.0  0.26905  0.16025  0.62015  1.0000 0.3824419124
C   C73       1.0  0.34185  0.65525  0.01555  1.0000 0.0024663975
C   C74       1.0  0.65525  0.34185  0.98735  1.0000 0.0024663975
C   C75       1.0  0.01555  0.98735  0.34185  1.0000 0.0024663975
C   C76       1.0  0.98735  0.01555  0.65525  1.0000 0.0024663975
C   C77       1.0  0.90815  0.59475  0.23445  1.0000 0.0024663975
C   C78       1.0  0.59475  0.90815  0.26265  1.0000 0.0024663975
C   C79       1.0  0.23445  0.26265  0.90815  1.0000 0.0024663975
C   C80       1.0  0.26265  0.23445  0.59475  1.0000 0.0024663975
C   C81       1.0  0.35410  0.70030  0.04110  1.0000 -0.1225758301
C   C82       1.0  0.70030  0.35410  0.90450  1.0000 -0.1225758301
C   C83       1.0  0.04110  0.90450  0.35410  1.0000 -0.1225758301
C   C84       1.0  0.90450  0.04110  0.70030  1.0000 -0.1225758301
C   C85       1.0  0.89590  0.54970  0.20890  1.0000 -0.1225758301
C   C86       1.0  0.54970  0.89590  0.34550  1.0000 -0.1225758301
C   C87       1.0  0.20890  0.34550  0.89590  1.0000 -0.1225758301
C   C88       1.0  0.34550  0.20890  0.54970  1.0000 -0.1225758301
C   C89       1.0  0.47749  0.13149  0.15451  1.0000 0.0858306639
C   C90       1.0  0.13149  0.47749  0.23651  1.0000 0.0858306639
C   C91       1.0  0.15451  0.23651  0.47749  1.0000 0.0858306639
C   C92       1.0  0.23651  0.15451  0.13149  1.0000 0.0858306639
C   C93       1.0  0.77251  0.11851  0.09549  1.0000 0.0858306639
C   C94       1.0  0.11851  0.77251  0.01349  1.0000 0.0858306639
C   C95       1.0  0.09549  0.01349  0.77251  1.0000 0.0858306639
C   C96       1.0  0.01349  0.09549  0.11851  1.0000 0.0858306639
C   C97       1.0  0.43246  0.11186  0.16834  1.0000 -0.1974204494
C   C98       1.0  0.11186  0.43246  0.28734  1.0000 -0.1974204494
C   C99       1.0  0.16834  0.28734  0.43246  1.0000 -0.1974204494
C   C100      1.0  0.28734  0.16834  0.11186  1.0000 -0.1974204494
C   C101      1.0  0.81754  0.13814  0.08166  1.0000 -0.1974204494
C   C102      1.0  0.13814  0.81754  0.96266  1.0000 -0.1974204494
C   C103      1.0  0.08166  0.96266  0.81754  1.0000 -0.1974204494
C   C104      1.0  0.96266  0.08166  0.13814  1.0000 -0.1974204494
C   C105      1.0  0.39895  0.13535  0.11905  1.0000 0.1026278349
C   C106      1.0  0.13535  0.39895  0.34665  1.0000 0.1026278349
C   C107      1.0  0.11905  0.34665  0.39895  1.0000 0.1026278349
C   C108      1.0  0.34665  0.11905  0.13535  1.0000 0.1026278349
C   C109      1.0  0.85105  0.11465  0.13095  1.0000 0.1026278349
C   C110      1.0  0.11465  0.85105  0.90335  1.0000 0.1026278349
C   C111      1.0  0.13095  0.90335  0.85105  1.0000 0.1026278349
C   C112      1.0  0.90335  0.13095  0.11465  1.0000 0.1026278349
C   C113      1.0  0.41160  0.18040  0.05860  1.0000 -0.1974204494
C   C114      1.0  0.18040  0.41160  0.34940  1.0000 -0.1974204494
C   C115      1.0  0.05860  0.34940  0.41160  1.0000 -0.1974204494
C   C116      1.0  0.34940  0.05860  0.18040  1.0000 -0.1974204494
C   C117      1.0  0.83840  0.06960  0.19140  1.0000 -0.1974204494
C   C118      1.0  0.06960  0.83840  0.90060  1.0000 -0.1974204494
C   C119      1.0  0.19140  0.90060  0.83840  1.0000 -0.1974204494
C   C120      1.0  0.90060  0.19140  0.06960  1.0000 -0.1974204494
C   C121      1.0  0.45494  0.19974  0.05046  1.0000 0.1026278349
C   C122      1.0  0.19974  0.45494  0.29486  1.0000 0.1026278349
C   C123      1.0  0.05046  0.29486  0.45494  1.0000 0.1026278349
C   C124      1.0  0.29486  0.05046  0.19974  1.0000 0.1026278349
C   C125      1.0  0.79506  0.05026  0.19954  1.0000 0.1026278349
C   C126      1.0  0.05026  0.79506  0.95514  1.0000 0.1026278349
C   C127      1.0  0.19954  0.95514  0.79506  1.0000 0.1026278349
C   C128      1.0  0.95514  0.19954  0.05026  1.0000 0.1026278349
C   C129      1.0  0.41320  0.71060  0.88160  1.0000 -0.0788345667
C   C130      1.0  0.71060  0.41320  0.99460  1.0000 -0.0788345667
C   C131      1.0  0.88160  0.99460  0.41320  1.0000 -0.0788345667
C   C132      1.0  0.99460  0.88160  0.71060  1.0000 -0.0788345667
C   C133      1.0  0.83680  0.53940  0.36840  1.0000 -0.0788345667
C   C134      1.0  0.53940  0.83680  0.25540  1.0000 -0.0788345667
C   C135      1.0  0.36840  0.25540  0.83680  1.0000 -0.0788345667
C   C136      1.0  0.25540  0.36840  0.53940  1.0000 -0.0788345667
C   C137      1.0  0.36670  0.63610  0.92070  1.0000 -0.1360994721
C   C138      1.0  0.63610  0.36670  0.07650  1.0000 -0.1360994721
C   C139      1.0  0.92070  0.07650  0.36670  1.0000 -0.1360994721
C   C140      1.0  0.07650  0.92070  0.63610  1.0000 -0.1360994721
C   C141      1.0  0.88330  0.61390  0.32930  1.0000 -0.1360994721
C   C142      1.0  0.61390  0.88330  0.17350  1.0000 -0.1360994721
C   C143      1.0  0.32930  0.17350  0.88330  1.0000 -0.1360994721
C   C144      1.0  0.17350  0.32930  0.61390  1.0000 -0.1360994721
C   C145      1.0  0.40270  0.66390  0.85190  1.0000 -0.129184428
C   C146      1.0  0.66390  0.40270  0.08150  1.0000 -0.129184428
C   C147      1.0  0.85190  0.08150  0.40270  1.0000 -0.129184428
C   C148      1.0  0.08150  0.85190  0.66390  1.0000 -0.129184428
C   C149      1.0  0.84730  0.58610  0.39810  1.0000 -0.129184428
C   C150      1.0  0.58610  0.84730  0.16850  1.0000 -0.129184428
C   C151      1.0  0.39810  0.16850  0.84730  1.0000 -0.129184428
C   C152      1.0  0.16850  0.39810  0.58610  1.0000 -0.129184428
C   C153      1.0  0.38500  0.73160  0.97740  1.0000 -0.0653955595
C   C154      1.0  0.73160  0.38500  0.90600  1.0000 -0.0653955595
C   C155      1.0  0.97740  0.90600  0.38500  1.0000 -0.0653955595
C   C156      1.0  0.90600  0.97740  0.73160  1.0000 -0.0653955595
C   C157      1.0  0.86500  0.51840  0.27260  1.0000 -0.0653955595
C   C158      1.0  0.51840  0.86500  0.34400  1.0000 -0.0653955595
C   C159      1.0  0.27260  0.34400  0.86500  1.0000 -0.0653955595
C   C160      1.0  0.34400  0.27260  0.51840  1.0000 -0.0653955595
N   N1        1.0  0.37574  0.44730  0.27250  1.0000 0.2974652095
N   N2        1.0  0.44730  0.37574  0.90446  1.0000 0.2974652095
N   N3        1.0  0.27250  0.90446  0.37574  1.0000 0.2974652095
N   N4        1.0  0.90446  0.27250  0.44730  1.0000 0.2974652095
N   N5        1.0  0.87426  0.80270  0.97750  1.0000 0.2974652095
N   N6        1.0  0.80270  0.87426  0.34554  1.0000 0.2974652095
N   N7        1.0  0.97750  0.34554  0.87426  1.0000 0.2974652095
N   N8        1.0  0.34554  0.97750  0.80270  1.0000 0.2974652095
N   N9        1.0  0.48766  0.17576  0.09764  1.0000 -0.236203696
N   N10       1.0  0.17576  0.48766  0.23894  1.0000 -0.236203696
N   N11       1.0  0.09764  0.23894  0.48766  1.0000 -0.236203696
N   N12       1.0  0.23894  0.09764  0.17576  1.0000 -0.236203696
N   N13       1.0  0.76234  0.07424  0.15236  1.0000 -0.236203696
N   N14       1.0  0.07424  0.76234  0.01106  1.0000 -0.236203696
N   N15       1.0  0.15236  0.01106  0.76234  1.0000 -0.236203696
N   N16       1.0  0.01106  0.15236  0.07424  1.0000 -0.236203696
O   O1        1.0  0.53649  0.22193  0.22387  1.0000 -0.5477738635
O   O2        1.0  0.22193  0.53649  0.01771  1.0000 -0.5477738635
O   O3        1.0  0.22387  0.01771  0.53649  1.0000 -0.5477738635
O   O4        1.0  0.01771  0.22387  0.22193  1.0000 -0.5477738635
O   O5        1.0  0.71351  0.02807  0.02613  1.0000 -0.5477738635
O   O6        1.0  0.02807  0.71351  0.23229  1.0000 -0.5477738635
O   O7        1.0  0.02613  0.23229  0.71351  1.0000 -0.5477738635
O   O8        1.0  0.23229  0.02613  0.02807  1.0000 -0.5477738635
O   O9        1.0  0.48900  0.28892  0.36728  1.0000 -0.4768101729
O   O10       1.0  0.28892  0.48900  0.85480  1.0000 -0.4768101729
O   O11       1.0  0.36728  0.85480  0.48900  1.0000 -0.4768101729
O   O12       1.0  0.85480  0.36728  0.28892  1.0000 -0.4768101729
O   O13       1.0  0.76100  0.96108  0.88272  1.0000 -0.4768101729
O   O14       1.0  0.96108  0.76100  0.39520  1.0000 -0.4768101729
O   O15       1.0  0.88272  0.39520  0.76100  1.0000 -0.4768101729
O   O16       1.0  0.39520  0.88272  0.96108  1.0000 -0.4768101729
O   O17       1.0  0.39408  0.38700  0.21560  1.0000 -0.4768101729
O   O18       1.0  0.38700  0.39408  0.00332  1.0000 -0.4768101729
O   O19       1.0  0.21560  0.00332  0.39408  1.0000 -0.4768101729
O   O20       1.0  0.00332  0.21560  0.38700  1.0000 -0.4768101729
O   O21       1.0  0.85592  0.86300  0.03440  1.0000 -0.4768101729
O   O22       1.0  0.86300  0.85592  0.24668  1.0000 -0.4768101729
O   O23       1.0  0.03440  0.24668  0.85592  1.0000 -0.4768101729
O   O24       1.0  0.24668  0.03440  0.86300  1.0000 -0.4768101729
O   O25       1.0  0.21250  0.59436  0.26564  1.0000 -0.4487110706
O   O26       1.0  0.59436  0.21250  0.92750  1.0000 -0.4487110706
O   O27       1.0  0.26564  0.92750  0.21250  1.0000 -0.4487110706
O   O28       1.0  0.92750  0.26564  0.59436  1.0000 -0.4487110706
O   O29       1.0  0.03750  0.65564  0.98436  1.0000 -0.4487110706
O   O30       1.0  0.65564  0.03750  0.32250  1.0000 -0.4487110706
O   O31       1.0  0.98436  0.32250  0.03750  1.0000 -0.4487110706
O   O32       1.0  0.32250  0.98436  0.65564  1.0000 -0.4487110706
O   O33       1.0  0.24482  0.63844  0.09196  1.0000 -0.4768101729
O   O34       1.0  0.63844  0.24482  0.02478  1.0000 -0.4768101729
O   O35       1.0  0.09196  0.02478  0.24482  1.0000 -0.4768101729
O   O36       1.0  0.02478  0.09196  0.63844  1.0000 -0.4768101729
O   O37       1.0  0.00518  0.61156  0.15804  1.0000 -0.4768101729
O   O38       1.0  0.61156  0.00518  0.22522  1.0000 -0.4768101729
O   O39       1.0  0.15804  0.22522  0.00518  1.0000 -0.4768101729
O   O40       1.0  0.22522  0.15804  0.61156  1.0000 -0.4768101729
