# DDEC6 charges by PACMAN v1.1 (https://github.com/mtap-research/PACMAN-charge/)
data_2014[Co][flu]3[FSR]1
_chemical_formula_sum              "Co4 H24 C32 O18"
_cell_length_a       6.121
_cell_length_b       10.781
_cell_length_c       13.987
_cell_angle_alpha    98.901
_cell_angle_beta     96.715
_cell_angle_gamma    103.861

_symmetry_space_group_name_H-M    "P 1"
_symmetry_Int_Tables_number       1

loop_
  _symmetry_equiv_pos_as_xyz
  'x, y, z'

loop_
  _atom_site_type_symbol
  _atom_site_label
  _atom_site_symmetry_multiplicity
  _atom_site_fract_x
  _atom_site_fract_y
  _atom_site_fract_z
  _atom_site_occupancy
  _atom_site_charge
Co  Co1       1.0  0.35132  0.72333  0.55691  1.0000 0.9995825466
Co  Co2       1.0  0.64868  0.27667  0.44309  1.0000 0.9995825466
Co  Co3       1.0  0.59931  0.52228  0.61362  1.0000 1.0558073696
Co  Co4       1.0  0.40069  0.47772  0.38638  1.0000 1.0558073696
H   H1        1.0  0.25090  0.96750  0.55260  1.0000 0.1276564475
H   H2        1.0  0.74910  0.03250  0.44740  1.0000 0.1276564475
H   H3        1.0  0.17310  0.26990  0.73900  1.0000 0.1464161154
H   H4        1.0  0.82690  0.73010  0.26100  1.0000 0.1464161154
H   H5        1.0  0.75100  0.91680  0.71650  1.0000 0.1230352274
H   H6        1.0  0.24900  0.08320  0.28350  1.0000 0.1230352274
H   H7        1.0  0.68900  0.99350  0.85030  1.0000 0.1012015369
H   H8        1.0  0.31100  0.00650  0.14970  1.0000 0.1012015369
H   H9        1.0  0.52610  0.06680  0.80120  1.0000 0.1141391274
H   H10       1.0  0.47390  0.93320  0.19880  1.0000 0.1141391274
H   H11       1.0  0.91050  0.10240  0.01540  1.0000 0.1230352274
H   H12       1.0  0.08950  0.89760  0.98460  1.0000 0.1230352274
H   H13       1.0  0.87270  0.18670  0.17120  1.0000 0.1230352274
H   H14       1.0  0.12730  0.81330  0.82880  1.0000 0.1230352274
H   H15       1.0  0.34630  0.30500  0.06450  1.0000 0.1276564475
H   H16       1.0  0.65370  0.69500  0.93550  1.0000 0.1276564475
H   H17       1.0  0.37240  0.20970  0.90860  1.0000 0.1276564475
H   H18       1.0  0.62760  0.79030  0.09140  1.0000 0.1276564475
H   H19       1.0  0.19400  0.47300  0.53000  1.0000 0.394424456
H   H20       1.0  0.80600  0.52700  0.47000  1.0000 0.394424456
H   H21       1.0  0.03900  0.58200  0.69800  1.0000 0.3520733442
H   H22       1.0  0.96100  0.41800  0.30200  1.0000 0.3520733442
H   H23       1.0  0.91600  0.49900  0.75170  1.0000 0.3689220872
H   H24       1.0  0.08400  0.50100  0.24830  1.0000 0.3689220872
C   C1        1.0  0.90620  0.77790  0.58450  1.0000 0.5999384102
C   C2        1.0  0.09380  0.22210  0.41550  1.0000 0.5999384102
C   C3        1.0  0.99070  0.92080  0.62800  1.0000 -0.005249882
C   C4        1.0  0.00930  0.07920  0.37200  1.0000 -0.005249882
C   C5        1.0  0.17290  0.00110  0.59910  1.0000 -0.1568132016
C   C6        1.0  0.82710  0.99890  0.40090  1.0000 -0.1568132016
C   C7        1.0  0.23790  0.13260  0.64020  1.0000 0.0008022351
C   C8        1.0  0.76210  0.86740  0.35980  1.0000 0.0008022351
C   C9        1.0  0.12710  0.18180  0.71110  1.0000 -0.2159318152
C   C10       1.0  0.87290  0.81820  0.28890  1.0000 -0.2159318152
C   C11       1.0  0.94730  0.10050  0.74090  1.0000 0.2448827502
C   C12       1.0  0.05270  0.89950  0.25910  1.0000 0.2451236721
C   C13       1.0  0.87570  0.97080  0.69830  1.0000 -0.2409730378
C   C14       1.0  0.12430  0.02920  0.30170  1.0000 -0.2409730378
C   C15       1.0  0.41850  0.22580  0.60390  1.0000 0.5856321033
C   C16       1.0  0.58150  0.77420  0.39610  1.0000 0.5856321033
C   C17       1.0  0.66460  0.07840  0.84690  1.0000 -0.0675062362
C   C18       1.0  0.33540  0.92160  0.15310  1.0000 -0.0675062362
C   C19       1.0  0.64350  0.14530  0.94600  1.0000 0.0914942649
C   C20       1.0  0.35650  0.85470  0.05400  1.0000 0.0914942649
C   C21       1.0  0.79230  0.14110  0.02490  1.0000 -0.1454831261
C   C22       1.0  0.20770  0.85890  0.97510  1.0000 -0.1454831261
C   C23       1.0  0.77150  0.19290  0.11830  1.0000 -0.1230532128
C   C24       1.0  0.22850  0.80710  0.88170  1.0000 -0.1230532128
C   C25       1.0  0.60260  0.25370  0.13410  1.0000 -0.0355124075
C   C26       1.0  0.39740  0.74630  0.86590  1.0000 -0.0355124075
C   C27       1.0  0.45860  0.26150  0.05530  1.0000 -0.108590794
C   C28       1.0  0.54140  0.73850  0.94470  1.0000 -0.108590794
C   C29       1.0  0.47610  0.20580  0.96150  1.0000 -0.140811098
C   C30       1.0  0.52390  0.79420  0.03850  1.0000 -0.140811098
C   C31       1.0  0.57860  0.30650  0.23700  1.0000 0.5778651413
C   C32       1.0  0.42140  0.69350  0.76300  1.0000 0.5778651413
O   O1        1.0  0.71760  0.71840  0.60347  1.0000 -0.5909738365
O   O2        1.0  0.28240  0.28160  0.39653  1.0000 -0.5909738365
O   O3        1.0  0.02000  0.72330  0.53084  1.0000 -0.5576532904
O   O4        1.0  0.98000  0.27670  0.46916  1.0000 -0.5576532904
O   O5        1.0  0.51690  0.17850  0.53855  1.0000 -0.5478328291
O   O6        1.0  0.48310  0.82150  0.46145  1.0000 -0.5478328291
O   O7        1.0  0.45430  0.34300  0.63960  1.0000 -0.5576532904
O   O8        1.0  0.54570  0.65700  0.36040  1.0000 -0.5576532904
O   O9        1.0  0.48770  0.39720  0.25290  1.0000 -0.5478328291
O   O10       1.0  0.51230  0.60280  0.74710  1.0000 -0.5478328291
O   O11       1.0  0.65650  0.24950  0.30110  1.0000 -0.5909738365
O   O12       1.0  0.34350  0.75050  0.69890  1.0000 -0.5909738365
O   O13       1.0  0.85330  0.15760  0.81490  1.0000 -0.1846010212
O   O14       1.0  0.14670  0.84240  0.18510  1.0000 -0.1846010212
O   O15       1.0  0.31170  0.53450  0.52170  1.0000 -0.9018256489
O   O16       1.0  0.68830  0.46550  0.47830  1.0000 -0.9018256489
O   O17       1.0  0.91260  0.51740  0.69150  1.0000 -0.6661055806
O   O18       1.0  0.08740  0.48260  0.30850  1.0000 -0.6661055806
