# DDEC6 charges by PACMAN v1.1 (https://github.com/mtap-research/PACMAN-charge/)
data_2014[Al][nan]3[FSR]5
_chemical_formula_sum              "Al4 H16 C32 O20"
_cell_length_a       12.0049
_cell_length_b       12.0049
_cell_length_c       12.0049
_cell_angle_alpha    103.925
_cell_angle_beta     103.925
_cell_angle_gamma    121.244

_symmetry_space_group_name_H-M    "P 1"
_symmetry_Int_Tables_number       1

loop_
  _symmetry_equiv_pos_as_xyz
  'x, y, z'

loop_
  _atom_site_type_symbol
  _atom_site_label
  _atom_site_symmetry_multiplicity
  _atom_site_fract_x
  _atom_site_fract_y
  _atom_site_fract_z
  _atom_site_occupancy
  _atom_site_charge
Al  Al1       1.0  0.19440  0.80560  0.00000  1.0000 1.6412942813
Al  Al2       1.0  0.05560  0.55560  0.11120  1.0000 1.6412942813
Al  Al3       1.0  0.44440  0.94440  0.88880  1.0000 1.6412942813
Al  Al4       1.0  0.80560  0.19440  0.00000  1.0000 1.6412942813
H   H1        1.0  0.44182  0.87500  0.06682  1.0000 0.4046625302
H   H2        1.0  0.80818  0.37500  0.93318  1.0000 0.4046625302
H   H3        1.0  0.12500  0.55818  0.93318  1.0000 0.4046625302
H   H4        1.0  0.62500  0.19182  0.06682  1.0000 0.4046625302
H   H5        1.0  0.10828  0.10828  0.00000  1.0000 0.1303673306
H   H6        1.0  0.14172  0.64172  0.50000  1.0000 0.1303673306
H   H7        1.0  0.89172  0.89172  0.00000  1.0000 0.1303673306
H   H8        1.0  0.35828  0.85828  0.50000  1.0000 0.1303673306
H   H9        1.0  0.49292  0.29669  0.95005  1.0000 0.1106841372
H   H10       1.0  0.75708  0.20713  0.30377  1.0000 0.1106841372
H   H11       1.0  0.70331  0.50708  0.04995  1.0000 0.1106841372
H   H12       1.0  0.79287  0.24292  0.69623  1.0000 0.1106841372
H   H13       1.0  0.54669  0.09664  0.30377  1.0000 0.1106841372
H   H14       1.0  0.45713  0.65336  0.95005  1.0000 0.1106841372
H   H15       1.0  0.90336  0.45331  0.69623  1.0000 0.1106841372
H   H16       1.0  0.34664  0.54287  0.04995  1.0000 0.1106841372
C   C1        1.0  0.28983  0.05840  0.95717  1.0000 0.6224840091
C   C2        1.0  0.96017  0.41734  0.26857  1.0000 0.6224840091
C   C3        1.0  0.94160  0.71017  0.04283  1.0000 0.6224840091
C   C4        1.0  0.58266  0.03983  0.73143  1.0000 0.6224840091
C   C5        1.0  0.30840  0.85123  0.26857  1.0000 0.6224840091
C   C6        1.0  0.66734  0.89877  0.95717  1.0000 0.6224840091
C   C7        1.0  0.14877  0.69160  0.73143  1.0000 0.6224840091
C   C8        1.0  0.10123  0.33266  0.04283  1.0000 0.6224840091
C   C9        1.0  0.29843  0.18644  0.97149  1.0000 -0.0660716637
C   C10       1.0  0.95157  0.42306  0.38801  1.0000 -0.0660716637
C   C11       1.0  0.81356  0.70157  0.02851  1.0000 -0.0660716637
C   C12       1.0  0.57694  0.04843  0.61199  1.0000 -0.0660716637
C   C13       1.0  0.43644  0.96495  0.38801  1.0000 -0.0660716637
C   C14       1.0  0.67306  0.78505  0.97149  1.0000 -0.0660716637
C   C15       1.0  0.03505  0.56356  0.61199  1.0000 -0.0660716637
C   C16       1.0  0.21495  0.32694  0.02851  1.0000 -0.0660716637
C   C17       1.0  0.19743  0.19743  0.00000  1.0000 -0.0865403792
C   C18       1.0  0.05257  0.55257  0.50000  1.0000 -0.0865403792
C   C19       1.0  0.80257  0.80257  0.00000  1.0000 -0.0865403792
C   C20       1.0  0.44743  0.94743  0.50000  1.0000 -0.0865403792
C   C21       1.0  0.41695  0.30496  0.97149  1.0000 -0.1311382397
C   C22       1.0  0.83305  0.30454  0.38801  1.0000 -0.1311382397
C   C23       1.0  0.69504  0.58305  0.02851  1.0000 -0.1311382397
C   C24       1.0  0.69546  0.16695  0.61199  1.0000 -0.1311382397
C   C25       1.0  0.55496  0.08347  0.38801  1.0000 -0.1311382397
C   C26       1.0  0.55454  0.66653  0.97149  1.0000 -0.1311382397
C   C27       1.0  0.91653  0.44504  0.61199  1.0000 -0.1311382397
C   C28       1.0  0.33347  0.44546  0.02851  1.0000 -0.1311382397
C   C29       1.0  0.43446  0.43446  0.00000  1.0000 0.0735325733
C   C30       1.0  0.81554  0.31554  0.50000  1.0000 0.0735325733
C   C31       1.0  0.56554  0.56554  0.00000  1.0000 0.0735325733
C   C32       1.0  0.68446  0.18446  0.50000  1.0000 0.0735325733
O   O1        1.0  0.38098  0.87500  0.00598  1.0000 -1.0038976266
O   O2        1.0  0.86902  0.37500  0.99402  1.0000 -1.0038976266
O   O3        1.0  0.12500  0.61902  0.99402  1.0000 -1.0038976266
O   O4        1.0  0.62500  0.13098  0.00598  1.0000 -1.0038976266
O   O5        1.0  0.22532  0.98101  0.00625  1.0000 -0.5393299876
O   O6        1.0  0.02468  0.53093  0.25569  1.0000 -0.5393299876
O   O7        1.0  0.01899  0.77468  0.99375  1.0000 -0.5393299876
O   O8        1.0  0.46907  0.97532  0.74431  1.0000 -0.5393299876
O   O9        1.0  0.23101  0.72476  0.25569  1.0000 -0.5393299876
O   O10       1.0  0.78093  0.02524  0.00625  1.0000 -0.5393299876
O   O11       1.0  0.27524  0.76899  0.74431  1.0000 -0.5393299876
O   O12       1.0  0.97476  0.21907  0.99375  1.0000 -0.5393299876
O   O13       1.0  0.34695  0.02596  0.89581  1.0000 -0.5763376101
O   O14       1.0  0.90305  0.29886  0.17901  1.0000 -0.5763376101
O   O15       1.0  0.97404  0.65305  0.10419  1.0000 -0.5763376101
O   O16       1.0  0.70114  0.09695  0.82099  1.0000 -0.5763376101
O   O17       1.0  0.27596  0.88015  0.17901  1.0000 -0.5763376101
O   O18       1.0  0.54886  0.86985  0.89581  1.0000 -0.5763376101
O   O19       1.0  0.11985  0.72404  0.82099  1.0000 -0.5763376101
O   O20       1.0  0.13015  0.45114  0.10419  1.0000 -0.5763376101
