# DDEC6 charges by PACMAN v1.1 (https://github.com/mtap-research/PACMAN-charge/)
data_2014[Al][bpq]3[FSR]5
_chemical_formula_sum              "Al8 H40 C64 O40"
_cell_length_a       6.56931
_cell_length_b       15.2014
_cell_length_c       18.9946
_cell_angle_alpha    90
_cell_angle_beta     95.4116
_cell_angle_gamma    90

_symmetry_space_group_name_H-M    "P 1"
_symmetry_Int_Tables_number       1

loop_
  _symmetry_equiv_pos_as_xyz
  'x, y, z'

loop_
  _atom_site_type_symbol
  _atom_site_label
  _atom_site_symmetry_multiplicity
  _atom_site_fract_x
  _atom_site_fract_y
  _atom_site_fract_z
  _atom_site_occupancy
  _atom_site_charge
Al  Al1       1.0  0.98950  0.24370  0.50030  1.0000 1.6172895102
Al  Al2       1.0  0.51050  0.74370  0.49970  1.0000 1.6172895102
Al  Al3       1.0  0.01050  0.75630  0.49970  1.0000 1.6172895102
Al  Al4       1.0  0.48950  0.25630  0.50030  1.0000 1.6172895102
Al  Al5       1.0  0.00000  0.50000  0.00000  1.0000 1.6279750137
Al  Al6       1.0  0.50000  0.00000  0.00000  1.0000 1.6279750137
Al  Al7       1.0  0.50000  0.50000  0.00000  1.0000 1.6279750137
Al  Al8       1.0  0.00000  0.00000  0.00000  1.0000 1.6279750137
H   H1        1.0  0.92440  0.09399  0.78950  1.0000 0.1216520394
H   H2        1.0  0.57560  0.59399  0.21050  1.0000 0.1216520394
H   H3        1.0  0.07560  0.90601  0.21050  1.0000 0.1216520394
H   H4        1.0  0.42440  0.40601  0.78950  1.0000 0.1216520394
H   H5        1.0  0.94860  0.12510  0.66720  1.0000 0.1279517195
H   H6        1.0  0.55140  0.62510  0.33280  1.0000 0.1279517195
H   H7        1.0  0.05140  0.87490  0.33280  1.0000 0.1279517195
H   H8        1.0  0.44860  0.37490  0.66720  1.0000 0.1279517195
H   H9        1.0  0.56180  0.15493  0.70620  1.0000 0.1216520394
H   H10       1.0  0.93820  0.65493  0.29380  1.0000 0.1216520394
H   H11       1.0  0.43820  0.84507  0.29380  1.0000 0.1216520394
H   H12       1.0  0.06180  0.34507  0.70620  1.0000 0.1216520394
H   H13       1.0  0.53690  0.12390  0.82830  1.0000 0.1279517195
H   H14       1.0  0.96310  0.62390  0.17170  1.0000 0.1279517195
H   H15       1.0  0.46310  0.87610  0.17170  1.0000 0.1279517195
H   H16       1.0  0.03690  0.37610  0.82830  1.0000 0.1279517195
H   H17       1.0  0.44170  0.32170  0.29080  1.0000 0.1216520394
H   H18       1.0  0.05830  0.82170  0.70920  1.0000 0.1216520394
H   H19       1.0  0.55830  0.67830  0.70920  1.0000 0.1216520394
H   H20       1.0  0.94170  0.17830  0.29080  1.0000 0.1216520394
H   H21       1.0  0.46150  0.35450  0.16810  1.0000 0.1279517195
H   H22       1.0  0.03850  0.85450  0.83190  1.0000 0.1279517195
H   H23       1.0  0.53850  0.64550  0.83190  1.0000 0.1279517195
H   H24       1.0  0.96150  0.14550  0.16810  1.0000 0.1279517195
H   H25       1.0  0.05350  0.43100  0.21270  1.0000 0.1216520394
H   H26       1.0  0.44650  0.93100  0.78730  1.0000 0.1216520394
H   H27       1.0  0.94650  0.56900  0.78730  1.0000 0.1216520394
H   H28       1.0  0.55350  0.06900  0.21270  1.0000 0.1216520394
H   H29       1.0  0.03280  0.39790  0.33610  1.0000 0.1279517195
H   H30       1.0  0.46720  0.89790  0.66390  1.0000 0.1279517195
H   H31       1.0  0.96720  0.60210  0.66390  1.0000 0.1279517195
H   H32       1.0  0.53280  0.10210  0.33610  1.0000 0.1279517195
H   H33       1.0  0.21600  0.36060  0.49500  1.0000 0.4329649142
H   H34       1.0  0.28400  0.86060  0.50500  1.0000 0.4329649142
H   H35       1.0  0.78400  0.63940  0.50500  1.0000 0.4329649142
H   H36       1.0  0.71600  0.13940  0.49500  1.0000 0.4329649142
H   H37       1.0  0.74800  0.61020  0.99300  1.0000 0.4329649142
H   H38       1.0  0.75200  0.11020  0.00700  1.0000 0.4329649142
H   H39       1.0  0.25200  0.38980  0.00700  1.0000 0.4329649142
H   H40       1.0  0.24800  0.88980  0.99300  1.0000 0.4329649142
C   C1        1.0  0.23030  0.10662  0.81980  1.0000 -0.0308302328
C   C2        1.0  0.26970  0.60662  0.18020  1.0000 -0.0308302328
C   C3        1.0  0.76970  0.89338  0.18020  1.0000 -0.0308302328
C   C4        1.0  0.73030  0.39338  0.81980  1.0000 -0.0308302328
C   C5        1.0  0.05730  0.10664  0.77270  1.0000 -0.0982801068
C   C6        1.0  0.44270  0.60664  0.22730  1.0000 -0.0982801068
C   C7        1.0  0.94270  0.89336  0.22730  1.0000 -0.0982801068
C   C8        1.0  0.55730  0.39336  0.77270  1.0000 -0.0982801068
C   C9        1.0  0.07260  0.12479  0.70070  1.0000 -0.0982801068
C   C10       1.0  0.42740  0.62479  0.29930  1.0000 -0.0982801068
C   C11       1.0  0.92740  0.87521  0.29930  1.0000 -0.0982801068
C   C12       1.0  0.57260  0.37521  0.70070  1.0000 -0.0982801068
C   C13       1.0  0.25810  0.14239  0.67570  1.0000 -0.0381215675
C   C14       1.0  0.24190  0.64239  0.32430  1.0000 -0.0381215675
C   C15       1.0  0.74190  0.85761  0.32430  1.0000 -0.0381215675
C   C16       1.0  0.75810  0.35761  0.67570  1.0000 -0.0381215675
C   C17       1.0  0.42940  0.14221  0.72300  1.0000 -0.0982801068
C   C18       1.0  0.07060  0.64221  0.27700  1.0000 -0.0982801068
C   C19       1.0  0.57060  0.85779  0.27700  1.0000 -0.0982801068
C   C20       1.0  0.92940  0.35779  0.72300  1.0000 -0.0982801068
C   C21       1.0  0.41370  0.12424  0.79480  1.0000 -0.0982801068
C   C22       1.0  0.08630  0.62424  0.20520  1.0000 -0.0982801068
C   C23       1.0  0.58630  0.87576  0.20520  1.0000 -0.0982801068
C   C24       1.0  0.91370  0.37576  0.79480  1.0000 -0.0982801068
C   C25       1.0  0.22040  0.08731  0.89540  1.0000 0.6273862589
C   C26       1.0  0.27960  0.58731  0.10460  1.0000 0.6273862589
C   C27       1.0  0.77960  0.91269  0.10460  1.0000 0.6273862589
C   C28       1.0  0.72040  0.41269  0.89540  1.0000 0.6273862589
C   C29       1.0  0.27080  0.16242  0.60090  1.0000 0.6273862589
C   C30       1.0  0.22920  0.66242  0.39910  1.0000 0.6273862589
C   C31       1.0  0.72920  0.83758  0.39910  1.0000 0.6273862589
C   C32       1.0  0.77080  0.33758  0.60090  1.0000 0.6273862589
C   C33       1.0  0.73410  0.35710  0.32370  1.0000 -0.0308302328
C   C34       1.0  0.76590  0.85710  0.67630  1.0000 -0.0308302328
C   C35       1.0  0.26590  0.64290  0.67630  1.0000 -0.0308302328
C   C36       1.0  0.23410  0.14290  0.32370  1.0000 -0.0308302328
C   C37       1.0  0.56830  0.34440  0.27500  1.0000 -0.0982801068
C   C38       1.0  0.93170  0.84440  0.72500  1.0000 -0.0982801068
C   C39       1.0  0.43170  0.65560  0.72500  1.0000 -0.0982801068
C   C40       1.0  0.06830  0.15560  0.27500  1.0000 -0.0982801068
C   C41       1.0  0.58080  0.36360  0.20280  1.0000 -0.0982801068
C   C42       1.0  0.91920  0.86360  0.79720  1.0000 -0.0982801068
C   C43       1.0  0.41920  0.63640  0.79720  1.0000 -0.0982801068
C   C44       1.0  0.08080  0.13640  0.20280  1.0000 -0.0982801068
C   C45       1.0  0.75850  0.39517  0.17990  1.0000 -0.0381215675
C   C46       1.0  0.74150  0.89517  0.82010  1.0000 -0.0381215675
C   C47       1.0  0.24150  0.60483  0.82010  1.0000 -0.0381215675
C   C48       1.0  0.25850  0.10483  0.17990  1.0000 -0.0381215675
C   C49       1.0  0.92680  0.40830  0.22870  1.0000 -0.0982801068
C   C50       1.0  0.57320  0.90830  0.77130  1.0000 -0.0982801068
C   C51       1.0  0.07320  0.59170  0.77130  1.0000 -0.0982801068
C   C52       1.0  0.42680  0.09170  0.22870  1.0000 -0.0982801068
C   C53       1.0  0.91350  0.38900  0.30100  1.0000 -0.0982801068
C   C54       1.0  0.58650  0.88900  0.69900  1.0000 -0.0982801068
C   C55       1.0  0.08650  0.61100  0.69900  1.0000 -0.0982801068
C   C56       1.0  0.41350  0.11100  0.30100  1.0000 -0.0982801068
C   C57       1.0  0.72000  0.33603  0.39850  1.0000 0.6217868297
C   C58       1.0  0.78000  0.83603  0.60150  1.0000 0.6217868297
C   C59       1.0  0.28000  0.66397  0.60150  1.0000 0.6217868297
C   C60       1.0  0.22000  0.16397  0.39850  1.0000 0.6217868297
C   C61       1.0  0.76920  0.41529  0.10480  1.0000 0.6273862589
C   C62       1.0  0.73080  0.91529  0.89520  1.0000 0.6273862589
C   C63       1.0  0.23080  0.58471  0.89520  1.0000 0.6273862589
C   C64       1.0  0.26920  0.08471  0.10480  1.0000 0.6273862589
O   O1        1.0  0.23480  0.30250  0.49990  1.0000 -0.9905239375
O   O2        1.0  0.26520  0.80250  0.50010  1.0000 -0.9905239375
O   O3        1.0  0.76520  0.69750  0.50010  1.0000 -0.9905239375
O   O4        1.0  0.73480  0.19750  0.49990  1.0000 -0.9905239375
O   O5        1.0  0.75720  0.55210  0.99560  1.0000 -0.9833375098
O   O6        1.0  0.74280  0.05210  0.00440  1.0000 -0.9833375098
O   O7        1.0  0.24280  0.44790  0.00440  1.0000 -0.9833375098
O   O8        1.0  0.25720  0.94790  0.99560  1.0000 -0.9833375098
O   O9        1.0  0.04370  0.06960  0.91590  1.0000 -0.6005488138
O   O10       1.0  0.45630  0.56960  0.08410  1.0000 -0.5947264762
O   O11       1.0  0.95630  0.93040  0.08410  1.0000 -0.5947264762
O   O12       1.0  0.54370  0.43040  0.91590  1.0000 -0.5947264762
O   O13       1.0  0.38620  0.08900  0.93550  1.0000 -0.6005488138
O   O14       1.0  0.11380  0.58900  0.06450  1.0000 -0.6005488138
O   O15       1.0  0.61380  0.91100  0.06450  1.0000 -0.6005488138
O   O16       1.0  0.88620  0.41100  0.93550  1.0000 -0.6005488138
O   O17       1.0  0.11220  0.15890  0.55730  1.0000 -0.6005488138
O   O18       1.0  0.38780  0.65890  0.44270  1.0000 -0.6005488138
O   O19       1.0  0.88780  0.84110  0.44270  1.0000 -0.6005488138
O   O20       1.0  0.61220  0.34110  0.55730  1.0000 -0.6005488138
O   O21       1.0  0.44150  0.18480  0.58250  1.0000 -0.5600215228
O   O22       1.0  0.05850  0.68480  0.41750  1.0000 -0.5600215228
O   O23       1.0  0.55850  0.81520  0.41750  1.0000 -0.5600215228
O   O24       1.0  0.94150  0.31520  0.58250  1.0000 -0.5600215228
O   O25       1.0  0.54760  0.30640  0.41410  1.0000 -0.6005488138
O   O26       1.0  0.95240  0.80640  0.58590  1.0000 -0.6005488138
O   O27       1.0  0.45240  0.69360  0.58590  1.0000 -0.6005488138
O   O28       1.0  0.04760  0.19360  0.41410  1.0000 -0.6005488138
O   O29       1.0  0.87520  0.34660  0.44240  1.0000 -0.579985726
O   O30       1.0  0.62480  0.84660  0.55760  1.0000 -0.579985726
O   O31       1.0  0.12480  0.65340  0.55760  1.0000 -0.579985726
O   O32       1.0  0.37520  0.15340  0.44240  1.0000 -0.579985726
O   O33       1.0  0.60640  0.41690  0.06320  1.0000 -0.6089325876
O   O34       1.0  0.89360  0.91690  0.93680  1.0000 -0.6089325876
O   O35       1.0  0.39360  0.58310  0.93680  1.0000 -0.6089325876
O   O36       1.0  0.10640  0.08310  0.06320  1.0000 -0.6089325876
O   O37       1.0  0.94600  0.42970  0.08610  1.0000 -0.5687807532
O   O38       1.0  0.55400  0.92970  0.91390  1.0000 -0.5687807532
O   O39       1.0  0.05400  0.57030  0.91390  1.0000 -0.5687807532
O   O40       1.0  0.44600  0.07030  0.08610  1.0000 -0.5687807532
