# DDEC6 charges by PACMAN v1.1 (https://github.com/mtap-research/PACMAN-charge/)
data_2014[Zn][nan]3[FSR]27
_chemical_formula_sum              "Zn2 H54 C66 O18"
_cell_length_a       15.7838
_cell_length_b       15.7838
_cell_length_c       7.5883
_cell_angle_alpha    80.5213
_cell_angle_beta     99.4787
_cell_angle_gamma    85.7175

_symmetry_space_group_name_H-M    "P 1"
_symmetry_Int_Tables_number       1

loop_
  _symmetry_equiv_pos_as_xyz
  'x, y, z'

loop_
  _atom_site_type_symbol
  _atom_site_label
  _atom_site_symmetry_multiplicity
  _atom_site_fract_x
  _atom_site_fract_y
  _atom_site_fract_z
  _atom_site_occupancy
  _atom_site_charge
Zn  Zn1       1.0  0.62315  0.49305  0.20158  1.0000 0.9230571211
Zn  Zn2       1.0  0.50695  0.37685  0.70158  1.0000 0.9230571211
H   H1        1.0  0.72130  0.29890  0.39700  1.0000 0.1396631961
H   H2        1.0  0.70110  0.27870  0.89700  1.0000 0.1396631961
H   H3        1.0  0.64960  0.26720  0.26070  1.0000 0.1291897017
H   H4        1.0  0.73280  0.35040  0.76070  1.0000 0.1291897017
H   H5        1.0  0.78850  0.19610  0.26290  1.0000 0.1291897017
H   H6        1.0  0.80390  0.21150  0.76290  1.0000 0.1291897017
H   H7        1.0  0.87930  0.08330  0.22140  1.0000 0.1291897017
H   H8        1.0  0.91670  0.12070  0.72140  1.0000 0.1291897017
H   H9        1.0  0.70690  0.03850  0.65300  1.0000 0.148218167
H   H10       1.0  0.96150  0.29310  0.15300  1.0000 0.148218167
H   H11       1.0  0.80050  0.92810  0.61390  1.0000 0.1291897017
H   H12       1.0  0.07190  0.19950  0.11390  1.0000 0.1291897017
H   H13       1.0  0.86890  0.75110  0.62540  1.0000 0.1291897017
H   H14       1.0  0.24890  0.13110  0.12540  1.0000 0.1291897017
H   H15       1.0  0.73770  0.92670  0.17760  1.0000 0.1396631961
H   H16       1.0  0.07330  0.26230  0.67760  1.0000 0.1396631961
H   H17       1.0  0.78910  0.96190  0.02570  1.0000 0.1291897017
H   H18       1.0  0.03810  0.21090  0.52570  1.0000 0.1291897017
H   H19       1.0  0.75940  0.86880  0.03840  1.0000 0.1291897017
H   H20       1.0  0.13120  0.24060  0.53840  1.0000 0.1291897017
H   H21       1.0  0.02310  0.68270  0.15290  1.0000 0.1291897017
H   H22       1.0  0.31730  0.97690  0.65290  1.0000 0.1291897017
H   H23       1.0  0.09600  0.68480  0.31910  1.0000 0.1291897017
H   H24       1.0  0.31520  0.90400  0.81910  1.0000 0.1291897017
H   H25       1.0  0.01640  0.63360  0.34640  1.0000 0.1396631961
H   H26       1.0  0.36640  0.98360  0.84640  1.0000 0.1396631961
H   H27       1.0  0.97350  0.96710  0.65700  1.0000 0.1396631961
H   H28       1.0  0.03290  0.02650  0.15700  1.0000 0.1396631961
H   H29       1.0  0.04480  0.88920  0.73300  1.0000 0.1396631961
H   H30       1.0  0.11080  0.95520  0.23300  1.0000 0.1396631961
H   H31       1.0  0.06030  0.96430  0.58250  1.0000 0.148218167
H   H32       1.0  0.03570  0.93970  0.08250  1.0000 0.148218167
H   H33       1.0  0.92320  0.81840  0.85870  1.0000 0.1291897017
H   H34       1.0  0.18160  0.07680  0.35870  1.0000 0.1291897017
H   H35       1.0  0.85150  0.53010  0.67100  1.0000 0.1291897017
H   H36       1.0  0.46990  0.14850  0.17100  1.0000 0.1291897017
H   H37       1.0  0.77000  0.51680  0.76120  1.0000 0.1291897017
H   H38       1.0  0.48320  0.23000  0.26120  1.0000 0.1291897017
H   H39       1.0  0.80820  0.67180  0.20120  1.0000 0.1396631961
H   H40       1.0  0.32820  0.19180  0.70120  1.0000 0.1396631961
H   H41       1.0  0.75250  0.59970  0.97250  1.0000 0.1396631961
H   H42       1.0  0.40030  0.24750  0.47250  1.0000 0.1396631961
H   H43       1.0  0.18600  0.84120  0.49310  1.0000 0.1291897017
H   H44       1.0  0.15880  0.81400  0.99310  1.0000 0.1291897017
H   H45       1.0  0.41680  0.66060  0.78200  1.0000 0.1291897017
H   H46       1.0  0.33940  0.58320  0.28200  1.0000 0.1291897017
H   H47       1.0  0.40800  0.69520  0.96220  1.0000 0.1291897017
H   H48       1.0  0.30480  0.59200  0.46220  1.0000 0.1291897017
H   H49       1.0  0.30980  0.76580  0.66750  1.0000 0.1222330676
H   H50       1.0  0.23420  0.69020  0.16750  1.0000 0.1222330676
H   H51       1.0  0.16820  0.59360  0.89430  1.0000 0.1396631961
H   H52       1.0  0.40640  0.83180  0.39430  1.0000 0.1396631961
H   H53       1.0  0.04530  0.67310  0.72490  1.0000 0.1291897017
H   H54       1.0  0.32690  0.95470  0.22490  1.0000 0.1291897017
C   C1        1.0  0.59900  0.32860  0.44460  1.0000 0.6242979587
C   C2        1.0  0.67140  0.40100  0.94460  1.0000 0.6242979587
C   C3        1.0  0.66740  0.27260  0.38650  1.0000 -0.190035346
C   C4        1.0  0.72740  0.33260  0.88650  1.0000 -0.190035346
C   C5        1.0  0.73810  0.12950  0.46240  1.0000 0.2310787858
C   C6        1.0  0.87050  0.26190  0.96240  1.0000 0.2310787858
C   C7        1.0  0.79000  0.14180  0.33350  1.0000 -0.2123500286
C   C8        1.0  0.85820  0.21000  0.83350  1.0000 -0.2123500286
C   C9        1.0  0.84800  0.99300  0.40670  1.0000 0.0699789905
C   C10       1.0  0.00700  0.15200  0.90670  1.0000 0.0699789905
C   C11       1.0  0.84430  0.07350  0.30840  1.0000 -0.1211952794
C   C12       1.0  0.92650  0.15570  0.80840  1.0000 -0.1211952794
C   C13       1.0  0.74190  0.04830  0.56580  1.0000 -0.1974173366
C   C14       1.0  0.95170  0.25810  0.06580  1.0000 -0.1974173366
C   C15       1.0  0.79700  0.98200  0.54010  1.0000 -0.1293241484
C   C16       1.0  0.01800  0.20300  0.04010  1.0000 -0.1293241484
C   C17       1.0  0.02040  0.80620  0.45740  1.0000 -0.0633401763
C   C18       1.0  0.19380  0.97960  0.95740  1.0000 -0.0633401763
C   C19       1.0  0.97890  0.88290  0.48320  1.0000 0.0918770801
C   C20       1.0  0.11710  0.02110  0.98320  1.0000 0.0918770801
C   C21       1.0  0.80620  0.66800  0.77700  1.0000 0.2210783855
C   C22       1.0  0.33200  0.19380  0.27700  1.0000 0.2210783855
C   C23       1.0  0.90800  0.79900  0.20320  1.0000 -0.0633401763
C   C24       1.0  0.20100  0.09200  0.70320  1.0000 -0.0633401763
C   C25       1.0  0.98650  0.76510  0.31780  1.0000 0.0918770801
C   C26       1.0  0.23490  0.01350  0.81780  1.0000 0.0918770801
C   C27       1.0  0.85670  0.73430  0.74110  1.0000 -0.1974173366
C   C28       1.0  0.26570  0.14330  0.24110  1.0000 -0.1974173366
C   C29       1.0  0.77980  0.91140  0.10710  1.0000 -0.4304320245
C   C30       1.0  0.08860  0.22020  0.60710  1.0000 -0.4304320245
C   C31       1.0  0.86410  0.87490  0.23300  1.0000 0.0918770801
C   C32       1.0  0.12510  0.13590  0.73300  1.0000 0.0918770801
C   C33       1.0  0.03500  0.68400  0.28060  1.0000 -0.4393012403
C   C34       1.0  0.31600  0.96500  0.78060  1.0000 -0.4393012403
C   C35       1.0  0.01790  0.93010  0.62680  1.0000 -0.458489406
C   C36       1.0  0.06990  0.98210  0.12680  1.0000 -0.458489406
C   C37       1.0  0.88830  0.77450  0.88190  1.0000 -0.1398492186
C   C38       1.0  0.22550  0.11170  0.38190  1.0000 -0.1398492186
C   C39       1.0  0.87120  0.75380  0.05490  1.0000 0.0699789905
C   C40       1.0  0.24620  0.12880  0.55490  1.0000 0.0699789905
C   C41       1.0  0.10170  0.76330  0.58290  1.0000 0.0699789905
C   C42       1.0  0.23670  0.89830  0.08290  1.0000 0.0699789905
C   C43       1.0  0.74810  0.50530  0.49410  1.0000 0.5773538024
C   C44       1.0  0.49470  0.25190  0.99410  1.0000 0.5773538024
C   C45       1.0  0.78930  0.54390  0.65270  1.0000 -0.1211952794
C   C46       1.0  0.45610  0.21070  0.15270  1.0000 -0.1211952794
C   C47       1.0  0.82060  0.68780  0.08540  1.0000 -0.1123797177
C   C48       1.0  0.31220  0.17940  0.58540  1.0000 -0.1123797177
C   C49       1.0  0.78700  0.64400  0.94880  1.0000 -0.1974173366
C   C50       1.0  0.35600  0.21300  0.44880  1.0000 -0.1974173366
C   C51       1.0  0.18210  0.79070  0.57270  1.0000 -0.1293241484
C   C52       1.0  0.20930  0.81790  0.07270  1.0000 -0.1293241484
C   C53       1.0  0.40450  0.64510  0.90360  1.0000 -0.1502201437
C   C54       1.0  0.35490  0.59550  0.40360  1.0000 -0.1502201437
C   C55       1.0  0.46960  0.56780  0.01590  1.0000 0.5773538024
C   C56       1.0  0.43220  0.53040  0.51590  1.0000 0.5773538024
C   C57       1.0  0.25640  0.74580  0.67630  1.0000 -0.2123500286
C   C58       1.0  0.25420  0.74360  0.17630  1.0000 -0.2123500286
C   C59       1.0  0.25100  0.67060  0.79360  1.0000 0.2210783855
C   C60       1.0  0.32940  0.74900  0.29360  1.0000 0.2210783855
C   C61       1.0  0.17210  0.64330  0.81270  1.0000 -0.190035346
C   C62       1.0  0.35670  0.82790  0.31270  1.0000 -0.190035346
C   C63       1.0  0.09880  0.69080  0.70900  1.0000 -0.1293241484
C   C64       1.0  0.30920  0.90120  0.20900  1.0000 -0.1293241484
C   C65       1.0  0.89840  0.91580  0.37070  1.0000 -0.0633401763
C   C66       1.0  0.08420  0.10160  0.87070  1.0000 -0.0633401763
O   O1        1.0  0.57880  0.40340  0.36030  1.0000 -0.5265086471
O   O2        1.0  0.59660  0.42120  0.86030  1.0000 -0.5265086471
O   O3        1.0  0.56540  0.29660  0.57560  1.0000 -0.511442992
O   O4        1.0  0.70340  0.43460  0.07560  1.0000 -0.511442992
O   O5        1.0  0.67950  0.19050  0.49850  1.0000 -0.1577575831
O   O6        1.0  0.80950  0.32050  0.99850  1.0000 -0.1577575831
O   O7        1.0  0.69370  0.55530  0.37070  1.0000 -0.511442992
O   O8        1.0  0.44470  0.30630  0.87070  1.0000 -0.511442992
O   O9        1.0  0.77170  0.63030  0.63290  1.0000 -0.1211952794
O   O10       1.0  0.36970  0.22830  0.13290  1.0000 -0.1211952794
O   O11       1.0  0.76840  0.42920  0.49770  1.0000 -0.5237540184
O   O12       1.0  0.57080  0.23160  0.99770  1.0000 -0.5237540184
O   O13       1.0  0.44670  0.49590  0.03900  1.0000 -0.4683370768
O   O14       1.0  0.50410  0.55330  0.53900  1.0000 -0.4683370768
O   O15       1.0  0.54210  0.59010  0.06530  1.0000 -0.5265086471
O   O16       1.0  0.40990  0.45790  0.56530  1.0000 -0.5265086471
O   O17       1.0  0.32020  0.61540  0.89710  1.0000 -0.168851371
O   O18       1.0  0.38460  0.67980  0.39710  1.0000 -0.168851371
