# DDEC6 charges by PACMAN v1.1 (https://github.com/mtap-research/PACMAN-charge/)
data_2014[Sc][nan]3[FSR]10
_chemical_formula_sum              "Sc4 H24 C48 O24"
_cell_length_a       19.9353
_cell_length_b       17.6228
_cell_length_c       11.2155
_cell_angle_alpha    84.3474
_cell_angle_beta     61.6064
_cell_angle_gamma    34.0461

_symmetry_space_group_name_H-M    "P 1"
_symmetry_Int_Tables_number       1

loop_
  _symmetry_equiv_pos_as_xyz
  'x, y, z'

loop_
  _atom_site_type_symbol
  _atom_site_label
  _atom_site_symmetry_multiplicity
  _atom_site_fract_x
  _atom_site_fract_y
  _atom_site_fract_z
  _atom_site_occupancy
  _atom_site_charge
Sc  Sc1       1.0  0.26018  0.26018  0.73982  1.0000 1.8139649869
Sc  Sc2       1.0  0.73982  0.73982  0.26018  1.0000 1.8139649869
Sc  Sc3       1.0  0.98982  0.98982  0.51018  1.0000 1.8139649869
Sc  Sc4       1.0  0.51018  0.51018  0.98982  1.0000 1.8139649869
H   H1        1.0  0.39030  0.34610  0.41090  1.0000 0.1267248091
H   H2        1.0  0.85270  0.41090  0.34610  1.0000 0.1267248091
H   H3        1.0  0.41090  0.85270  0.39030  1.0000 0.1267248091
H   H4        1.0  0.34610  0.39030  0.85270  1.0000 0.1267248091
H   H5        1.0  0.85970  0.90390  0.83910  1.0000 0.1267248091
H   H6        1.0  0.39730  0.83910  0.90390  1.0000 0.1267248091
H   H7        1.0  0.83910  0.39730  0.85970  1.0000 0.1267248091
H   H8        1.0  0.90390  0.85970  0.39730  1.0000 0.1267248091
H   H9        1.0  0.46540  0.37820  0.21620  1.0000 0.1237811387
H   H10       1.0  0.94020  0.21620  0.37820  1.0000 0.1237811387
H   H11       1.0  0.21620  0.94020  0.46540  1.0000 0.1237811387
H   H12       1.0  0.37820  0.46540  0.94020  1.0000 0.1237811387
H   H13       1.0  0.78460  0.87180  0.03380  1.0000 0.1237811387
H   H14       1.0  0.30980  0.03380  0.87180  1.0000 0.1237811387
H   H15       1.0  0.03380  0.30980  0.78460  1.0000 0.1237811387
H   H16       1.0  0.87180  0.78460  0.30980  1.0000 0.1237811387
H   H17       1.0  0.46770  0.03470  0.91970  1.0000 0.1267248091
H   H18       1.0  0.57790  0.91970  0.03470  1.0000 0.1267248091
H   H19       1.0  0.91970  0.57790  0.46770  1.0000 0.1267248091
H   H20       1.0  0.03470  0.46770  0.57790  1.0000 0.1267248091
H   H21       1.0  0.78230  0.21530  0.33030  1.0000 0.1267248091
H   H22       1.0  0.67210  0.33030  0.21530  1.0000 0.1267248091
H   H23       1.0  0.33030  0.67210  0.78230  1.0000 0.1267248091
H   H24       1.0  0.21530  0.78230  0.67210  1.0000 0.1267248091
C   C1        1.0  0.52370  0.09050  0.36630  1.0000 0.6473988533
C   C2        1.0  0.01950  0.36630  0.09050  1.0000 0.6473988533
C   C3        1.0  0.36630  0.01950  0.52370  1.0000 0.6473988533
C   C4        1.0  0.09050  0.52370  0.01950  1.0000 0.6473988533
C   C5        1.0  0.72630  0.15950  0.88370  1.0000 0.6473988533
C   C6        1.0  0.23050  0.88370  0.15950  1.0000 0.6473988533
C   C7        1.0  0.88370  0.23050  0.72630  1.0000 0.6473988533
C   C8        1.0  0.15950  0.72630  0.23050  1.0000 0.6473988533
C   C9        1.0  0.57770  0.10790  0.24110  1.0000 -0.0269834089
C   C10       1.0  0.07330  0.24110  0.10790  1.0000 -0.0269834089
C   C11       1.0  0.24110  0.07330  0.57770  1.0000 -0.0269834089
C   C12       1.0  0.10790  0.57770  0.07330  1.0000 -0.0269834089
C   C13       1.0  0.67230  0.14210  0.00890  1.0000 -0.0269834089
C   C14       1.0  0.17670  0.00890  0.14210  1.0000 -0.0269834089
C   C15       1.0  0.00890  0.17670  0.67230  1.0000 -0.0269834089
C   C16       1.0  0.14210  0.67230  0.17670  1.0000 -0.0269834089
C   C17       1.0  0.48580  0.25580  0.29380  1.0000 -0.1009816103
C   C18       1.0  0.96460  0.29380  0.25580  1.0000 -0.1009816103
C   C19       1.0  0.29380  0.96460  0.48580  1.0000 -0.1009816103
C   C20       1.0  0.25580  0.48580  0.96460  1.0000 -0.1009816103
C   C21       1.0  0.76420  0.99420  0.95620  1.0000 -0.1009816103
C   C22       1.0  0.28540  0.95620  0.99420  1.0000 -0.1009816103
C   C23       1.0  0.95620  0.28540  0.76420  1.0000 -0.1009816103
C   C24       1.0  0.99420  0.76420  0.28540  1.0000 -0.1009816103
C   C25       1.0  0.53190  0.27390  0.17830  1.0000 -0.1117055885
C   C26       1.0  0.01590  0.17830  0.27390  1.0000 -0.1117055885
C   C27       1.0  0.17830  0.01590  0.53190  1.0000 -0.1117055885
C   C28       1.0  0.27390  0.53190  0.01590  1.0000 -0.1117055885
C   C29       1.0  0.71810  0.97610  0.07170  1.0000 -0.1117055885
C   C30       1.0  0.23410  0.07170  0.97610  1.0000 -0.1117055885
C   C31       1.0  0.07170  0.23410  0.71810  1.0000 -0.1117055885
C   C32       1.0  0.97610  0.71810  0.23410  1.0000 -0.1117055885
C   C33       1.0  0.61100  0.88900  0.61100  1.0000 0.6473988533
C   C34       1.0  0.88900  0.61100  0.88900  1.0000 0.6473988533
C   C35       1.0  0.63900  0.36100  0.63900  1.0000 0.6473988533
C   C36       1.0  0.36100  0.63900  0.36100  1.0000 0.6473988533
C   C37       1.0  0.68320  0.81680  0.68320  1.0000 -0.0360419214
C   C38       1.0  0.81680  0.68320  0.81680  1.0000 -0.0360419214
C   C39       1.0  0.56680  0.43320  0.56680  1.0000 -0.0360419214
C   C40       1.0  0.43320  0.56680  0.43320  1.0000 -0.0360419214
C   C41       1.0  0.58209  0.91771  0.85089  1.0000 -0.1009816103
C   C42       1.0  0.64931  0.85089  0.91771  1.0000 -0.1009816103
C   C43       1.0  0.85089  0.64931  0.58209  1.0000 -0.1009816103
C   C44       1.0  0.91771  0.58209  0.64931  1.0000 -0.1009816103
C   C45       1.0  0.66791  0.33229  0.39911  1.0000 -0.1009816103
C   C46       1.0  0.60069  0.39911  0.33229  1.0000 -0.1009816103
C   C47       1.0  0.39911  0.60069  0.66791  1.0000 -0.1009816103
C   C48       1.0  0.33229  0.66791  0.60069  1.0000 -0.1009816103
O   O1        1.0  0.39480  0.21360  0.52040  1.0000 -0.614421612
O   O2        1.0  0.87120  0.52040  0.21360  1.0000 -0.614421612
O   O3        1.0  0.52040  0.87120  0.39480  1.0000 -0.614421612
O   O4        1.0  0.21360  0.39480  0.87120  1.0000 -0.614421612
O   O5        1.0  0.85520  0.03640  0.72960  1.0000 -0.614421612
O   O6        1.0  0.37880  0.72960  0.03640  1.0000 -0.614421612
O   O7        1.0  0.72960  0.37880  0.85520  1.0000 -0.614421612
O   O8        1.0  0.03640  0.85520  0.37880  1.0000 -0.614421612
O   O9        1.0  0.60940  0.95460  0.31160  1.0000 -0.647072351
O   O10       1.0  0.12440  0.31160  0.95460  1.0000 -0.647072351
O   O11       1.0  0.31160  0.12440  0.60940  1.0000 -0.647072351
O   O12       1.0  0.95460  0.60940  0.12440  1.0000 -0.647072351
O   O13       1.0  0.64060  0.29540  0.93840  1.0000 -0.647072351
O   O14       1.0  0.12560  0.93840  0.29540  1.0000 -0.647072351
O   O15       1.0  0.93840  0.12560  0.64060  1.0000 -0.647072351
O   O16       1.0  0.29540  0.64060  0.12560  1.0000 -0.647072351
O   O17       1.0  0.47190  0.04670  0.69310  1.0000 -0.6351443887
O   O18       1.0  0.78830  0.69310  0.04670  1.0000 -0.6351443887
O   O19       1.0  0.69310  0.78830  0.47190  1.0000 -0.6351443887
O   O20       1.0  0.04670  0.47190  0.78830  1.0000 -0.6351443887
O   O21       1.0  0.77810  0.20330  0.55690  1.0000 -0.6351443887
O   O22       1.0  0.46170  0.55690  0.20330  1.0000 -0.6351443887
O   O23       1.0  0.55690  0.46170  0.77810  1.0000 -0.6351443887
O   O24       1.0  0.20330  0.77810  0.46170  1.0000 -0.6351443887
