# DDEC6 charges by PACMAN v1.1 (https://github.com/mtap-research/PACMAN-charge/)
data_2014[TmU][nan]3[FSR]1
_chemical_formula_sum              "Tm2 U3 H26 C30 O40"
_cell_length_a       10.5105
_cell_length_b       11.439
_cell_length_c       13.4443
_cell_angle_alpha    68.998
_cell_angle_beta     78.805
_cell_angle_gamma    63.732

_symmetry_space_group_name_H-M    "P 1"
_symmetry_Int_Tables_number       1

loop_
  _symmetry_equiv_pos_as_xyz
  'x, y, z'

loop_
  _atom_site_type_symbol
  _atom_site_label
  _atom_site_symmetry_multiplicity
  _atom_site_fract_x
  _atom_site_fract_y
  _atom_site_fract_z
  _atom_site_occupancy
  _atom_site_charge
Tm  Tm1       1.0  0.59821  0.23153  0.75042  1.0000 2.1638893645
Tm  Tm2       1.0  0.40179  0.76847  0.24958  1.0000 2.1638893645
U   U1        1.0  0.62220  0.71335  0.83679  1.0000 2.4091559213
U   U2        1.0  0.37780  0.28665  0.16321  1.0000 2.4091559213
U   U3        1.0  0.00000  0.50000  0.50000  1.0000 2.382408933
H   H1        1.0  0.09860  0.36160  0.95530  1.0000 0.1382635321
H   H2        1.0  0.90140  0.63840  0.04470  1.0000 0.1382635321
H   H3        1.0  0.15750  0.11140  0.73370  1.0000 0.1382635321
H   H4        1.0  0.84250  0.88860  0.26630  1.0000 0.1382635321
H   H5        1.0  0.71220  0.99870  0.41950  1.0000 0.1346431386
H   H6        1.0  0.28780  0.00130  0.58050  1.0000 0.1346431386
H   H7        1.0  0.66330  0.18040  0.55100  1.0000 0.4100713294
H   H8        1.0  0.33670  0.81960  0.44900  1.0000 0.4100713294
H   H9        1.0  0.80310  0.09420  0.61300  1.0000 0.4281611834
H   H10       1.0  0.19690  0.90580  0.38700  1.0000 0.4281611834
H   H11       1.0  0.52790  0.48370  0.57330  1.0000 0.4029247325
H   H12       1.0  0.47210  0.51630  0.42670  1.0000 0.4029247325
H   H13       1.0  0.68980  0.43020  0.58770  1.0000 0.4231134118
H   H14       1.0  0.31020  0.56980  0.41230  1.0000 0.4231134118
H   H15       1.0  0.31590  0.45150  0.69650  1.0000 0.4281611834
H   H16       1.0  0.68410  0.54850  0.30350  1.0000 0.4281611834
H   H17       1.0  0.33650  0.34990  0.63660  1.0000 0.4281611834
H   H18       1.0  0.66350  0.65010  0.36340  1.0000 0.4281611834
H   H19       1.0  0.43510  0.47860  0.80990  1.0000 0.4281611834
H   H20       1.0  0.56490  0.52140  0.19010  1.0000 0.4281611834
H   H21       1.0  0.57770  0.40820  0.86750  1.0000 0.4434524041
H   H22       1.0  0.42230  0.59180  0.13250  1.0000 0.4434524041
H   H23       1.0  0.73550  0.94340  0.86270  1.0000 0.4100713294
H   H24       1.0  0.26450  0.05660  0.13730  1.0000 0.4100713294
H   H25       1.0  0.84640  0.00340  0.85280  1.0000 0.4281611834
H   H26       1.0  0.15360  0.99660  0.14720  1.0000 0.4231134118
C   C1        1.0  0.99480  0.34350  0.85360  1.0000 -0.0538364638
C   C2        1.0  0.00520  0.65650  0.14640  1.0000 -0.0538364638
C   C3        1.0  0.11200  0.31410  0.90800  1.0000 -0.0816341478
C   C4        1.0  0.88800  0.68590  0.09200  1.0000 -0.0816341478
C   C5        1.0  0.24850  0.21610  0.89410  1.0000 -0.1067315254
C   C6        1.0  0.75150  0.78390  0.10590  1.0000 -0.1067315254
C   C7        1.0  0.26500  0.14550  0.82310  1.0000 -0.0132548146
C   C8        1.0  0.73500  0.85450  0.17690  1.0000 -0.0132548146
C   C9        1.0  0.14620  0.16620  0.77460  1.0000 -0.1564126451
C   C10       1.0  0.85380  0.83380  0.22540  1.0000 -0.1564126451
C   C11       1.0  0.01280  0.26650  0.78620  1.0000 -0.0260758836
C   C12       1.0  0.98720  0.73350  0.21380  1.0000 -0.0260758836
C   C13       1.0  0.62560  0.99900  0.45210  1.0000 -0.1280639086
C   C14       1.0  0.37440  0.00100  0.54790  1.0000 -0.1280639086
C   C15       1.0  0.61660  0.87740  0.50450  1.0000 -0.0132548146
C   C16       1.0  0.38340  0.12260  0.49550  1.0000 -0.0132548146
C   C17       1.0  0.48990  0.87420  0.55540  1.0000 -0.0560082484
C   C18       1.0  0.51010  0.12580  0.44460  1.0000 -0.0560082484
C   C19       1.0  0.86400  0.46260  0.85720  1.0000 0.5626147549
C   C20       1.0  0.13600  0.53740  0.14280  1.0000 0.5626147549
C   C21       1.0  0.36280  0.19500  0.95550  1.0000 0.6523128312
C   C22       1.0  0.63720  0.80500  0.04450  1.0000 0.6523128312
C   C23       1.0  0.40700  0.04300  0.79540  1.0000 0.6366663735
C   C24       1.0  0.59300  0.95700  0.20460  1.0000 0.6366663735
C   C25       1.0  0.89450  0.29180  0.72590  1.0000 0.6639590423
C   C26       1.0  0.10550  0.70820  0.27410  1.0000 0.6639590423
C   C27       1.0  0.46810  0.74610  0.62010  1.0000 0.6237541597
C   C28       1.0  0.53190  0.25390  0.37990  1.0000 0.6237541597
C   C29       1.0  0.74530  0.74700  0.50770  1.0000 0.5663064282
C   C30       1.0  0.25470  0.25300  0.49230  1.0000 0.5663064282
O   O1        1.0  0.52990  0.63330  0.94470  1.0000 -0.6794564415
O   O2        1.0  0.47010  0.36670  0.05530  1.0000 -0.6794564415
O   O3        1.0  0.71730  0.79100  0.73120  1.0000 -0.6692815263
O   O4        1.0  0.28270  0.20900  0.26880  1.0000 -0.6692815263
O   O5        1.0  0.07040  0.49920  0.61070  1.0000 -0.6794564415
O   O6        1.0  0.92960  0.50080  0.38930  1.0000 -0.6794564415
O   O7        1.0  0.85160  0.53610  0.91480  1.0000 -0.5899274785
O   O8        1.0  0.14840  0.46390  0.08520  1.0000 -0.5899274785
O   O9        1.0  0.76050  0.49620  0.80120  1.0000 -0.5822117765
O   O10       1.0  0.23950  0.50380  0.19880  1.0000 -0.5822117765
O   O11       1.0  0.81200  0.23510  0.77120  1.0000 -0.6634148795
O   O12       1.0  0.18800  0.76490  0.22880  1.0000 -0.6634148795
O   O13       1.0  0.88610  0.36240  0.62680  1.0000 -0.6067382533
O   O14       1.0  0.11390  0.63760  0.37320  1.0000 -0.6067382533
O   O15       1.0  0.41750  0.92100  0.81850  1.0000 -0.6167359788
O   O16       1.0  0.58250  0.07900  0.18150  1.0000 -0.6167359788
O   O17       1.0  0.50300  0.08010  0.75420  1.0000 -0.6352796991
O   O18       1.0  0.49700  0.91990  0.24580  1.0000 -0.6314442196
O   O19       1.0  0.48460  0.18000  0.91520  1.0000 -0.6479710776
O   O20       1.0  0.51540  0.82000  0.08480  1.0000 -0.6479710776
O   O21       1.0  0.32900  0.19490  0.05170  1.0000 -0.6314442196
O   O22       1.0  0.67100  0.80510  0.94830  1.0000 -0.6314442196
O   O23       1.0  0.50180  0.69400  0.71720  1.0000 -0.6167359788
O   O24       1.0  0.49820  0.30600  0.28280  1.0000 -0.6167359788
O   O25       1.0  0.41220  0.69940  0.57960  1.0000 -0.5280151207
O   O26       1.0  0.58780  0.30060  0.42040  1.0000 -0.5280151207
O   O27       1.0  0.73500  0.63480  0.53490  1.0000 -0.5678935487
O   O28       1.0  0.26500  0.36520  0.46510  1.0000 -0.5678935487
O   O29       1.0  0.86570  0.75050  0.47970  1.0000 -0.5623091896
O   O30       1.0  0.13430  0.24950  0.52030  1.0000 -0.5623091896
O   O31       1.0  0.71100  0.15270  0.60980  1.0000 -0.840303915
O   O32       1.0  0.28900  0.84730  0.39020  1.0000 -0.840303915
O   O33       1.0  0.60730  0.42070  0.60790  1.0000 -0.840303915
O   O34       1.0  0.39270  0.57930  0.39210  1.0000 -0.840303915
O   O35       1.0  0.36950  0.37370  0.67990  1.0000 -0.840303915
O   O36       1.0  0.63050  0.62630  0.32010  1.0000 -0.840303915
O   O37       1.0  0.52120  0.40910  0.82450  1.0000 -0.840303915
O   O38       1.0  0.47880  0.59090  0.17550  1.0000 -0.840303915
O   O39       1.0  0.75960  0.01540  0.84050  1.0000 -0.8347096879
O   O40       1.0  0.24040  0.98460  0.15950  1.0000 -0.840303915
