# DDEC6 charges by PACMAN v1.1 (https://github.com/mtap-research/PACMAN-charge/)
data_2014[Mg][pts]3[FSR]1
_chemical_formula_sum              "Mg2 H16 C16 O16"
_cell_length_a       9.76784
_cell_length_b       9.76784
_cell_length_c       8.8
_cell_angle_alpha    73.2572
_cell_angle_beta     106.743
_cell_angle_gamma    87.5099

_symmetry_space_group_name_H-M    "P 1"
_symmetry_Int_Tables_number       1

loop_
  _symmetry_equiv_pos_as_xyz
  'x, y, z'

loop_
  _atom_site_type_symbol
  _atom_site_label
  _atom_site_symmetry_multiplicity
  _atom_site_fract_x
  _atom_site_fract_y
  _atom_site_fract_z
  _atom_site_occupancy
  _atom_site_charge
Mg  Mg1       1.0  0.42133  0.42133  0.75000  1.0000 1.343555308
Mg  Mg2       1.0  0.57867  0.57867  0.25000  1.0000 1.343555308
H   H1        1.0  0.26450  0.56650  0.26020  1.0000 0.3529563314
H   H2        1.0  0.56650  0.26450  0.23980  1.0000 0.3529563314
H   H3        1.0  0.73550  0.43350  0.73980  1.0000 0.3529563314
H   H4        1.0  0.43350  0.73550  0.76020  1.0000 0.3529563314
H   H5        1.0  0.07760  0.47180  0.78360  1.0000 0.1205346054
H   H6        1.0  0.47180  0.07760  0.71640  1.0000 0.1205346054
H   H7        1.0  0.92240  0.52820  0.21640  1.0000 0.1205346054
H   H8        1.0  0.52820  0.92240  0.28360  1.0000 0.1205346054
H   H9        1.0  0.19650  0.32850  0.62700  1.0000 0.3571897364
H   H10       1.0  0.32850  0.19650  0.87300  1.0000 0.3571897364
H   H11       1.0  0.80350  0.67150  0.37300  1.0000 0.3571897364
H   H12       1.0  0.67150  0.80350  0.12700  1.0000 0.3571897364
H   H13       1.0  0.19830  0.47030  0.64800  1.0000 0.3747697538
H   H14       1.0  0.47030  0.19830  0.85200  1.0000 0.3747697538
H   H15       1.0  0.80170  0.52970  0.35200  1.0000 0.3747697538
H   H16       1.0  0.52970  0.80170  0.14800  1.0000 0.3747697538
C   C1        1.0  0.29293  0.53787  0.99855  1.0000 0.6547081089
C   C2        1.0  0.53787  0.29293  0.50145  1.0000 0.6547081089
C   C3        1.0  0.70707  0.46213  0.00145  1.0000 0.6547081089
C   C4        1.0  0.46213  0.70707  0.49855  1.0000 0.6547081089
C   C5        1.0  0.14214  0.51806  0.00134  1.0000 -0.136791938
C   C6        1.0  0.51806  0.14214  0.49866  1.0000 -0.136791938
C   C7        1.0  0.85786  0.48194  0.99866  1.0000 -0.136791938
C   C8        1.0  0.48194  0.85786  0.50134  1.0000 -0.136791938
C   C9        1.0  0.04646  0.48338  0.87015  1.0000 -0.2179043302
C   C10       1.0  0.48338  0.04646  0.62985  1.0000 -0.2179043302
C   C11       1.0  0.95354  0.51662  0.12985  1.0000 -0.2179043302
C   C12       1.0  0.51662  0.95354  0.37015  1.0000 -0.2179043302
C   C13       1.0  0.09446  0.53416  0.13280  1.0000 0.2626693314
C   C14       1.0  0.53416  0.09446  0.36720  1.0000 0.2626693314
C   C15       1.0  0.90554  0.46584  0.86720  1.0000 0.2626693314
C   C16       1.0  0.46584  0.90554  0.63280  1.0000 0.2626693314
O   O1        1.0  0.33217  0.51589  0.88458  1.0000 -0.6304815793
O   O2        1.0  0.51589  0.33217  0.61542  1.0000 -0.6304815793
O   O3        1.0  0.66783  0.48411  0.11542  1.0000 -0.6304815793
O   O4        1.0  0.48411  0.66783  0.38458  1.0000 -0.6304815793
O   O5        1.0  0.37038  0.58068  0.11460  1.0000 -0.6383059555
O   O6        1.0  0.58068  0.37038  0.38540  1.0000 -0.6383059555
O   O7        1.0  0.62962  0.41932  0.88540  1.0000 -0.6383059555
O   O8        1.0  0.41932  0.62962  0.61460  1.0000 -0.6383059555
O   O9        1.0  0.18191  0.56847  0.26505  1.0000 -0.434312645
O   O10       1.0  0.56847  0.18191  0.23495  1.0000 -0.434312645
O   O11       1.0  0.81809  0.43153  0.73495  1.0000 -0.434312645
O   O12       1.0  0.43153  0.81809  0.76505  1.0000 -0.4357916349
O   O13       1.0  0.21744  0.41508  0.59480  1.0000 -0.7364393258
O   O14       1.0  0.41508  0.21744  0.90520  1.0000 -0.7364393258
O   O15       1.0  0.78256  0.58492  0.40520  1.0000 -0.7364393258
O   O16       1.0  0.58492  0.78256  0.09480  1.0000 -0.7364393258
