# DDEC6 charges by PACMAN v1.1 (https://github.com/mtap-research/PACMAN-charge/)
data_2014[Zn][ths]3[FSR]1
_chemical_formula_sum              "Zn2 H40 C60 N12 O14"
_cell_length_a       7.5481
_cell_length_b       10.8878
_cell_length_c       19.046
_cell_angle_alpha    79.948
_cell_angle_beta     79.57
_cell_angle_gamma    73.077

_symmetry_space_group_name_H-M    "P 1"
_symmetry_Int_Tables_number       1

loop_
  _symmetry_equiv_pos_as_xyz
  'x, y, z'

loop_
  _atom_site_type_symbol
  _atom_site_label
  _atom_site_symmetry_multiplicity
  _atom_site_fract_x
  _atom_site_fract_y
  _atom_site_fract_z
  _atom_site_occupancy
  _atom_site_charge
Zn  Zn1       1.0  0.28364  0.71336  0.03212  1.0000 0.6973034228
Zn  Zn2       1.0  0.60719  0.21560  0.54836  1.0000 0.6918122853
H   H1        1.0  0.25880  0.98490  0.91610  1.0000 0.1203941536
H   H2        1.0  0.86400  0.83280  0.02000  1.0000 0.1303958729
H   H3        1.0  0.71870  0.03040  0.94470  1.0000 0.1303958729
H   H4        1.0  0.80930  0.53430  0.09130  1.0000 0.1101294031
H   H5        1.0  0.13960  0.10960  0.78420  1.0000 0.1407677943
H   H6        1.0  0.78280  0.27460  0.94700  1.0000 0.1504692892
H   H7        1.0  0.61840  0.40450  0.15110  1.0000 0.1303958729
H   H8        1.0  0.70860  0.25210  0.24540  1.0000 0.1407677943
H   H9        1.0  0.88660  0.49400  0.75900  1.0000 0.1504692892
H   H10       1.0  0.38290  0.21330  0.69860  1.0000 0.1303958729
H   H11       1.0  0.91760  0.43310  0.62830  1.0000 0.1407677943
H   H12       1.0  0.77070  0.66730  0.81670  1.0000 0.1303958729
H   H13       1.0  0.54790  0.44700  0.97710  1.0000 0.1203941536
H   H14       1.0  0.99850  0.04460  0.20010  1.0000 0.1407677943
H   H15       1.0  0.07180  0.02690  0.40820  1.0000 0.1504692892
H   H16       1.0  0.17060  0.40270  0.52440  1.0000 0.1101294031
H   H17       1.0  0.54520  0.80660  0.89540  1.0000 0.1303958729
H   H18       1.0  0.05010  0.82180  0.21620  1.0000 0.1101294031
H   H19       1.0  0.12560  0.80560  0.42240  1.0000 0.1101294031
H   H20       1.0  0.66860  0.93910  0.48720  1.0000 0.1203941536
H   H21       1.0  0.39990  0.29050  0.41400  1.0000 0.1203941536
H   H22       1.0  0.22780  0.50350  0.40630  1.0000 0.3503209884
H   H23       1.0  0.38150  0.14480  0.33130  1.0000 0.1303958729
H   H24       1.0  0.24210  0.05840  0.59440  1.0000 0.1101294031
H   H25       1.0  0.64180  0.75350  0.44900  1.0000 0.1407677943
H   H26       1.0  0.50610  0.98590  0.26850  1.0000 0.1504692892
H   H27       1.0  0.46280  0.96250  0.67120  1.0000 0.1303958729
H   H28       1.0  0.40200  0.82340  0.76980  1.0000 0.1407677943
H   H29       1.0  0.63720  0.59740  0.27270  1.0000 0.1573360498
H   H30       1.0  0.94670  0.44260  0.34670  1.0000 0.1407677943
H   H31       1.0  0.49480  0.52270  0.48580  1.0000 0.1101294031
H   H32       1.0  0.43600  0.65670  0.18120  1.0000 0.1303958729
H   H33       1.0  0.54180  0.99640  0.14480  1.0000 0.1407677943
H   H34       1.0  0.33250  0.62430  0.72680  1.0000 0.1407677943
H   H35       1.0  0.07020  0.59680  0.92750  1.0000 0.1407677943
H   H36       1.0  0.94880  0.25620  0.44070  1.0000 0.1303958729
H   H37       1.0  0.42740  0.96120  0.04080  1.0000 0.1303958729
H   H38       1.0  0.48270  0.40640  0.74270  1.0000 0.1101294031
H   H39       1.0  0.20630  0.37640  0.94310  1.0000 0.1203941536
H   H40       1.0  0.60510  0.10410  0.81270  1.0000 0.3503209884
C   C1        1.0  0.14220  0.97030  0.93320  1.0000 0.1203941536
C   C2        1.0  0.92680  0.88740  0.98910  1.0000 -0.0378503473
C   C3        1.0  0.15310  0.52830  0.10800  1.0000 0.5528124655
C   C4        1.0  0.84550  0.99810  0.94850  1.0000 -0.0709556239
C   C5        1.0  0.03100  0.44490  0.14510  1.0000 -0.0378503473
C   C6        1.0  0.95600  0.17330  0.87080  1.0000 0.2098355004
C   C7        1.0  0.09450  0.34250  0.19920  1.0000 -0.1289530163
C   C8        1.0  0.85150  0.46820  0.12740  1.0000 -0.1386287575
C   C9        1.0  0.05470  0.18200  0.80180  1.0000 -0.2603996212
C   C10       1.0  0.84120  0.28150  0.89970  1.0000 -0.2689413106
C   C11       1.0  0.28830  0.30290  0.22050  1.0000 0.5898508514
C   C12       1.0  0.97200  0.27280  0.23570  1.0000 0.1932450915
C   C13       1.0  0.73580  0.39130  0.16440  1.0000 -0.0709556239
C   C14       1.0  0.02160  0.30400  0.75960  1.0000 0.2098355004
C   C15       1.0  0.81390  0.40190  0.85690  1.0000 0.2161194543
C   C16       1.0  0.79040  0.29840  0.21910  1.0000 -0.1886455779
C   C17       1.0  0.90430  0.41360  0.78710  1.0000 -0.2603996212
C   C18       1.0  0.03730  0.05510  0.30140  1.0000 0.2672378505
C   C19       1.0  0.30030  0.26440  0.66750  1.0000 0.1203941536
C   C20       1.0  0.04110  0.38470  0.62970  1.0000 -0.0614397069
C   C21       1.0  0.69830  0.64090  0.85840  1.0000 -0.07884851
C   C22       1.0  0.57420  0.51910  0.94780  1.0000 0.1035873006
C   C23       1.0  0.02610  0.99610  0.24400  1.0000 -0.2285801038
C   C24       1.0  0.07100  0.98480  0.36990  1.0000 -0.2089365041
C   C25       1.0  0.18270  0.36950  0.57230  1.0000 -0.0614397069
C   C26       1.0  0.57490  0.71660  0.90200  1.0000 -0.047718958
C   C27       1.0  0.05720  0.86320  0.25400  1.0000 -0.07884851
C   C28       1.0  0.10210  0.85330  0.37800  1.0000 -0.1182959443
C   C29       1.0  0.09950  0.78860  0.32060  1.0000 -0.1003006513
C   C30       1.0  0.15010  0.64540  0.32900  1.0000 0.5528124655
C   C31       1.0  0.60200  0.00890  0.45830  1.0000 0.1203941536
C   C32       1.0  0.45250  0.20140  0.41820  1.0000 -0.047718958
C   C33       1.0  0.89130  0.06500  0.60670  1.0000 0.5528124655
C   C34       1.0  0.44320  0.12160  0.37170  1.0000 -0.07884851
C   C35       1.0  0.03000  0.99530  0.65600  1.0000 -0.0378503473
C   C36       1.0  0.57480  0.88590  0.36430  1.0000 0.2043604786
C   C37       1.0  0.98810  0.91340  0.71960  1.0000 -0.1386287575
C   C38       1.0  0.21100  0.00840  0.63720  1.0000 -0.1386287575
C   C39       1.0  0.62440  0.76470  0.40090  1.0000 -0.2689413106
C   C40       1.0  0.54250  0.90300  0.29310  1.0000 -0.2517771935
C   C41       1.0  0.79760  0.88490  0.74030  1.0000 0.5898508514
C   C42       1.0  0.13100  0.84540  0.75910  1.0000 0.2043604786
C   C43       1.0  0.34540  0.94700  0.68210  1.0000 -0.07884851
C   C44       1.0  0.64840  0.65890  0.36640  1.0000 0.1932450915
C   C45       1.0  0.56510  0.79480  0.25900  1.0000 0.2161194543
C   C46       1.0  0.30930  0.86580  0.74110  1.0000 -0.1958179241
C   C47       1.0  0.62010  0.67010  0.29520  1.0000 -0.2603996212
C   C48       1.0  0.18760  0.62890  0.82480  1.0000 0.2371303672
C   C49       1.0  0.85690  0.43740  0.38670  1.0000 -0.0709556239
C   C50       1.0  0.61030  0.47890  0.46330  1.0000 0.0879763002
C   C51       1.0  0.44770  0.73760  0.15880  1.0000 0.1303958729
C   C52       1.0  0.50880  0.92290  0.13950  1.0000 -0.0709556239
C   C53       1.0  0.30850  0.57420  0.77050  1.0000 -0.2162405764
C   C54       1.0  0.15070  0.55700  0.89000  1.0000 -0.2089365041
C   C55       1.0  0.85510  0.33370  0.43850  1.0000 -0.017802773
C   C56       1.0  0.44170  0.90410  0.08310  1.0000 -0.0378503473
C   C57       1.0  0.39690  0.44310  0.77990  1.0000 -0.1003006513
C   C58       1.0  0.23390  0.42560  0.89950  1.0000 -0.1003006513
C   C59       1.0  0.36070  0.36540  0.84350  1.0000 -0.07884851
C   C60       1.0  0.45040  0.22510  0.85480  1.0000 0.524119922
N   N1        1.0  0.11730  0.86940  0.97710  1.0000 -0.2689413106
N   N2        1.0  0.39770  0.78970  0.09690  1.0000 -0.2689413106
N   N3        1.0  0.49450  0.64130  0.96030  1.0000 -0.288508526
N   N4        1.0  0.98030  0.05150  0.91520  1.0000 0.0103565301
N   N5        1.0  0.11630  0.31620  0.68770  1.0000 0.0103565301
N   N6        1.0  0.69870  0.51430  0.88670  1.0000 0.0021090533
N   N7        1.0  0.34740  0.29550  0.59870  1.0000 -0.2767420327
N   N8        1.0  0.55350  0.12780  0.47290  1.0000 -0.2767420327
N   N9        1.0  0.69880  0.35980  0.48560  1.0000 -0.2689413106
N   N10       1.0  0.54610  0.99750  0.39750  1.0000 0.0021090533
N   N11       1.0  0.70270  0.53010  0.40550  1.0000 0.0103565301
N   N12       1.0  0.51940  0.81520  0.18730  1.0000 0.0103565301
O   O1        1.0  0.07720  0.63280  0.07140  1.0000 -0.5278342481
O   O2        1.0  0.32370  0.49600  0.11140  1.0000 -0.5190759217
O   O3        1.0  0.40140  0.20840  0.19790  1.0000 -0.558519057
O   O4        1.0  0.31930  0.36730  0.26600  1.0000 -0.5716079986
O   O5        1.0  0.02810  0.18690  0.29600  1.0000 -0.2285801038
O   O6        1.0  0.94350  0.07670  0.54080  1.0000 -0.558519057
O   O7        1.0  0.72130  0.11140  0.63290  1.0000 -0.5278342481
O   O8        1.0  0.15890  0.59500  0.27080  1.0000 -0.5389766013
O   O9        1.0  0.18270  0.58140  0.38810  1.0000 -0.4191237008
O   O10       1.0  0.77760  0.79930  0.70910  1.0000 -0.5716079986
O   O11       1.0  0.68430  0.93990  0.78740  1.0000 -0.558519057
O   O12       1.0  0.08910  0.76180  0.82030  1.0000 -0.2285801038
O   O13       1.0  0.56180  0.18330  0.79610  1.0000 -0.4733460163
O   O14       1.0  0.41980  0.15450  0.91010  1.0000 -0.5278342481
