# DDEC6 charges by PACMAN v1.1 (https://github.com/mtap-research/PACMAN-charge/)
data_2014[FeAu][fsc]3[FSR]2
_chemical_formula_sum              "Fe2 H16 Au4 C32 N20"
_cell_length_a       10.3801
_cell_length_b       10.3801
_cell_length_c       15.4986
_cell_angle_alpha    90
_cell_angle_beta     90
_cell_angle_gamma    109.928

_symmetry_space_group_name_H-M    "P 1"
_symmetry_Int_Tables_number       1

loop_
  _symmetry_equiv_pos_as_xyz
  'x, y, z'

loop_
  _atom_site_type_symbol
  _atom_site_label
  _atom_site_symmetry_multiplicity
  _atom_site_fract_x
  _atom_site_fract_y
  _atom_site_fract_z
  _atom_site_occupancy
  _atom_site_charge
Fe  Fe1       1.0  0.75000  0.25000  0.61406  1.0000 0.7665312204
Fe  Fe2       1.0  0.25000  0.75000  0.38594  1.0000 0.7665312204
H   H1        1.0  0.58950  0.08950  0.77040  1.0000 0.1103937065
H   H2        1.0  0.91050  0.41050  0.77040  1.0000 0.1103937065
H   H3        1.0  0.58290  0.08290  0.91890  1.0000 0.1343893025
H   H4        1.0  0.91710  0.41710  0.91890  1.0000 0.1343893025
H   H5        1.0  0.58420  0.08420  0.30910  1.0000 0.1394985977
H   H6        1.0  0.91580  0.41580  0.30910  1.0000 0.1394985977
H   H7        1.0  0.59050  0.09050  0.45870  1.0000 0.1167236294
H   H8        1.0  0.90950  0.40950  0.45870  1.0000 0.1167236294
H   H9        1.0  0.41050  0.91050  0.22960  1.0000 0.1103937065
H   H10       1.0  0.08950  0.58950  0.22960  1.0000 0.1103937065
H   H11       1.0  0.41710  0.91710  0.08110  1.0000 0.1343893025
H   H12       1.0  0.08290  0.58290  0.08110  1.0000 0.1343893025
H   H13       1.0  0.41580  0.91580  0.69090  1.0000 0.1394985977
H   H14       1.0  0.08420  0.58420  0.69090  1.0000 0.1394985977
H   H15       1.0  0.40950  0.90950  0.54130  1.0000 0.1167236294
H   H16       1.0  0.09050  0.59050  0.54130  1.0000 0.1167236294
Au  Au1       1.0  0.75000  0.75000  0.60566  1.0000 0.0127009561
Au  Au2       1.0  0.25000  0.25000  0.60566  1.0000 0.0127009561
Au  Au3       1.0  0.75000  0.75000  0.39434  1.0000 0.0127009561
Au  Au4       1.0  0.25000  0.25000  0.39434  1.0000 0.0127009561
C   C1        1.0  0.72580  0.93140  0.61000  1.0000 0.0583948333
C   C2        1.0  0.77420  0.56860  0.61000  1.0000 0.0583948333
C   C3        1.0  0.43140  0.22580  0.61000  1.0000 0.0583948333
C   C4        1.0  0.06860  0.27420  0.61000  1.0000 0.0583948333
C   C5        1.0  0.65660  0.15660  0.80100  1.0000 0.1103937065
C   C6        1.0  0.84340  0.34340  0.80100  1.0000 0.1103937065
C   C7        1.0  0.65160  0.15160  0.89050  1.0000 -0.1617451396
C   C8        1.0  0.84840  0.34840  0.89050  1.0000 -0.1617451396
C   C9        1.0  0.75000  0.25000  0.93620  1.0000 0.0783878292
C   C10       1.0  0.75000  0.25000  0.03110  1.0000 0.2461002085
C   C11       1.0  0.75000  0.25000  0.19490  1.0000 0.2763061735
C   C12       1.0  0.75000  0.25000  0.29240  1.0000 0.0783878292
C   C13       1.0  0.65300  0.15300  0.33750  1.0000 -0.1492285144
C   C14       1.0  0.84700  0.34700  0.33750  1.0000 -0.1492285144
C   C15       1.0  0.65800  0.15800  0.42860  1.0000 0.1167236294
C   C16       1.0  0.84200  0.34200  0.42860  1.0000 0.1167236294
C   C17       1.0  0.56860  0.77420  0.39000  1.0000 0.0583948333
C   C18       1.0  0.93140  0.72580  0.39000  1.0000 0.0583948333
C   C19       1.0  0.27420  0.06860  0.39000  1.0000 0.0583948333
C   C20       1.0  0.22580  0.43140  0.39000  1.0000 0.0583948333
C   C21       1.0  0.34340  0.84340  0.19900  1.0000 0.1103937065
C   C22       1.0  0.15660  0.65660  0.19900  1.0000 0.1103937065
C   C23       1.0  0.34840  0.84840  0.10950  1.0000 -0.1617451396
C   C24       1.0  0.15160  0.65160  0.10950  1.0000 -0.1617451396
C   C25       1.0  0.25000  0.75000  0.06380  1.0000 0.0783878292
C   C26       1.0  0.25000  0.75000  0.96890  1.0000 0.2461002085
C   C27       1.0  0.25000  0.75000  0.80510  1.0000 0.2763061735
C   C28       1.0  0.25000  0.75000  0.70760  1.0000 0.0783878292
C   C29       1.0  0.34700  0.84700  0.66250  1.0000 -0.1492285144
C   C30       1.0  0.15300  0.65300  0.66250  1.0000 -0.1492285144
C   C31       1.0  0.34200  0.84200  0.57140  1.0000 0.1167236294
C   C32       1.0  0.15800  0.65800  0.57140  1.0000 0.1167236294
N   N1        1.0  0.71560  0.03540  0.61330  1.0000 -0.3592219439
N   N2        1.0  0.78440  0.46460  0.61330  1.0000 -0.3592219439
N   N3        1.0  0.53540  0.21560  0.61330  1.0000 -0.3592219439
N   N4        1.0  0.96460  0.28440  0.61330  1.0000 -0.3592219439
N   N5        1.0  0.75000  0.25000  0.75760  1.0000 -0.2039987903
N   N6        1.0  0.64980  0.14980  0.07270  1.0000 -0.1617451396
N   N7        1.0  0.85020  0.35020  0.07270  1.0000 -0.1617451396
N   N8        1.0  0.65180  0.15180  0.15910  1.0000 -0.178911281
N   N9        1.0  0.84820  0.34820  0.15910  1.0000 -0.178911281
N   N10       1.0  0.75000  0.25000  0.47310  1.0000 -0.2167929348
N   N11       1.0  0.46460  0.78440  0.38670  1.0000 -0.3592219439
N   N12       1.0  0.03540  0.71560  0.38670  1.0000 -0.3592219439
N   N13       1.0  0.28440  0.96460  0.38670  1.0000 -0.3592219439
N   N14       1.0  0.21560  0.53540  0.38670  1.0000 -0.3592219439
N   N15       1.0  0.25000  0.75000  0.24240  1.0000 -0.2039987903
N   N16       1.0  0.35020  0.85020  0.92730  1.0000 -0.1617451396
N   N17       1.0  0.14980  0.64980  0.92730  1.0000 -0.1617451396
N   N18       1.0  0.34820  0.84820  0.84090  1.0000 -0.178911281
N   N19       1.0  0.15180  0.65180  0.84090  1.0000 -0.178911281
N   N20       1.0  0.25000  0.75000  0.52690  1.0000 -0.2167929348
