# DDEC6 charges by PACMAN v1.1 (https://github.com/mtap-research/PACMAN-charge/)
data_2014[Eu][nan]3[FSR]7
_chemical_formula_sum              "Eu4 H56 C72 N4 O32"
_cell_length_a       13.969
_cell_length_b       13.969
_cell_length_c       14.7313
_cell_angle_alpha    84.0798
_cell_angle_beta     95.9202
_cell_angle_gamma    123.161

_symmetry_space_group_name_H-M    "P 1"
_symmetry_Int_Tables_number       1

loop_
  _symmetry_equiv_pos_as_xyz
  'x, y, z'

loop_
  _atom_site_type_symbol
  _atom_site_label
  _atom_site_symmetry_multiplicity
  _atom_site_fract_x
  _atom_site_fract_y
  _atom_site_fract_z
  _atom_site_occupancy
  _atom_site_charge
Eu  Eu1       1.0  0.87873  0.53627  0.96980  1.0000 2.0446636798
Eu  Eu2       1.0  0.53627  0.87873  0.53020  1.0000 2.0446636798
Eu  Eu3       1.0  0.12127  0.46373  0.03020  1.0000 2.0446636798
Eu  Eu4       1.0  0.46373  0.12127  0.46980  1.0000 2.0446636798
H   H1        1.0  0.23320  0.69000  0.28670  1.0000 0.139618313
H   H2        1.0  0.69000  0.23320  0.21330  1.0000 0.139618313
H   H3        1.0  0.76680  0.31000  0.71330  1.0000 0.139618313
H   H4        1.0  0.31000  0.76680  0.78670  1.0000 0.139618313
H   H5        1.0  0.15770  0.86670  0.42960  1.0000 0.1308917226
H   H6        1.0  0.86670  0.15770  0.07040  1.0000 0.1308917226
H   H7        1.0  0.84230  0.13330  0.57040  1.0000 0.1308917226
H   H8        1.0  0.13330  0.84230  0.92960  1.0000 0.1308917226
H   H9        1.0  0.94030  0.67530  0.22770  1.0000 0.1308917226
H   H10       1.0  0.67530  0.94030  0.27230  1.0000 0.1308917226
H   H11       1.0  0.05970  0.32470  0.77230  1.0000 0.1308917226
H   H12       1.0  0.32470  0.05970  0.72770  1.0000 0.1308917226
H   H13       1.0  0.05360  0.95500  0.39770  1.0000 0.1227504918
H   H14       1.0  0.95500  0.05360  0.10230  1.0000 0.1227504918
H   H15       1.0  0.94640  0.04500  0.60230  1.0000 0.1227504918
H   H16       1.0  0.04500  0.94640  0.89770  1.0000 0.1227504918
H   H17       1.0  0.92040  0.98560  0.44160  1.0000 0.1136687221
H   H18       1.0  0.98560  0.92040  0.05840  1.0000 0.1136687221
H   H19       1.0  0.07960  0.01440  0.55840  1.0000 0.1136687221
H   H20       1.0  0.01440  0.07960  0.94160  1.0000 0.1136687221
H   H21       1.0  0.67230  0.66830  0.38060  1.0000 0.1308917226
H   H22       1.0  0.66830  0.67230  0.11940  1.0000 0.1308917226
H   H23       1.0  0.32770  0.33170  0.61940  1.0000 0.1308917226
H   H24       1.0  0.33170  0.32770  0.88060  1.0000 0.1308917226
H   H25       1.0  0.80370  0.63950  0.33090  1.0000 0.1227504918
H   H26       1.0  0.63950  0.80370  0.16910  1.0000 0.1227504918
H   H27       1.0  0.19630  0.36050  0.66910  1.0000 0.1227504918
H   H28       1.0  0.36050  0.19630  0.83090  1.0000 0.1227504918
H   H29       1.0  0.98300  0.61700  0.75810  1.0000 0.1008259179
H   H30       1.0  0.61700  0.98300  0.74190  1.0000 0.1008259179
H   H31       1.0  0.01700  0.38300  0.24190  1.0000 0.1008259179
H   H32       1.0  0.38300  0.01700  0.25810  1.0000 0.1008259179
H   H33       1.0  0.04320  0.82000  0.57240  1.0000 0.139618313
H   H34       1.0  0.82000  0.04320  0.92760  1.0000 0.1308917226
H   H35       1.0  0.95680  0.18000  0.42760  1.0000 0.139618313
H   H36       1.0  0.18000  0.95680  0.07240  1.0000 0.139618313
H   H37       1.0  0.11670  0.79470  0.64660  1.0000 0.139618313
H   H38       1.0  0.79470  0.11670  0.85340  1.0000 0.139618313
H   H39       1.0  0.88330  0.20530  0.35340  1.0000 0.139618313
H   H40       1.0  0.20530  0.88330  0.14660  1.0000 0.139618313
H   H41       1.0  0.01730  0.69550  0.58920  1.0000 0.139618313
H   H42       1.0  0.69550  0.01730  0.91080  1.0000 0.139618313
H   H43       1.0  0.98270  0.30450  0.41080  1.0000 0.139618313
H   H44       1.0  0.30450  0.98270  0.08920  1.0000 0.139618313
H   H45       1.0  0.83730  0.74670  0.73110  1.0000 0.139618313
H   H46       1.0  0.74670  0.83730  0.76890  1.0000 0.139618313
H   H47       1.0  0.16270  0.25330  0.26890  1.0000 0.139618313
H   H48       1.0  0.25330  0.16270  0.23110  1.0000 0.139618313
H   H49       1.0  0.93590  0.86410  0.68960  1.0000 0.1308917226
H   H50       1.0  0.86410  0.93590  0.81040  1.0000 0.1308917226
H   H51       1.0  0.06410  0.13590  0.31040  1.0000 0.1308917226
H   H52       1.0  0.13590  0.06410  0.18960  1.0000 0.1308917226
H   H53       1.0  0.84710  0.76770  0.62490  1.0000 0.139618313
H   H54       1.0  0.76770  0.84710  0.87510  1.0000 0.139618313
H   H55       1.0  0.15290  0.23230  0.37510  1.0000 0.139618313
H   H56       1.0  0.23230  0.15290  0.12490  1.0000 0.139618313
C   C1        1.0  0.05450  0.60070  0.16350  1.0000 0.6201212527
C   C2        1.0  0.60070  0.05450  0.33650  1.0000 0.6201212527
C   C3        1.0  0.94550  0.39930  0.83650  1.0000 0.6201212527
C   C4        1.0  0.39930  0.94550  0.66350  1.0000 0.6201212527
C   C5        1.0  0.08350  0.67370  0.24380  1.0000 -0.0256352639
C   C6        1.0  0.67370  0.08350  0.25620  1.0000 -0.0256352639
C   C7        1.0  0.91650  0.32630  0.75620  1.0000 -0.0256352639
C   C8        1.0  0.32630  0.91650  0.74380  1.0000 -0.0256352639
C   C9        1.0  0.18390  0.71230  0.29760  1.0000 -0.1176683707
C   C10       1.0  0.71230  0.18390  0.20240  1.0000 -0.1176683707
C   C11       1.0  0.81610  0.28770  0.70240  1.0000 -0.1176683707
C   C12       1.0  0.28770  0.81610  0.79760  1.0000 -0.1176683707
C   C13       1.0  0.21140  0.78380  0.36730  1.0000 -0.0256352639
C   C14       1.0  0.78380  0.21140  0.13270  1.0000 -0.0256352639
C   C15       1.0  0.78860  0.21620  0.63270  1.0000 -0.0256352639
C   C16       1.0  0.21620  0.78860  0.86730  1.0000 -0.0256352639
C   C17       1.0  0.32160  0.82560  0.42320  1.0000 0.611467612
C   C18       1.0  0.82560  0.32160  0.07680  1.0000 0.611467612
C   C19       1.0  0.67840  0.17440  0.57680  1.0000 0.611467612
C   C20       1.0  0.17440  0.67840  0.92320  1.0000 0.611467612
C   C21       1.0  0.13680  0.81520  0.38490  1.0000 -0.1501305529
C   C22       1.0  0.81520  0.13680  0.11510  1.0000 -0.1501305529
C   C23       1.0  0.86320  0.18480  0.61510  1.0000 -0.1501305529
C   C24       1.0  0.18480  0.86320  0.88490  1.0000 -0.1501305529
C   C25       1.0  0.03090  0.77090  0.33660  1.0000 0.0637436854
C   C26       1.0  0.77090  0.03090  0.16340  1.0000 0.0637436854
C   C27       1.0  0.96910  0.22910  0.66340  1.0000 0.0637436854
C   C28       1.0  0.22910  0.96910  0.83660  1.0000 0.0637436854
C   C29       1.0  0.00810  0.70210  0.26360  1.0000 -0.1501305529
C   C30       1.0  0.70210  0.00810  0.23640  1.0000 -0.1501305529
C   C31       1.0  0.99190  0.29790  0.73640  1.0000 -0.1501305529
C   C32       1.0  0.29790  0.99190  0.76360  1.0000 -0.1501305529
C   C33       1.0  0.94490  0.79290  0.36130  1.0000 0.0693460749
C   C34       1.0  0.79290  0.94490  0.13870  1.0000 0.0693460749
C   C35       1.0  0.05510  0.20710  0.63870  1.0000 0.0693460749
C   C36       1.0  0.20710  0.05510  0.86130  1.0000 0.0693460749
C   C37       1.0  0.97660  0.89640  0.39410  1.0000 -0.1501305529
C   C38       1.0  0.89640  0.97660  0.10590  1.0000 -0.1501305529
C   C39       1.0  0.02340  0.10360  0.60590  1.0000 -0.1501305529
C   C40       1.0  0.10360  0.02340  0.89410  1.0000 -0.1501305529
C   C41       1.0  0.89670  0.91450  0.42160  1.0000 -0.1128131012
C   C42       1.0  0.91450  0.89670  0.07840  1.0000 -0.1128131012
C   C43       1.0  0.10330  0.08550  0.57840  1.0000 -0.1128131012
C   C44       1.0  0.08550  0.10330  0.92160  1.0000 -0.1128131012
C   C45       1.0  0.78110  0.82750  0.42000  1.0000 -0.0163151734
C   C46       1.0  0.82750  0.78110  0.08000  1.0000 -0.0163151734
C   C47       1.0  0.21890  0.17250  0.58000  1.0000 -0.0163151734
C   C48       1.0  0.17250  0.21890  0.92000  1.0000 -0.0163151734
C   C49       1.0  0.69820  0.84560  0.46100  1.0000 0.5422401549
C   C50       1.0  0.84560  0.69820  0.03900  1.0000 0.5422401549
C   C51       1.0  0.30180  0.15440  0.53900  1.0000 0.5422401549
C   C52       1.0  0.15440  0.30180  0.96100  1.0000 0.5422401549
C   C53       1.0  0.74950  0.72650  0.38470  1.0000 -0.0936877681
C   C54       1.0  0.72650  0.74950  0.11530  1.0000 -0.0936877681
C   C55       1.0  0.25050  0.27350  0.61530  1.0000 -0.0936877681
C   C56       1.0  0.27350  0.25050  0.88470  1.0000 -0.0936877681
C   C57       1.0  0.82840  0.70880  0.35530  1.0000 -0.1426938949
C   C58       1.0  0.70880  0.82840  0.14470  1.0000 -0.1426938949
C   C59       1.0  0.17160  0.29120  0.64470  1.0000 -0.1426938949
C   C60       1.0  0.29120  0.17160  0.85530  1.0000 -0.1426938949
C   C61       1.0  0.94840  0.65760  0.76050  1.0000 0.320966375
C   C62       1.0  0.65760  0.94840  0.73950  1.0000 0.320966375
C   C63       1.0  0.05160  0.34240  0.23950  1.0000 0.320966375
C   C64       1.0  0.34240  0.05160  0.26050  1.0000 0.320966375
C   C65       1.0  0.04150  0.76470  0.61780  1.0000 -0.3422797946
C   C66       1.0  0.76470  0.04150  0.88220  1.0000 -0.3422797946
C   C67       1.0  0.95850  0.23530  0.38220  1.0000 -0.3422797946
C   C68       1.0  0.23530  0.95850  0.11780  1.0000 -0.3422797946
C   C69       1.0  0.88930  0.78270  0.68290  1.0000 -0.3103842614
C   C70       1.0  0.78270  0.88930  0.81710  1.0000 -0.3103842614
C   C71       1.0  0.11070  0.21730  0.31710  1.0000 -0.3103842614
C   C72       1.0  0.21730  0.11070  0.18290  1.0000 -0.3103842614
N   N1        1.0  0.96030  0.73950  0.68730  1.0000 0.0175924846
N   N2        1.0  0.73950  0.96030  0.81270  1.0000 0.0175924846
N   N3        1.0  0.03970  0.26050  0.31270  1.0000 0.0175924846
N   N4        1.0  0.26050  0.03970  0.18730  1.0000 0.0175924846
O   O1        1.0  0.96120  0.57020  0.12060  1.0000 -0.6449596761
O   O2        1.0  0.57020  0.96120  0.37940  1.0000 -0.6449596761
O   O3        1.0  0.03880  0.42980  0.87940  1.0000 -0.6449596761
O   O4        1.0  0.42980  0.03880  0.62060  1.0000 -0.6449596761
O   O5        1.0  0.12501  0.57639  0.14610  1.0000 -0.6191082476
O   O6        1.0  0.57639  0.12501  0.35390  1.0000 -0.6191082476
O   O7        1.0  0.87499  0.42361  0.85390  1.0000 -0.6191082476
O   O8        1.0  0.42361  0.87499  0.64610  1.0000 -0.6191082476
O   O9        1.0  0.35880  0.76200  0.43760  1.0000 -0.548284757
O   O10       1.0  0.76200  0.35880  0.06240  1.0000 -0.548284757
O   O11       1.0  0.64120  0.23800  0.56240  1.0000 -0.548284757
O   O12       1.0  0.23800  0.64120  0.93760  1.0000 -0.548284757
O   O13       1.0  0.37210  0.92190  0.45760  1.0000 -0.7251067637
O   O14       1.0  0.92190  0.37210  0.04240  1.0000 -0.7251067637
O   O15       1.0  0.62790  0.07810  0.54240  1.0000 -0.7245777128
O   O16       1.0  0.07810  0.62790  0.95760  1.0000 -0.7251067637
O   O17       1.0  0.73340  0.93460  0.49930  1.0000 -0.5950997351
O   O18       1.0  0.93460  0.73340  0.00070  1.0000 -0.5950997351
O   O19       1.0  0.26660  0.06540  0.50070  1.0000 -0.5950997351
O   O20       1.0  0.06540  0.26660  0.99930  1.0000 -0.5950997351
O   O21       1.0  0.59340  0.76720  0.45620  1.0000 -0.5672914712
O   O22       1.0  0.76720  0.59340  0.04380  1.0000 -0.5672914712
O   O23       1.0  0.40660  0.23280  0.54380  1.0000 -0.5672914712
O   O24       1.0  0.23280  0.40660  0.95620  1.0000 -0.5672914712
O   O25       1.0  0.68360  0.43700  0.89620  1.0000 -0.3154469905
O   O26       1.0  0.43700  0.68360  0.60380  1.0000 -0.3154469905
O   O27       1.0  0.31640  0.56300  0.10380  1.0000 -0.3103842614
O   O28       1.0  0.56300  0.31640  0.39620  1.0000 -0.3103842614
O   O29       1.0  0.89440  0.64200  0.82410  1.0000 -0.459093499
O   O30       1.0  0.64200  0.89440  0.67590  1.0000 -0.459093499
O   O31       1.0  0.10560  0.35800  0.17590  1.0000 -0.459093499
O   O32       1.0  0.35800  0.10560  0.32410  1.0000 -0.459093499
