# DDEC6 charges by PACMAN v1.1 (https://github.com/mtap-research/PACMAN-charge/)
data_2014[Al][nan]3[FSR]4
_chemical_formula_sum              "Al4 H16 C32 O20"
_cell_length_a       11.9984
_cell_length_b       11.9984
_cell_length_c       11.9984
_cell_angle_alpha    103.93
_cell_angle_beta     103.93
_cell_angle_gamma    121.233

_symmetry_space_group_name_H-M    "P 1"
_symmetry_Int_Tables_number       1

loop_
  _symmetry_equiv_pos_as_xyz
  'x, y, z'

loop_
  _atom_site_type_symbol
  _atom_site_label
  _atom_site_symmetry_multiplicity
  _atom_site_fract_x
  _atom_site_fract_y
  _atom_site_fract_z
  _atom_site_occupancy
  _atom_site_charge
Al  Al1       1.0  0.19243  0.80757  0.00000  1.0000 1.6571280725
Al  Al2       1.0  0.05757  0.55757  0.11514  1.0000 1.6571280725
Al  Al3       1.0  0.44243  0.94243  0.88486  1.0000 1.6571280725
Al  Al4       1.0  0.80757  0.19243  0.00000  1.0000 1.6571280725
H   H1        1.0  0.43994  0.87500  0.06494  1.0000 0.4090557985
H   H2        1.0  0.81006  0.37500  0.93506  1.0000 0.4090557985
H   H3        1.0  0.12500  0.56006  0.93506  1.0000 0.4090557985
H   H4        1.0  0.62500  0.18994  0.06494  1.0000 0.4090557985
H   H5        1.0  0.11013  0.11013  0.00000  1.0000 0.1333182521
H   H6        1.0  0.13987  0.63987  0.50000  1.0000 0.1333182521
H   H7        1.0  0.88987  0.88987  0.00000  1.0000 0.1333182521
H   H8        1.0  0.36013  0.86013  0.50000  1.0000 0.1333182521
H   H9        1.0  0.49694  0.29987  0.95419  1.0000 0.1121419512
H   H10       1.0  0.75306  0.20725  0.30293  1.0000 0.1121419512
H   H11       1.0  0.70013  0.50306  0.04581  1.0000 0.1121419512
H   H12       1.0  0.79275  0.24694  0.69707  1.0000 0.1121419512
H   H13       1.0  0.54987  0.09568  0.30293  1.0000 0.1121419512
H   H14       1.0  0.45725  0.65432  0.95419  1.0000 0.1121419512
H   H15       1.0  0.90432  0.45013  0.69707  1.0000 0.1121419512
H   H16       1.0  0.34568  0.54275  0.04581  1.0000 0.1121419512
C   C1        1.0  0.29125  0.05975  0.95700  1.0000 0.6308665045
C   C2        1.0  0.95875  0.41575  0.26850  1.0000 0.6308665045
C   C3        1.0  0.94025  0.70875  0.04300  1.0000 0.6308665045
C   C4        1.0  0.58425  0.04125  0.73150  1.0000 0.6308665045
C   C5        1.0  0.30975  0.85275  0.26850  1.0000 0.6308665045
C   C6        1.0  0.66575  0.89725  0.95700  1.0000 0.6308665045
C   C7        1.0  0.14725  0.69025  0.73150  1.0000 0.6308665045
C   C8        1.0  0.10275  0.33425  0.04300  1.0000 0.6308665045
C   C9        1.0  0.30157  0.18921  0.97388  1.0000 -0.0618539283
C   C10       1.0  0.94843  0.42231  0.38764  1.0000 -0.0618539283
C   C11       1.0  0.81079  0.69843  0.02612  1.0000 -0.0618539283
C   C12       1.0  0.57769  0.05157  0.61236  1.0000 -0.0618539283
C   C13       1.0  0.43921  0.96533  0.38764  1.0000 -0.0618539283
C   C14       1.0  0.67231  0.78467  0.97388  1.0000 -0.0618539283
C   C15       1.0  0.03467  0.56079  0.61236  1.0000 -0.0618539283
C   C16       1.0  0.21533  0.32769  0.02612  1.0000 -0.0618539283
C   C17       1.0  0.19931  0.19931  0.00000  1.0000 -0.0876049109
C   C18       1.0  0.05069  0.55069  0.50000  1.0000 -0.0876049109
C   C19       1.0  0.80069  0.80069  0.00000  1.0000 -0.0876049109
C   C20       1.0  0.44931  0.94931  0.50000  1.0000 -0.0876049109
C   C21       1.0  0.41984  0.30748  0.97388  1.0000 -0.1312178902
C   C22       1.0  0.83016  0.30404  0.38764  1.0000 -0.1312178902
C   C23       1.0  0.69252  0.58016  0.02612  1.0000 -0.1312178902
C   C24       1.0  0.69596  0.16984  0.61236  1.0000 -0.1312178902
C   C25       1.0  0.55748  0.08360  0.38764  1.0000 -0.1312178902
C   C26       1.0  0.55404  0.66640  0.97388  1.0000 -0.1312178902
C   C27       1.0  0.91640  0.44252  0.61236  1.0000 -0.1312178902
C   C28       1.0  0.33360  0.44596  0.02612  1.0000 -0.1312178902
C   C29       1.0  0.43586  0.43586  0.00000  1.0000 0.0783110701
C   C30       1.0  0.81414  0.31414  0.50000  1.0000 0.0783110701
C   C31       1.0  0.56414  0.56414  0.00000  1.0000 0.0783110701
C   C32       1.0  0.68586  0.18586  0.50000  1.0000 0.0783110701
O   O1        1.0  0.37750  0.87500  0.00250  1.0000 -1.0075104467
O   O2        1.0  0.87250  0.37500  0.99750  1.0000 -1.0075104467
O   O3        1.0  0.12500  0.62250  0.99750  1.0000 -1.0075104467
O   O4        1.0  0.62500  0.12750  0.00250  1.0000 -1.0075104467
O   O5        1.0  0.22497  0.98013  0.00516  1.0000 -0.553395652
O   O6        1.0  0.02503  0.53019  0.25516  1.0000 -0.553395652
O   O7        1.0  0.01987  0.77503  0.99484  1.0000 -0.553395652
O   O8        1.0  0.46981  0.97497  0.74484  1.0000 -0.553395652
O   O9        1.0  0.23013  0.72497  0.25516  1.0000 -0.553395652
O   O10       1.0  0.78019  0.02503  0.00516  1.0000 -0.553395652
O   O11       1.0  0.27503  0.76987  0.74484  1.0000 -0.553395652
O   O12       1.0  0.97497  0.21981  0.99484  1.0000 -0.553395652
O   O13       1.0  0.34857  0.02731  0.89422  1.0000 -0.587889903
O   O14       1.0  0.90143  0.29565  0.17874  1.0000 -0.587889903
O   O15       1.0  0.97269  0.65143  0.10578  1.0000 -0.587889903
O   O16       1.0  0.70435  0.09857  0.82126  1.0000 -0.587889903
O   O17       1.0  0.27731  0.88309  0.17874  1.0000 -0.587889903
O   O18       1.0  0.54565  0.86691  0.89422  1.0000 -0.587889903
O   O19       1.0  0.11691  0.72269  0.82126  1.0000 -0.587889903
O   O20       1.0  0.13309  0.45435  0.10578  1.0000 -0.587889903
