# DDEC6 charges by PACMAN v1.1 (https://github.com/mtap-research/PACMAN-charge/)
data_2014[Cu][nbo]3[FSR]1
_chemical_formula_sum              "Cu6 H24 C18 N24 O18"
_cell_length_a       12.8056
_cell_length_b       12.8056
_cell_length_c       12.8056
_cell_angle_alpha    114.798
_cell_angle_beta     114.798
_cell_angle_gamma    114.798

_symmetry_space_group_name_H-M    "P 1"
_symmetry_Int_Tables_number       1

loop_
  _symmetry_equiv_pos_as_xyz
  'x, y, z'

loop_
  _atom_site_type_symbol
  _atom_site_label
  _atom_site_symmetry_multiplicity
  _atom_site_fract_x
  _atom_site_fract_y
  _atom_site_fract_z
  _atom_site_occupancy
  _atom_site_charge
Cu  Cu1       1.0  0.21007  0.15807  0.73851  1.0000 0.7341321349
Cu  Cu2       1.0  0.15807  0.73851  0.21007  1.0000 0.7341321349
Cu  Cu3       1.0  0.73851  0.21007  0.15807  1.0000 0.7341321349
Cu  Cu4       1.0  0.78993  0.84193  0.26149  1.0000 0.7341321349
Cu  Cu5       1.0  0.84193  0.26149  0.78993  1.0000 0.7341321349
Cu  Cu6       1.0  0.26149  0.78993  0.84193  1.0000 0.7341321349
H   H1        1.0  0.36780  0.34970  0.71720  1.0000 0.3618045986
H   H2        1.0  0.34970  0.71720  0.36780  1.0000 0.3618045986
H   H3        1.0  0.71720  0.36780  0.34970  1.0000 0.3618045986
H   H4        1.0  0.63220  0.65030  0.28280  1.0000 0.3618045986
H   H5        1.0  0.65030  0.28280  0.63220  1.0000 0.3618045986
H   H6        1.0  0.28280  0.63220  0.65030  1.0000 0.3618045986
H   H7        1.0  0.51100  0.46180  0.88460  1.0000 0.3618045986
H   H8        1.0  0.46180  0.88460  0.51100  1.0000 0.3618045986
H   H9        1.0  0.88460  0.51100  0.46180  1.0000 0.3618045986
H   H10       1.0  0.48900  0.53820  0.11540  1.0000 0.3618045986
H   H11       1.0  0.53820  0.11540  0.48900  1.0000 0.3618045986
H   H12       1.0  0.11540  0.48900  0.53820  1.0000 0.3618045986
H   H13       1.0  0.73080  0.44980  0.17660  1.0000 0.2603021652
H   H14       1.0  0.44980  0.17660  0.73080  1.0000 0.2603021652
H   H15       1.0  0.17660  0.73080  0.44980  1.0000 0.2603021652
H   H16       1.0  0.26920  0.55020  0.82340  1.0000 0.2603021652
H   H17       1.0  0.55020  0.82340  0.26920  1.0000 0.2603021652
H   H18       1.0  0.82340  0.26920  0.55020  1.0000 0.2603021652
H   H19       1.0  0.61600  0.45340  0.10330  1.0000 0.2748754561
H   H20       1.0  0.45340  0.10330  0.61600  1.0000 0.2748754561
H   H21       1.0  0.10330  0.61600  0.45340  1.0000 0.2756851554
H   H22       1.0  0.38400  0.54660  0.89670  1.0000 0.2756851554
H   H23       1.0  0.54660  0.89670  0.38400  1.0000 0.2756851554
H   H24       1.0  0.89670  0.38400  0.54660  1.0000 0.2748754561
C   C1        1.0  0.27620  0.99720  0.81570  1.0000 0.1727303207
C   C2        1.0  0.99720  0.81570  0.27620  1.0000 0.1727303207
C   C3        1.0  0.81570  0.27620  0.99720  1.0000 0.1727303207
C   C4        1.0  0.72380  0.00280  0.18430  1.0000 0.1727303207
C   C5        1.0  0.00280  0.18430  0.72380  1.0000 0.1727303207
C   C6        1.0  0.18430  0.72380  0.00280  1.0000 0.1727303207
C   C7        1.0  0.51590  0.23990  0.99420  1.0000 0.4976362129
C   C8        1.0  0.23990  0.99420  0.51590  1.0000 0.4976362129
C   C9        1.0  0.99420  0.51590  0.23990  1.0000 0.4976362129
C   C10       1.0  0.48410  0.76010  0.00580  1.0000 0.4976362129
C   C11       1.0  0.76010  0.00580  0.48410  1.0000 0.4976362129
C   C12       1.0  0.00580  0.48410  0.76010  1.0000 0.4976362129
C   C13       1.0  0.09590  0.84850  0.69350  1.0000 0.536767447
C   C14       1.0  0.84850  0.69350  0.09590  1.0000 0.536767447
C   C15       1.0  0.69350  0.09590  0.84850  1.0000 0.536767447
C   C16       1.0  0.90410  0.15150  0.30650  1.0000 0.536767447
C   C17       1.0  0.15150  0.30650  0.90410  1.0000 0.536767447
C   C18       1.0  0.30650  0.90410  0.15150  1.0000 0.536767447
N   N1        1.0  0.35326  0.14637  0.86997  1.0000 -0.4091994822
N   N2        1.0  0.14637  0.86997  0.35326  1.0000 -0.4091994822
N   N3        1.0  0.86997  0.35326  0.14637  1.0000 -0.4091994822
N   N4        1.0  0.64674  0.85363  0.13003  1.0000 -0.4091994822
N   N5        1.0  0.85363  0.13003  0.64674  1.0000 -0.4091994822
N   N6        1.0  0.13003  0.64674  0.85363  1.0000 -0.4091994822
N   N7        1.0  0.53736  0.15318  0.01206  1.0000 -0.2905331015
N   N8        1.0  0.15318  0.01206  0.53736  1.0000 -0.2905331015
N   N9        1.0  0.01206  0.53736  0.15318  1.0000 -0.2905331015
N   N10       1.0  0.46264  0.84682  0.98794  1.0000 -0.2905331015
N   N11       1.0  0.84682  0.98794  0.46264  1.0000 -0.2905331015
N   N12       1.0  0.98794  0.46264  0.84682  1.0000 -0.2905331015
N   N13       1.0  0.38068  0.99555  0.89497  1.0000 -0.1987474323
N   N14       1.0  0.99555  0.89497  0.38068  1.0000 -0.1987474323
N   N15       1.0  0.89497  0.38068  0.99555  1.0000 -0.1987474323
N   N16       1.0  0.61932  0.00445  0.10503  1.0000 -0.1987474323
N   N17       1.0  0.00445  0.10503  0.61932  1.0000 -0.1987474323
N   N18       1.0  0.10503  0.61932  0.00445  1.0000 -0.1987474323
N   N19       1.0  0.64234  0.40216  0.08530  1.0000 -0.6331940055
N   N20       1.0  0.40216  0.08530  0.64234  1.0000 -0.6331940055
N   N21       1.0  0.08530  0.64234  0.40216  1.0000 -0.6331940055
N   N22       1.0  0.35766  0.59784  0.91470  1.0000 -0.6331940055
N   N23       1.0  0.59784  0.91470  0.35766  1.0000 -0.6331940055
N   N24       1.0  0.91470  0.35766  0.59784  1.0000 -0.6331940055
O   O1        1.0  0.06365  0.73163  0.67972  1.0000 -0.519187963
O   O2        1.0  0.73163  0.67972  0.06365  1.0000 -0.519187963
O   O3        1.0  0.67972  0.06365  0.73163  1.0000 -0.519187963
O   O4        1.0  0.93635  0.26837  0.32028  1.0000 -0.519187963
O   O5        1.0  0.26837  0.32028  0.93635  1.0000 -0.519187963
O   O6        1.0  0.32028  0.93635  0.26837  1.0000 -0.519187963
O   O7        1.0  0.99546  0.84822  0.62052  1.0000 -0.4989317914
O   O8        1.0  0.84822  0.62052  0.99546  1.0000 -0.4989317914
O   O9        1.0  0.62052  0.99546  0.84822  1.0000 -0.4989317914
O   O10       1.0  0.00454  0.15178  0.37948  1.0000 -0.4989317914
O   O11       1.0  0.15178  0.37948  0.00454  1.0000 -0.4989317914
O   O12       1.0  0.37948  0.00454  0.15178  1.0000 -0.4989317914
O   O13       1.0  0.41114  0.37700  0.80406  1.0000 -0.6506640077
O   O14       1.0  0.37700  0.80406  0.41114  1.0000 -0.6506640077
O   O15       1.0  0.80406  0.41114  0.37700  1.0000 -0.6506640077
O   O16       1.0  0.58886  0.62300  0.19594  1.0000 -0.6506640077
O   O17       1.0  0.62300  0.19594  0.58886  1.0000 -0.6506640077
O   O18       1.0  0.19594  0.58886  0.62300  1.0000 -0.6506640077
