# DDEC6 charges by PACMAN v1.1 (https://github.com/mtap-research/PACMAN-charge/)
data_2014[Sc][nan]3[FSR]6
_chemical_formula_sum              "Sc4 H24 C48 O24"
_cell_length_a       20.0075
_cell_length_b       17.6878
_cell_length_c       11.2543
_cell_angle_alpha    84.3465
_cell_angle_beta     61.6135
_cell_angle_gamma    34.04

_symmetry_space_group_name_H-M    "P 1"
_symmetry_Int_Tables_number       1

loop_
  _symmetry_equiv_pos_as_xyz
  'x, y, z'

loop_
  _atom_site_type_symbol
  _atom_site_label
  _atom_site_symmetry_multiplicity
  _atom_site_fract_x
  _atom_site_fract_y
  _atom_site_fract_z
  _atom_site_occupancy
  _atom_site_charge
Sc  Sc1       1.0  0.26038  0.26038  0.73962  1.0000 1.8261773658
Sc  Sc2       1.0  0.73962  0.73962  0.26038  1.0000 1.8261773658
Sc  Sc3       1.0  0.98962  0.98962  0.51038  1.0000 1.8261773658
Sc  Sc4       1.0  0.51038  0.51038  0.98962  1.0000 1.8261773658
H   H1        1.0  0.38640  0.34820  0.41000  1.0000 0.1265088789
H   H2        1.0  0.85540  0.41000  0.34820  1.0000 0.1265088789
H   H3        1.0  0.41000  0.85540  0.38640  1.0000 0.1265088789
H   H4        1.0  0.34820  0.38640  0.85540  1.0000 0.1265088789
H   H5        1.0  0.86360  0.90180  0.84000  1.0000 0.1265088789
H   H6        1.0  0.39460  0.84000  0.90180  1.0000 0.1265088789
H   H7        1.0  0.84000  0.39460  0.86360  1.0000 0.1265088789
H   H8        1.0  0.90180  0.86360  0.39460  1.0000 0.1265088789
H   H9        1.0  0.46420  0.37860  0.21540  1.0000 0.1265088789
H   H10       1.0  0.94180  0.21540  0.37860  1.0000 0.1265088789
H   H11       1.0  0.21540  0.94180  0.46420  1.0000 0.1265088789
H   H12       1.0  0.37860  0.46420  0.94180  1.0000 0.1265088789
H   H13       1.0  0.78580  0.87140  0.03460  1.0000 0.1265088789
H   H14       1.0  0.30820  0.03460  0.87140  1.0000 0.1265088789
H   H15       1.0  0.03460  0.30820  0.78580  1.0000 0.1265088789
H   H16       1.0  0.87140  0.78580  0.30820  1.0000 0.1265088789
H   H17       1.0  0.46900  0.03400  0.91880  1.0000 0.1265088789
H   H18       1.0  0.57820  0.91880  0.03400  1.0000 0.1265088789
H   H19       1.0  0.91880  0.57820  0.46900  1.0000 0.1265088789
H   H20       1.0  0.03400  0.46900  0.57820  1.0000 0.1265088789
H   H21       1.0  0.78100  0.21600  0.33120  1.0000 0.1265088789
H   H22       1.0  0.67180  0.33120  0.21600  1.0000 0.1265088789
H   H23       1.0  0.33120  0.67180  0.78100  1.0000 0.1265088789
H   H24       1.0  0.21600  0.78100  0.67180  1.0000 0.1265088789
C   C1        1.0  0.52490  0.08950  0.36490  1.0000 0.6563069395
C   C2        1.0  0.02070  0.36490  0.08950  1.0000 0.6563069395
C   C3        1.0  0.36490  0.02070  0.52490  1.0000 0.6563069395
C   C4        1.0  0.08950  0.52490  0.02070  1.0000 0.6563069395
C   C5        1.0  0.72510  0.16050  0.88510  1.0000 0.6563069395
C   C6        1.0  0.22930  0.88510  0.16050  1.0000 0.6563069395
C   C7        1.0  0.88510  0.22930  0.72510  1.0000 0.6563069395
C   C8        1.0  0.16050  0.72510  0.22930  1.0000 0.6563069395
C   C9        1.0  0.57670  0.10830  0.24110  1.0000 -0.0305586451
C   C10       1.0  0.07390  0.24110  0.10830  1.0000 -0.0305586451
C   C11       1.0  0.24110  0.07390  0.57670  1.0000 -0.0305586451
C   C12       1.0  0.10830  0.57670  0.07390  1.0000 -0.0305586451
C   C13       1.0  0.67330  0.14170  0.00890  1.0000 -0.0305586451
C   C14       1.0  0.17610  0.00890  0.14170  1.0000 -0.0305586451
C   C15       1.0  0.00890  0.17610  0.67330  1.0000 -0.0305586451
C   C16       1.0  0.14170  0.67330  0.17610  1.0000 -0.0305586451
C   C17       1.0  0.48190  0.25790  0.29290  1.0000 -0.1008406433
C   C18       1.0  0.96730  0.29290  0.25790  1.0000 -0.1008406433
C   C19       1.0  0.29290  0.96730  0.48190  1.0000 -0.1008406433
C   C20       1.0  0.25790  0.48190  0.96730  1.0000 -0.1008406433
C   C21       1.0  0.76810  0.99210  0.95710  1.0000 -0.1008406433
C   C22       1.0  0.28270  0.95710  0.99210  1.0000 -0.1008406433
C   C23       1.0  0.95710  0.28270  0.76810  1.0000 -0.1008406433
C   C24       1.0  0.99210  0.76810  0.28270  1.0000 -0.1008406433
C   C25       1.0  0.53070  0.27430  0.17750  1.0000 -0.1060148909
C   C26       1.0  0.01750  0.17750  0.27430  1.0000 -0.1060148909
C   C27       1.0  0.17750  0.01750  0.53070  1.0000 -0.1060148909
C   C28       1.0  0.27430  0.53070  0.01750  1.0000 -0.1060148909
C   C29       1.0  0.71930  0.97570  0.07250  1.0000 -0.1060148909
C   C30       1.0  0.23250  0.07250  0.97570  1.0000 -0.1060148909
C   C31       1.0  0.07250  0.23250  0.71930  1.0000 -0.1060148909
C   C32       1.0  0.97570  0.71930  0.23250  1.0000 -0.1060148909
C   C33       1.0  0.61110  0.88890  0.61110  1.0000 0.6563069395
C   C34       1.0  0.88890  0.61110  0.88890  1.0000 0.6563069395
C   C35       1.0  0.63890  0.36110  0.63890  1.0000 0.6563069395
C   C36       1.0  0.36110  0.63890  0.36110  1.0000 0.6563069395
C   C37       1.0  0.68340  0.81660  0.68340  1.0000 -0.0305586451
C   C38       1.0  0.81660  0.68340  0.81660  1.0000 -0.0305586451
C   C39       1.0  0.56660  0.43340  0.56660  1.0000 -0.0305586451
C   C40       1.0  0.43340  0.56660  0.43340  1.0000 -0.0305586451
C   C41       1.0  0.58337  0.91703  0.84997  1.0000 -0.1008406433
C   C42       1.0  0.64963  0.84997  0.91703  1.0000 -0.1008406433
C   C43       1.0  0.84997  0.64963  0.58337  1.0000 -0.1008406433
C   C44       1.0  0.91703  0.58337  0.64963  1.0000 -0.1008406433
C   C45       1.0  0.66667  0.33297  0.40003  1.0000 -0.1008406433
C   C46       1.0  0.60037  0.40003  0.33297  1.0000 -0.1008406433
C   C47       1.0  0.40003  0.60037  0.66667  1.0000 -0.1008406433
C   C48       1.0  0.33297  0.66667  0.60037  1.0000 -0.1008406433
O   O1        1.0  0.39740  0.21140  0.51940  1.0000 -0.6184103119
O   O2        1.0  0.87180  0.51940  0.21140  1.0000 -0.6184103119
O   O3        1.0  0.51940  0.87180  0.39740  1.0000 -0.6184103119
O   O4        1.0  0.21140  0.39740  0.87180  1.0000 -0.6184103119
O   O5        1.0  0.85260  0.03860  0.73060  1.0000 -0.6184103119
O   O6        1.0  0.37820  0.73060  0.03860  1.0000 -0.6184103119
O   O7        1.0  0.73060  0.37820  0.85260  1.0000 -0.6184103119
O   O8        1.0  0.03860  0.85260  0.37820  1.0000 -0.6184103119
O   O9        1.0  0.61140  0.95320  0.30900  1.0000 -0.652565636
O   O10       1.0  0.12640  0.30900  0.95320  1.0000 -0.652565636
O   O11       1.0  0.30900  0.12640  0.61140  1.0000 -0.652565636
O   O12       1.0  0.95320  0.61140  0.12640  1.0000 -0.652565636
O   O13       1.0  0.63860  0.29680  0.94100  1.0000 -0.652565636
O   O14       1.0  0.12360  0.94100  0.29680  1.0000 -0.652565636
O   O15       1.0  0.94100  0.12360  0.63860  1.0000 -0.652565636
O   O16       1.0  0.29680  0.63860  0.12360  1.0000 -0.652565636
O   O17       1.0  0.47350  0.04730  0.69170  1.0000 -0.652565636
O   O18       1.0  0.78750  0.69170  0.04730  1.0000 -0.652565636
O   O19       1.0  0.69170  0.78750  0.47350  1.0000 -0.652565636
O   O20       1.0  0.04730  0.47350  0.78750  1.0000 -0.652565636
O   O21       1.0  0.77650  0.20270  0.55830  1.0000 -0.652565636
O   O22       1.0  0.46250  0.55830  0.20270  1.0000 -0.652565636
O   O23       1.0  0.55830  0.46250  0.77650  1.0000 -0.652565636
O   O24       1.0  0.20270  0.77650  0.46250  1.0000 -0.652565636
