# DDEC6 charges by PACMAN v1.1 (https://github.com/mtap-research/PACMAN-charge/)
data_2014[Al][nan]3[FSR]6
_chemical_formula_sum              "Al4 H16 C32 O20"
_cell_length_a       12.0057
_cell_length_b       12.0057
_cell_length_c       12.0057
_cell_angle_alpha    103.924
_cell_angle_beta     103.924
_cell_angle_gamma    121.248

_symmetry_space_group_name_H-M    "P 1"
_symmetry_Int_Tables_number       1

loop_
  _symmetry_equiv_pos_as_xyz
  'x, y, z'

loop_
  _atom_site_type_symbol
  _atom_site_label
  _atom_site_symmetry_multiplicity
  _atom_site_fract_x
  _atom_site_fract_y
  _atom_site_fract_z
  _atom_site_occupancy
  _atom_site_charge
Al  Al1       1.0  0.19236  0.80764  0.00000  1.0000 1.6313902482
Al  Al2       1.0  0.05764  0.55764  0.11528  1.0000 1.6313902482
Al  Al3       1.0  0.44236  0.94236  0.88472  1.0000 1.6313902482
Al  Al4       1.0  0.80764  0.19236  0.00000  1.0000 1.6313902482
H   H1        1.0  0.43782  0.87500  0.06282  1.0000 0.4020927295
H   H2        1.0  0.81218  0.37500  0.93718  1.0000 0.4020927295
H   H3        1.0  0.12500  0.56218  0.93718  1.0000 0.4020927295
H   H4        1.0  0.62500  0.18782  0.06282  1.0000 0.4020927295
H   H5        1.0  0.11214  0.11214  0.00000  1.0000 0.1361278899
H   H6        1.0  0.13786  0.63786  0.50000  1.0000 0.1361278899
H   H7        1.0  0.88786  0.88786  0.00000  1.0000 0.1361278899
H   H8        1.0  0.36214  0.86214  0.50000  1.0000 0.1361278899
H   H9        1.0  0.49360  0.29921  0.95363  1.0000 0.1116230234
H   H10       1.0  0.75640  0.21003  0.30561  1.0000 0.1116230234
H   H11       1.0  0.70079  0.50640  0.04637  1.0000 0.1116230234
H   H12       1.0  0.78997  0.24360  0.69439  1.0000 0.1116230234
H   H13       1.0  0.54921  0.09558  0.30561  1.0000 0.1116230234
H   H14       1.0  0.46003  0.65442  0.95363  1.0000 0.1116230234
H   H15       1.0  0.90442  0.45079  0.69439  1.0000 0.1116230234
H   H16       1.0  0.34558  0.53997  0.04637  1.0000 0.1116230234
C   C1        1.0  0.28898  0.05768  0.95412  1.0000 0.6206262454
C   C2        1.0  0.96102  0.41514  0.26870  1.0000 0.6206262454
C   C3        1.0  0.94232  0.71102  0.04588  1.0000 0.6206262454
C   C4        1.0  0.58486  0.03898  0.73130  1.0000 0.6206262454
C   C5        1.0  0.30768  0.85356  0.26870  1.0000 0.6206262454
C   C6        1.0  0.66514  0.89644  0.95412  1.0000 0.6206262454
C   C7        1.0  0.14644  0.69232  0.73130  1.0000 0.6206262454
C   C8        1.0  0.10356  0.33486  0.04588  1.0000 0.6206262454
C   C9        1.0  0.30065  0.18831  0.97320  1.0000 -0.051646542
C   C10       1.0  0.94935  0.42255  0.38766  1.0000 -0.051646542
C   C11       1.0  0.81169  0.69935  0.02680  1.0000 -0.051646542
C   C12       1.0  0.57745  0.05065  0.61234  1.0000 -0.051646542
C   C13       1.0  0.43831  0.96511  0.38766  1.0000 -0.051646542
C   C14       1.0  0.67255  0.78489  0.97320  1.0000 -0.051646542
C   C15       1.0  0.03489  0.56169  0.61234  1.0000 -0.051646542
C   C16       1.0  0.21511  0.32745  0.02680  1.0000 -0.051646542
C   C17       1.0  0.19866  0.19866  0.00000  1.0000 -0.0975395098
C   C18       1.0  0.05134  0.55134  0.50000  1.0000 -0.0975395098
C   C19       1.0  0.80134  0.80134  0.00000  1.0000 -0.0975395098
C   C20       1.0  0.44866  0.94866  0.50000  1.0000 -0.0975395098
C   C21       1.0  0.41910  0.30676  0.97320  1.0000 -0.1406578228
C   C22       1.0  0.83090  0.30410  0.38766  1.0000 -0.1406578228
C   C23       1.0  0.69324  0.58090  0.02680  1.0000 -0.1406578228
C   C24       1.0  0.69590  0.16910  0.61234  1.0000 -0.1406578228
C   C25       1.0  0.55676  0.08356  0.38766  1.0000 -0.1406578228
C   C26       1.0  0.55410  0.66644  0.97320  1.0000 -0.1406578228
C   C27       1.0  0.91644  0.44324  0.61234  1.0000 -0.1406578228
C   C28       1.0  0.33356  0.44590  0.02680  1.0000 -0.1406578228
C   C29       1.0  0.43556  0.43556  0.00000  1.0000 0.0748422488
C   C30       1.0  0.81444  0.31444  0.50000  1.0000 0.0748422488
C   C31       1.0  0.56444  0.56444  0.00000  1.0000 0.0748422488
C   C32       1.0  0.68556  0.18556  0.50000  1.0000 0.0748422488
O   O1        1.0  0.37699  0.87500  0.00199  1.0000 -1.0064023688
O   O2        1.0  0.87301  0.37500  0.99801  1.0000 -1.0064023688
O   O3        1.0  0.12500  0.62301  0.99801  1.0000 -1.0064023688
O   O4        1.0  0.62500  0.12699  0.00199  1.0000 -1.0064023688
O   O5        1.0  0.22218  0.98121  0.00161  1.0000 -0.5433067411
O   O6        1.0  0.02782  0.52943  0.25903  1.0000 -0.5433067411
O   O7        1.0  0.01879  0.77782  0.99839  1.0000 -0.5433067411
O   O8        1.0  0.47057  0.97218  0.74097  1.0000 -0.5433067411
O   O9        1.0  0.23121  0.72960  0.25903  1.0000 -0.5433067411
O   O10       1.0  0.77943  0.02040  0.00161  1.0000 -0.5433067411
O   O11       1.0  0.27040  0.76879  0.74097  1.0000 -0.5433067411
O   O12       1.0  0.97960  0.22057  0.99839  1.0000 -0.5433067411
O   O13       1.0  0.34649  0.03016  0.89145  1.0000 -0.5668937817
O   O14       1.0  0.90351  0.29496  0.18367  1.0000 -0.5668937817
O   O15       1.0  0.96984  0.65351  0.10855  1.0000 -0.5668937817
O   O16       1.0  0.70504  0.09649  0.81633  1.0000 -0.5668937817
O   O17       1.0  0.28016  0.88871  0.18367  1.0000 -0.5668937817
O   O18       1.0  0.54496  0.86129  0.89145  1.0000 -0.5668937817
O   O19       1.0  0.11129  0.71984  0.81633  1.0000 -0.5668937817
O   O20       1.0  0.13871  0.45504  0.10855  1.0000 -0.5668937817
