# DDEC6 charges by PACMAN v1.1 (https://github.com/mtap-research/PACMAN-charge/)
data_2014[Mg][acs]3[FSR]1
_chemical_formula_sum              "Mg4 H12 C12 O24"
_cell_length_a       7.3829
_cell_length_b       7.8999
_cell_length_c       13.7505
_cell_angle_alpha    90
_cell_angle_beta     90
_cell_angle_gamma    90

_symmetry_space_group_name_H-M    "P 1"
_symmetry_Int_Tables_number       1

loop_
  _symmetry_equiv_pos_as_xyz
  'x, y, z'

loop_
  _atom_site_type_symbol
  _atom_site_label
  _atom_site_symmetry_multiplicity
  _atom_site_fract_x
  _atom_site_fract_y
  _atom_site_fract_z
  _atom_site_occupancy
  _atom_site_charge
Mg  Mg1       1.0  0.26001  0.22098  0.16484  1.0000 1.294290566
Mg  Mg2       1.0  0.76001  0.27902  0.83516  1.0000 1.294290566
Mg  Mg3       1.0  0.23999  0.77902  0.66484  1.0000 1.294290566
Mg  Mg4       1.0  0.73999  0.72098  0.33516  1.0000 1.294290566
H   H1        1.0  0.97370  0.93990  0.20170  1.0000 0.1085907435
H   H2        1.0  0.47370  0.56010  0.79830  1.0000 0.1085907435
H   H3        1.0  0.52630  0.06010  0.70170  1.0000 0.1085907435
H   H4        1.0  0.02630  0.43990  0.29830  1.0000 0.1085907435
H   H5        1.0  0.49230  0.50590  0.22580  1.0000 0.1085907435
H   H6        1.0  0.99230  0.99410  0.77420  1.0000 0.1085907435
H   H7        1.0  0.00770  0.49410  0.72580  1.0000 0.1085907435
H   H8        1.0  0.50770  0.00590  0.27420  1.0000 0.1085907435
H   H9        1.0  0.98310  0.31080  0.01310  1.0000 0.1085907435
H   H10       1.0  0.48310  0.18920  0.98690  1.0000 0.1085907435
H   H11       1.0  0.51690  0.68920  0.51310  1.0000 0.1085907435
H   H12       1.0  0.01690  0.81080  0.48690  1.0000 0.1085907435
C   C1        1.0  0.99530  0.98721  0.26418  1.0000 0.528258347
C   C2        1.0  0.49530  0.51279  0.73582  1.0000 0.528258347
C   C3        1.0  0.50470  0.01279  0.76418  1.0000 0.528258347
C   C4        1.0  0.00470  0.48721  0.23582  1.0000 0.528258347
C   C5        1.0  0.49220  0.44413  0.28509  1.0000 0.5137527819
C   C6        1.0  0.99220  0.05587  0.71491  1.0000 0.5137527819
C   C7        1.0  0.00780  0.55587  0.78509  1.0000 0.5137527819
C   C8        1.0  0.50780  0.94413  0.21491  1.0000 0.5137527819
C   C9        1.0  0.00550  0.19567  0.99715  1.0000 0.528258347
C   C10       1.0  0.50550  0.30433  0.00285  1.0000 0.528258347
C   C11       1.0  0.49450  0.80433  0.49715  1.0000 0.528258347
C   C12       1.0  0.99450  0.69567  0.50285  1.0000 0.528258347
O   O1        1.0  0.10864  0.10328  0.26967  1.0000 -0.530279613
O   O2        1.0  0.60864  0.39672  0.73033  1.0000 -0.530279613
O   O3        1.0  0.39136  0.89672  0.76967  1.0000 -0.530279613
O   O4        1.0  0.89136  0.60328  0.23033  1.0000 -0.530279613
O   O5        1.0  0.90761  0.92776  0.33370  1.0000 -0.5383511399
O   O6        1.0  0.40761  0.57224  0.66630  1.0000 -0.5383511399
O   O7        1.0  0.59239  0.07224  0.83370  1.0000 -0.5383511399
O   O8        1.0  0.09239  0.42776  0.16630  1.0000 -0.5383511399
O   O9        1.0  0.40332  0.30787  0.28667  1.0000 -0.5383511399
O   O10       1.0  0.90332  0.19213  0.71333  1.0000 -0.5383511399
O   O11       1.0  0.09668  0.69213  0.78667  1.0000 -0.5383511399
O   O12       1.0  0.59668  0.80787  0.21333  1.0000 -0.5383511399
O   O13       1.0  0.57942  0.50494  0.35375  1.0000 -0.5141277378
O   O14       1.0  0.07942  0.99506  0.64625  1.0000 -0.5153115158
O   O15       1.0  0.92058  0.49506  0.85375  1.0000 -0.5153115158
O   O16       1.0  0.42058  0.00494  0.14625  1.0000 -0.5141277378
O   O17       1.0  0.11992  0.11756  0.04786  1.0000 -0.5383511399
O   O18       1.0  0.61992  0.38244  0.95214  1.0000 -0.5383511399
O   O19       1.0  0.38008  0.88244  0.54786  1.0000 -0.5383511399
O   O20       1.0  0.88008  0.61756  0.45214  1.0000 -0.5383511399
O   O21       1.0  0.91934  0.13469  0.92785  1.0000 -0.530279613
O   O22       1.0  0.41934  0.36531  0.07215  1.0000 -0.530279613
O   O23       1.0  0.58066  0.86531  0.42785  1.0000 -0.530279613
O   O24       1.0  0.08066  0.63469  0.57215  1.0000 -0.530279613
