# DDEC6 charges by PACMAN v1.1 (https://github.com/mtap-research/PACMAN-charge/)
data_2014[Sc][nan]3[FSR]11
_chemical_formula_sum              "Sc4 H24 C48 O24"
_cell_length_a       19.9099
_cell_length_b       17.5907
_cell_length_c       11.2127
_cell_angle_alpha    84.3618
_cell_angle_beta     61.5512
_cell_angle_gamma    34.087

_symmetry_space_group_name_H-M    "P 1"
_symmetry_Int_Tables_number       1

loop_
  _symmetry_equiv_pos_as_xyz
  'x, y, z'

loop_
  _atom_site_type_symbol
  _atom_site_label
  _atom_site_symmetry_multiplicity
  _atom_site_fract_x
  _atom_site_fract_y
  _atom_site_fract_z
  _atom_site_occupancy
  _atom_site_charge
Sc  Sc1       1.0  0.26009  0.26009  0.73991  1.0000 1.8154290326
Sc  Sc2       1.0  0.73991  0.73991  0.26009  1.0000 1.8154290326
Sc  Sc3       1.0  0.98991  0.98991  0.51009  1.0000 1.8154290326
Sc  Sc4       1.0  0.51009  0.51009  0.98991  1.0000 1.8154290326
H   H1        1.0  0.39140  0.34580  0.41240  1.0000 0.1265026649
H   H2        1.0  0.85040  0.41240  0.34580  1.0000 0.1265026649
H   H3        1.0  0.41240  0.85040  0.39140  1.0000 0.1265026649
H   H4        1.0  0.34580  0.39140  0.85040  1.0000 0.1265026649
H   H5        1.0  0.85860  0.90420  0.83760  1.0000 0.1265026649
H   H6        1.0  0.39960  0.83760  0.90420  1.0000 0.1265026649
H   H7        1.0  0.83760  0.39960  0.85860  1.0000 0.1265026649
H   H8        1.0  0.90420  0.85860  0.39960  1.0000 0.1265026649
H   H9        1.0  0.46430  0.37910  0.21630  1.0000 0.1265026649
H   H10       1.0  0.94030  0.21630  0.37910  1.0000 0.1265026649
H   H11       1.0  0.21630  0.94030  0.46430  1.0000 0.1265026649
H   H12       1.0  0.37910  0.46430  0.94030  1.0000 0.1265026649
H   H13       1.0  0.78570  0.87090  0.03370  1.0000 0.1265026649
H   H14       1.0  0.30970  0.03370  0.87090  1.0000 0.1265026649
H   H15       1.0  0.03370  0.30970  0.78570  1.0000 0.1265026649
H   H16       1.0  0.87090  0.78570  0.30970  1.0000 0.1265026649
H   H17       1.0  0.46680  0.03460  0.92080  1.0000 0.1265026649
H   H18       1.0  0.57780  0.92080  0.03460  1.0000 0.1265026649
H   H19       1.0  0.92080  0.57780  0.46680  1.0000 0.1265026649
H   H20       1.0  0.03460  0.46680  0.57780  1.0000 0.1265026649
H   H21       1.0  0.78320  0.21540  0.32920  1.0000 0.1265026649
H   H22       1.0  0.67220  0.32920  0.21540  1.0000 0.1265026649
H   H23       1.0  0.32920  0.67220  0.78320  1.0000 0.1265026649
H   H24       1.0  0.21540  0.78320  0.67220  1.0000 0.1265026649
C   C1        1.0  0.52220  0.09160  0.36760  1.0000 0.6506412335
C   C2        1.0  0.01860  0.36760  0.09160  1.0000 0.6506412335
C   C3        1.0  0.36760  0.01860  0.52220  1.0000 0.6506412335
C   C4        1.0  0.09160  0.52220  0.01860  1.0000 0.6506412335
C   C5        1.0  0.72780  0.15840  0.88240  1.0000 0.6506412335
C   C6        1.0  0.23140  0.88240  0.15840  1.0000 0.6506412335
C   C7        1.0  0.88240  0.23140  0.72780  1.0000 0.6506412335
C   C8        1.0  0.15840  0.72780  0.23140  1.0000 0.6506412335
C   C9        1.0  0.57630  0.10890  0.24150  1.0000 -0.0278000471
C   C10       1.0  0.07330  0.24150  0.10890  1.0000 -0.0278000471
C   C11       1.0  0.24150  0.07330  0.57630  1.0000 -0.0278000471
C   C12       1.0  0.10890  0.57630  0.07330  1.0000 -0.0278000471
C   C13       1.0  0.67370  0.14110  0.00850  1.0000 -0.0278000471
C   C14       1.0  0.17670  0.00850  0.14110  1.0000 -0.0278000471
C   C15       1.0  0.00850  0.17670  0.67370  1.0000 -0.0278000471
C   C16       1.0  0.14110  0.67370  0.17670  1.0000 -0.0278000471
C   C17       1.0  0.48690  0.25550  0.29530  1.0000 -0.0992610065
C   C18       1.0  0.96230  0.29530  0.25550  1.0000 -0.0992610065
C   C19       1.0  0.29530  0.96230  0.48690  1.0000 -0.0992610065
C   C20       1.0  0.25550  0.48690  0.96230  1.0000 -0.0992610065
C   C21       1.0  0.76310  0.99450  0.95470  1.0000 -0.0992610065
C   C22       1.0  0.28770  0.95470  0.99450  1.0000 -0.0992610065
C   C23       1.0  0.95470  0.28770  0.76310  1.0000 -0.0992610065
C   C24       1.0  0.99450  0.76310  0.28770  1.0000 -0.0992610065
C   C25       1.0  0.53090  0.27470  0.17850  1.0000 -0.1099547699
C   C26       1.0  0.01590  0.17850  0.27470  1.0000 -0.1099547699
C   C27       1.0  0.17850  0.01590  0.53090  1.0000 -0.1099547699
C   C28       1.0  0.27470  0.53090  0.01590  1.0000 -0.1099547699
C   C29       1.0  0.71910  0.97530  0.07150  1.0000 -0.1099547699
C   C30       1.0  0.23410  0.07150  0.97530  1.0000 -0.1099547699
C   C31       1.0  0.07150  0.23410  0.71910  1.0000 -0.1099547699
C   C32       1.0  0.97530  0.71910  0.23410  1.0000 -0.1099547699
C   C33       1.0  0.61140  0.88860  0.61140  1.0000 0.6506412335
C   C34       1.0  0.88860  0.61140  0.88860  1.0000 0.6506412335
C   C35       1.0  0.63860  0.36140  0.63860  1.0000 0.6506412335
C   C36       1.0  0.36140  0.63860  0.36140  1.0000 0.6506412335
C   C37       1.0  0.68330  0.81670  0.68330  1.0000 -0.0412988096
C   C38       1.0  0.81670  0.68330  0.81670  1.0000 -0.0412988096
C   C39       1.0  0.56670  0.43330  0.56670  1.0000 -0.0412988096
C   C40       1.0  0.43330  0.56670  0.43330  1.0000 -0.0412988096
C   C41       1.0  0.58120  0.91760  0.85200  1.0000 -0.0992610065
C   C42       1.0  0.64920  0.85200  0.91760  1.0000 -0.0992610065
C   C43       1.0  0.85200  0.64920  0.58120  1.0000 -0.0992610065
C   C44       1.0  0.91760  0.58120  0.64920  1.0000 -0.0992610065
C   C45       1.0  0.66880  0.33240  0.39800  1.0000 -0.0992610065
C   C46       1.0  0.60080  0.39800  0.33240  1.0000 -0.0992610065
C   C47       1.0  0.39800  0.60080  0.66880  1.0000 -0.0992610065
C   C48       1.0  0.33240  0.66880  0.60080  1.0000 -0.0992610065
O   O1        1.0  0.39120  0.21640  0.52260  1.0000 -0.619953654
O   O2        1.0  0.86980  0.52260  0.21640  1.0000 -0.619953654
O   O3        1.0  0.52260  0.86980  0.39120  1.0000 -0.619953654
O   O4        1.0  0.21640  0.39120  0.86980  1.0000 -0.619953654
O   O5        1.0  0.85880  0.03360  0.72740  1.0000 -0.619953654
O   O6        1.0  0.38020  0.72740  0.03360  1.0000 -0.619953654
O   O7        1.0  0.72740  0.38020  0.85880  1.0000 -0.619953654
O   O8        1.0  0.03360  0.85880  0.38020  1.0000 -0.619953654
O   O9        1.0  0.61080  0.95340  0.31200  1.0000 -0.6522005193
O   O10       1.0  0.12380  0.31200  0.95340  1.0000 -0.6522005193
O   O11       1.0  0.31200  0.12380  0.61080  1.0000 -0.6522005193
O   O12       1.0  0.95340  0.61080  0.12380  1.0000 -0.6522005193
O   O13       1.0  0.63920  0.29660  0.93800  1.0000 -0.6522005193
O   O14       1.0  0.12620  0.93800  0.29660  1.0000 -0.6522005193
O   O15       1.0  0.93800  0.12620  0.63920  1.0000 -0.6522005193
O   O16       1.0  0.29660  0.63920  0.12620  1.0000 -0.6522005193
O   O17       1.0  0.47210  0.04690  0.69410  1.0000 -0.6341039531
O   O18       1.0  0.78690  0.69410  0.04690  1.0000 -0.6341039531
O   O19       1.0  0.69410  0.78690  0.47210  1.0000 -0.6341039531
O   O20       1.0  0.04690  0.47210  0.78690  1.0000 -0.6341039531
O   O21       1.0  0.77790  0.20310  0.55590  1.0000 -0.6341039531
O   O22       1.0  0.46310  0.55590  0.20310  1.0000 -0.6341039531
O   O23       1.0  0.55590  0.46310  0.77790  1.0000 -0.6341039531
O   O24       1.0  0.20310  0.77790  0.46310  1.0000 -0.6341039531
