# DDEC6 charges by PACMAN v1.1 (https://github.com/mtap-research/PACMAN-charge/)
data_2014[Mg][rtl]3[FSR]1
_chemical_formula_sum              "Mg4 H32 C48 N8 O16"
_cell_length_a       9.846
_cell_length_b       12.8415
_cell_length_c       10.9975
_cell_angle_alpha    90
_cell_angle_beta     99.39
_cell_angle_gamma    90

_symmetry_space_group_name_H-M    "P 1"
_symmetry_Int_Tables_number       1

loop_
  _symmetry_equiv_pos_as_xyz
  'x, y, z'

loop_
  _atom_site_type_symbol
  _atom_site_label
  _atom_site_symmetry_multiplicity
  _atom_site_fract_x
  _atom_site_fract_y
  _atom_site_fract_z
  _atom_site_occupancy
  _atom_site_charge
Mg  Mg1       1.0  0.87590  0.55790  0.24790  1.0000 1.2793414763
Mg  Mg2       1.0  0.12410  0.05790  0.75210  1.0000 1.2793414763
Mg  Mg3       1.0  0.37240  0.55730  0.25096  1.0000 1.2856743506
Mg  Mg4       1.0  0.62760  0.05730  0.74904  1.0000 1.2856743506
H   H1        1.0  0.30510  0.73860  0.00710  1.0000 0.1229558235
H   H2        1.0  0.69490  0.23860  0.99290  1.0000 0.1229558235
H   H3        1.0  0.30580  0.87870  0.87940  1.0000 0.1017255543
H   H4        1.0  0.69420  0.37870  0.12060  1.0000 0.1017255543
H   H5        1.0  0.91380  0.91950  0.86240  1.0000 0.1073099917
H   H6        1.0  0.08620  0.41950  0.13760  1.0000 0.1073099917
H   H7        1.0  0.89860  0.77930  0.98650  1.0000 0.1298832653
H   H8        1.0  0.10140  0.27930  0.01350  1.0000 0.1298832653
H   H9        1.0  0.60510  0.86000  0.15180  1.0000 0.1298832653
H   H10       1.0  0.39490  0.36000  0.84820  1.0000 0.1298832653
H   H11       1.0  0.61830  0.99600  0.02110  1.0000 0.1073099917
H   H12       1.0  0.38170  0.49600  0.97890  1.0000 0.1073099917
H   H13       1.0  0.61310  0.81050  0.74250  1.0000 0.1017255543
H   H14       1.0  0.38690  0.31050  0.25750  1.0000 0.1017255543
H   H15       1.0  0.60700  0.66820  0.86660  1.0000 0.1389084107
H   H16       1.0  0.39300  0.16820  0.13340  1.0000 0.1389084107
H   H17       1.0  0.61900  0.44480  0.62910  1.0000 0.1389084107
H   H18       1.0  0.38100  0.94480  0.37090  1.0000 0.1389084107
H   H19       1.0  0.62070  0.30230  0.75270  1.0000 0.1017255543
H   H20       1.0  0.37930  0.80230  0.24730  1.0000 0.1017255543
H   H21       1.0  0.64940  0.11730  0.47680  1.0000 0.1073099917
H   H22       1.0  0.35060  0.61730  0.52320  1.0000 0.1073099917
H   H23       1.0  0.66700  0.25670  0.35200  1.0000 0.1298832653
H   H24       1.0  0.33300  0.75670  0.64800  1.0000 0.1298832653
H   H25       1.0  0.05140  0.88550  0.49460  1.0000 0.1298832653
H   H26       1.0  0.94860  0.38550  0.50540  1.0000 0.1298832653
H   H27       1.0  0.05490  0.74700  0.36480  1.0000 0.1073099917
H   H28       1.0  0.94510  0.24700  0.63520  1.0000 0.1073099917
H   H29       1.0  0.66780  0.69070  0.36640  1.0000 0.1017255543
H   H30       1.0  0.33220  0.19070  0.63360  1.0000 0.1017255543
H   H31       1.0  0.65470  0.82730  0.49830  1.0000 0.1229558235
H   H32       1.0  0.34530  0.32730  0.50170  1.0000 0.1229558235
C   C1        1.0  0.09650  0.65420  0.10230  1.0000 0.6161067656
C   C2        1.0  0.90350  0.15420  0.89770  1.0000 0.6161067656
C   C3        1.0  0.10200  0.74470  0.01610  1.0000 0.0143554921
C   C4        1.0  0.89800  0.24470  0.98390  1.0000 0.0143554921
C   C5        1.0  0.22390  0.77470  0.97980  1.0000 -0.1770616525
C   C6        1.0  0.77610  0.27470  0.02020  1.0000 -0.1770616525
C   C7        1.0  0.22290  0.85870  0.90260  1.0000 0.0888252056
C   C8        1.0  0.77710  0.35870  0.09740  1.0000 0.0888252056
C   C9        1.0  0.99340  0.88240  0.89230  1.0000 0.0806149083
C   C10       1.0  0.00660  0.38240  0.10770  1.0000 0.0806149083
C   C11       1.0  0.98360  0.79920  0.96770  1.0000 -0.1541506777
C   C12       1.0  0.01640  0.29920  0.03230  1.0000 -0.1541506777
C   C13       1.0  0.59720  0.65420  0.10840  1.0000 0.597979801
C   C14       1.0  0.40280  0.15420  0.89160  1.0000 0.597979801
C   C15       1.0  0.60550  0.74730  0.02530  1.0000 0.0182301302
C   C16       1.0  0.39450  0.24730  0.97470  1.0000 0.0182301302
C   C17       1.0  0.60780  0.84740  0.06900  1.0000 -0.1770616525
C   C18       1.0  0.39220  0.34740  0.93100  1.0000 -0.1770616525
C   C19       1.0  0.61420  0.92880  0.98930  1.0000 0.071999175
C   C20       1.0  0.38580  0.42880  0.01070  1.0000 0.071999175
C   C21       1.0  0.61220  0.82080  0.82600  1.0000 0.0806149083
C   C22       1.0  0.38780  0.32080  0.17400  1.0000 0.0806149083
C   C23       1.0  0.60810  0.73470  0.90020  1.0000 -0.1872907558
C   C24       1.0  0.39190  0.23470  0.09980  1.0000 -0.1872907558
C   C25       1.0  0.65240  0.46050  0.39260  1.0000 0.607792007
C   C26       1.0  0.34760  0.96050  0.60740  1.0000 0.607792007
C   C27       1.0  0.64580  0.36870  0.47700  1.0000 0.0182301302
C   C28       1.0  0.35420  0.86870  0.52300  1.0000 0.0182301302
C   C29       1.0  0.62930  0.37900  0.59670  1.0000 -0.1770616525
C   C30       1.0  0.37070  0.87900  0.40330  1.0000 -0.1770616525
C   C31       1.0  0.62770  0.29220  0.67020  1.0000 0.071999175
C   C32       1.0  0.37230  0.79220  0.32980  1.0000 0.071999175
C   C33       1.0  0.64700  0.18400  0.50940  1.0000 0.0806149083
C   C34       1.0  0.35300  0.68400  0.49060  1.0000 0.0806149083
C   C35       1.0  0.65520  0.26760  0.43320  1.0000 -0.1872907558
C   C36       1.0  0.34480  0.76760  0.56680  1.0000 -0.1872907558
C   C37       1.0  0.84610  0.96100  0.60230  1.0000 0.607792007
C   C38       1.0  0.15390  0.46100  0.39770  1.0000 0.607792007
C   C39       1.0  0.85150  0.87200  0.51120  1.0000 0.0182301302
C   C40       1.0  0.14850  0.37200  0.48880  1.0000 0.0182301302
C   C41       1.0  0.97210  0.84640  0.47060  1.0000 -0.1541506777
C   C42       1.0  0.02790  0.34640  0.52940  1.0000 -0.1541506777
C   C43       1.0  0.97340  0.76180  0.39380  1.0000 0.0806149083
C   C44       1.0  0.02660  0.26180  0.60620  1.0000 0.0806149083
C   C45       1.0  0.74720  0.72850  0.39470  1.0000 0.071999175
C   C46       1.0  0.25280  0.22850  0.60530  1.0000 0.0806149083
C   C47       1.0  0.73780  0.81200  0.47250  1.0000 -0.170065982
C   C48       1.0  0.26220  0.31200  0.52750  1.0000 -0.170065982
N   N1        1.0  0.11170  0.91310  0.85930  1.0000 -0.286500437
N   N2        1.0  0.88830  0.41310  0.14070  1.0000 -0.286500437
N   N3        1.0  0.61490  0.91720  0.86790  1.0000 -0.286500437
N   N4        1.0  0.38510  0.41720  0.13210  1.0000 -0.286500437
N   N5        1.0  0.63570  0.19430  0.63000  1.0000 -0.3083583468
N   N6        1.0  0.36430  0.69430  0.37000  1.0000 -0.3083583468
N   N7        1.0  0.86470  0.69940  0.35810  1.0000 -0.3083583468
N   N8        1.0  0.13530  0.19940  0.64190  1.0000 -0.3083583468
O   O1        1.0  0.20390  0.60140  0.13180  1.0000 -0.6479333469
O   O2        1.0  0.79610  0.10140  0.86820  1.0000 -0.6479333469
O   O3        1.0  0.98460  0.63790  0.13480  1.0000 -0.6106115211
O   O4        1.0  0.01540  0.13790  0.86520  1.0000 -0.6106115211
O   O5        1.0  0.69670  0.59410  0.12760  1.0000 -0.6106115211
O   O6        1.0  0.30330  0.09410  0.87240  1.0000 -0.6106115211
O   O7        1.0  0.48620  0.64600  0.14610  1.0000 -0.6218741764
O   O8        1.0  0.51380  0.14600  0.85390  1.0000 -0.6218741764
O   O9        1.0  0.54680  0.51290  0.36780  1.0000 -0.6218741764
O   O10       1.0  0.45320  0.01290  0.63220  1.0000 -0.6218741764
O   O11       1.0  0.76480  0.47460  0.35710  1.0000 -0.6218741764
O   O12       1.0  0.23520  0.97460  0.64290  1.0000 -0.6218741764
O   O13       1.0  0.73380  0.97050  0.64210  1.0000 -0.655484421
O   O14       1.0  0.26620  0.47050  0.35790  1.0000 -0.655484421
O   O15       1.0  0.95060  0.01370  0.63050  1.0000 -0.6106115211
O   O16       1.0  0.04940  0.51370  0.36950  1.0000 -0.6106115211
