# DDEC6 charges by PACMAN v1.1 (https://github.com/mtap-research/PACMAN-charge/)
data_2014[Eu][dmc]3[FSR]1
_chemical_formula_sum              "Eu4 H44 C36 N4 O36"
_cell_length_a       6.6475
_cell_length_b       13.5396
_cell_length_c       15.9131
_cell_angle_alpha    90
_cell_angle_beta     97.662
_cell_angle_gamma    90

_symmetry_space_group_name_H-M    "P 1"
_symmetry_Int_Tables_number       1

loop_
  _symmetry_equiv_pos_as_xyz
  'x, y, z'

loop_
  _atom_site_type_symbol
  _atom_site_label
  _atom_site_symmetry_multiplicity
  _atom_site_fract_x
  _atom_site_fract_y
  _atom_site_fract_z
  _atom_site_occupancy
  _atom_site_charge
Eu  Eu1       1.0  0.53126  0.93970  0.74912  1.0000 1.9956914472
Eu  Eu2       1.0  0.96874  0.43970  0.25088  1.0000 1.9956914472
Eu  Eu3       1.0  0.46874  0.06030  0.25088  1.0000 1.9949430513
Eu  Eu4       1.0  0.03126  0.56030  0.74912  1.0000 1.9956914472
H   H1        1.0  0.47500  0.30140  0.68210  1.0000 0.126923776
H   H2        1.0  0.02500  0.80140  0.31790  1.0000 0.126923776
H   H3        1.0  0.52500  0.69860  0.31790  1.0000 0.126923776
H   H4        1.0  0.97500  0.19860  0.68210  1.0000 0.126923776
H   H5        1.0  0.35690  0.43120  0.46360  1.0000 0.1161988216
H   H6        1.0  0.14310  0.93120  0.53640  1.0000 0.1161988216
H   H7        1.0  0.64310  0.56880  0.53640  1.0000 0.1161988216
H   H8        1.0  0.85690  0.06880  0.46360  1.0000 0.1161988216
H   H9        1.0  0.40320  0.13620  0.47220  1.0000 0.139198004
H   H10       1.0  0.09680  0.63620  0.52780  1.0000 0.139198004
H   H11       1.0  0.59680  0.86380  0.52780  1.0000 0.139198004
H   H12       1.0  0.90320  0.36380  0.47220  1.0000 0.139198004
H   H13       1.0  0.94960  0.90380  0.01840  1.0000 0.139198004
H   H14       1.0  0.55040  0.40380  0.98160  1.0000 0.139198004
H   H15       1.0  0.05040  0.09620  0.98160  1.0000 0.139198004
H   H16       1.0  0.44960  0.59620  0.01840  1.0000 0.139198004
H   H17       1.0  0.11790  0.93260  0.96290  1.0000 0.126923776
H   H18       1.0  0.38210  0.43260  0.03710  1.0000 0.126923776
H   H19       1.0  0.88210  0.06740  0.03710  1.0000 0.126923776
H   H20       1.0  0.61790  0.56740  0.96290  1.0000 0.126923776
H   H21       1.0  0.21770  0.00450  0.84750  1.0000 0.3285688373
H   H22       1.0  0.28230  0.50450  0.15250  1.0000 0.3285688373
H   H23       1.0  0.78230  0.99550  0.15250  1.0000 0.3285688373
H   H24       1.0  0.71770  0.49550  0.84750  1.0000 0.3285688373
H   H25       1.0  0.13420  0.02220  0.76500  1.0000 0.3562374028
H   H26       1.0  0.36580  0.52220  0.23500  1.0000 0.3562374028
H   H27       1.0  0.86580  0.97780  0.23500  1.0000 0.3562374028
H   H28       1.0  0.63420  0.47780  0.76500  1.0000 0.3562374028
H   H29       1.0  0.83330  0.99110  0.64040  1.0000 0.3209377143
H   H30       1.0  0.66667  0.49110  0.35960  1.0000 0.3209377143
H   H31       1.0  0.16670  0.00890  0.35960  1.0000 0.3209377143
H   H32       1.0  0.33333  0.50890  0.64040  1.0000 0.3209377143
H   H33       1.0  0.93250  0.92780  0.69860  1.0000 0.3490924897
H   H34       1.0  0.56750  0.42780  0.30140  1.0000 0.3490924897
H   H35       1.0  0.06750  0.07220  0.30140  1.0000 0.3490924897
H   H36       1.0  0.43250  0.57220  0.69860  1.0000 0.3490924897
H   H37       1.0  0.30860  0.83640  0.86700  1.0000 0.3490924897
H   H38       1.0  0.19140  0.33640  0.13300  1.0000 0.3490924897
H   H39       1.0  0.69140  0.16360  0.13300  1.0000 0.3490924897
H   H40       1.0  0.80860  0.66360  0.86700  1.0000 0.3490924897
H   H41       1.0  0.50850  0.81740  0.89760  1.0000 0.3490924897
H   H42       1.0  0.99150  0.31740  0.10240  1.0000 0.3490924897
H   H43       1.0  0.49150  0.18260  0.10240  1.0000 0.3490924897
H   H44       1.0  0.00850  0.68260  0.89760  1.0000 0.3490924897
C   C1        1.0  0.48000  0.11320  0.64180  1.0000 0.554467349
C   C2        1.0  0.02000  0.61320  0.35820  1.0000 0.554467349
C   C3        1.0  0.52000  0.88680  0.35820  1.0000 0.554467349
C   C4        1.0  0.98000  0.38680  0.64180  1.0000 0.554467349
C   C5        1.0  0.44490  0.20380  0.58660  1.0000 -0.0558643307
C   C6        1.0  0.05510  0.70380  0.41340  1.0000 -0.0558643307
C   C7        1.0  0.55510  0.79620  0.41340  1.0000 -0.0558643307
C   C8        1.0  0.94490  0.29620  0.58660  1.0000 -0.0558643307
C   C9        1.0  0.44800  0.29720  0.62330  1.0000 0.0624686561
C   C10       1.0  0.05200  0.79720  0.37670  1.0000 0.0624686561
C   C11       1.0  0.55200  0.70280  0.37670  1.0000 0.0624686561
C   C12       1.0  0.94800  0.20280  0.62330  1.0000 0.0624686561
C   C13       1.0  0.38000  0.37350  0.49510  1.0000 0.0624686561
C   C14       1.0  0.12000  0.87350  0.50490  1.0000 0.0624686561
C   C15       1.0  0.62000  0.62650  0.50490  1.0000 0.0624686561
C   C16       1.0  0.88000  0.12650  0.49510  1.0000 0.0624686561
C   C17       1.0  0.37650  0.28430  0.45180  1.0000 -0.0714629454
C   C18       1.0  0.12350  0.78430  0.54820  1.0000 -0.0714629454
C   C19       1.0  0.62350  0.71570  0.54820  1.0000 -0.0714629454
C   C20       1.0  0.87650  0.21570  0.45180  1.0000 -0.0714629454
C   C21       1.0  0.40760  0.19730  0.49900  1.0000 -0.0754120958
C   C22       1.0  0.09240  0.69730  0.50100  1.0000 -0.0754120958
C   C23       1.0  0.59240  0.80270  0.50100  1.0000 -0.0754120958
C   C24       1.0  0.90760  0.30270  0.49900  1.0000 -0.0754120958
C   C25       1.0  0.33950  0.28290  0.35620  1.0000 0.6348620939
C   C26       1.0  0.16050  0.78290  0.64380  1.0000 0.6348620939
C   C27       1.0  0.66050  0.71710  0.64380  1.0000 0.6348620939
C   C28       1.0  0.83950  0.21710  0.35620  1.0000 0.6351779985
C   C29       1.0  0.83000  0.95040  0.89910  1.0000 0.6045232701
C   C30       1.0  0.67000  0.45040  0.10090  1.0000 0.6045232701
C   C31       1.0  0.17000  0.04960  0.10090  1.0000 0.6045232701
C   C32       1.0  0.33000  0.54960  0.89910  1.0000 0.6045232701
C   C33       1.0  0.98780  0.95240  0.97860  1.0000 -0.2654680622
C   C34       1.0  0.51220  0.45240  0.02140  1.0000 -0.2646178914
C   C35       1.0  0.01220  0.04760  0.02140  1.0000 -0.2646178914
C   C36       1.0  0.48780  0.54760  0.97860  1.0000 -0.2654680622
N   N1        1.0  0.41470  0.38110  0.57960  1.0000 -0.2181725067
N   N2        1.0  0.08530  0.88110  0.42040  1.0000 -0.2181725067
N   N3        1.0  0.58530  0.61890  0.42040  1.0000 -0.2181725067
N   N4        1.0  0.91470  0.11890  0.57960  1.0000 -0.2181725067
O   O1        1.0  0.43830  0.03010  0.61090  1.0000 -0.6099901957
O   O2        1.0  0.06170  0.53010  0.38910  1.0000 -0.6099901957
O   O3        1.0  0.56170  0.96990  0.38910  1.0000 -0.6099901957
O   O4        1.0  0.93830  0.46990  0.61090  1.0000 -0.6099901957
O   O5        1.0  0.55190  0.12420  0.71830  1.0000 -0.5981093732
O   O6        1.0  0.94810  0.62420  0.28170  1.0000 -0.5981093732
O   O7        1.0  0.44810  0.87580  0.28170  1.0000 -0.5981093732
O   O8        1.0  0.05190  0.37580  0.71830  1.0000 -0.5981093732
O   O9        1.0  0.28860  0.36270  0.31930  1.0000 -0.6558798862
O   O10       1.0  0.21140  0.86270  0.68070  1.0000 -0.6558798862
O   O11       1.0  0.71140  0.63730  0.68070  1.0000 -0.6558798862
O   O12       1.0  0.78860  0.13730  0.31930  1.0000 -0.6558798862
O   O13       1.0  0.36750  0.20360  0.32020  1.0000 -0.6335024548
O   O14       1.0  0.13250  0.70360  0.67980  1.0000 -0.6335024548
O   O15       1.0  0.63250  0.79640  0.67980  1.0000 -0.6335024548
O   O16       1.0  0.86750  0.29640  0.32020  1.0000 -0.6335024548
O   O17       1.0  0.69050  0.01200  0.88720  1.0000 -0.6099901957
O   O18       1.0  0.80950  0.51200  0.11280  1.0000 -0.6099901957
O   O19       1.0  0.30950  0.98800  0.11280  1.0000 -0.6099901957
O   O20       1.0  0.19050  0.48800  0.88720  1.0000 -0.6099901957
O   O21       1.0  0.84350  0.88160  0.84840  1.0000 -0.5981093732
O   O22       1.0  0.65650  0.38160  0.15160  1.0000 -0.5981093732
O   O23       1.0  0.15650  0.11840  0.15160  1.0000 -0.5981093732
O   O24       1.0  0.34350  0.61840  0.84840  1.0000 -0.5981093732
O   O25       1.0  0.24030  0.02930  0.80060  1.0000 -0.738187292
O   O26       1.0  0.25970  0.52930  0.19940  1.0000 -0.738187292
O   O27       1.0  0.75970  0.97070  0.19940  1.0000 -0.738187292
O   O28       1.0  0.74030  0.47070  0.80060  1.0000 -0.738187292
O   O29       1.0  0.85850  0.97640  0.69270  1.0000 -0.7479262364
O   O30       1.0  0.64150  0.47640  0.30730  1.0000 -0.7479262364
O   O31       1.0  0.14150  0.02360  0.30730  1.0000 -0.7479262364
O   O32       1.0  0.35850  0.52360  0.69270  1.0000 -0.7479262364
O   O33       1.0  0.42220  0.81840  0.85310  1.0000 -0.738187292
O   O34       1.0  0.07780  0.31840  0.14690  1.0000 -0.738187292
O   O35       1.0  0.57780  0.18160  0.14690  1.0000 -0.738187292
O   O36       1.0  0.92220  0.68160  0.85310  1.0000 -0.738187292
