# DDEC6 charges by PACMAN v1.1 (https://github.com/mtap-research/PACMAN-charge/)
data_2014[Ce][nan]3[FSR]1
_chemical_formula_sum              "Ce4 H44 C96 O58"
_cell_length_a       15.5263
_cell_length_b       15.5263
_cell_length_c       18.028
_cell_angle_alpha    76.578
_cell_angle_beta     103.422
_cell_angle_gamma    141.866

_symmetry_space_group_name_H-M    "P 1"
_symmetry_Int_Tables_number       1

loop_
  _symmetry_equiv_pos_as_xyz
  'x, y, z'

loop_
  _atom_site_type_symbol
  _atom_site_label
  _atom_site_symmetry_multiplicity
  _atom_site_fract_x
  _atom_site_fract_y
  _atom_site_fract_z
  _atom_site_occupancy
  _atom_site_charge
Ce  Ce1       1.0  0.87653  0.86979  0.88114  1.0000 2.0275409523
Ce  Ce2       1.0  0.86979  0.87653  0.61886  1.0000 2.0275409523
Ce  Ce3       1.0  0.12347  0.13021  0.11886  1.0000 2.0275409523
Ce  Ce4       1.0  0.13021  0.12347  0.38114  1.0000 2.0275409523
H   H1        1.0  0.82770  0.54570  0.69410  1.0000 0.1321516115
H   H2        1.0  0.54570  0.82770  0.80590  1.0000 0.1321516115
H   H3        1.0  0.17230  0.45430  0.30590  1.0000 0.1321516115
H   H4        1.0  0.45430  0.17230  0.19410  1.0000 0.1321516115
H   H5        1.0  0.92720  0.19600  0.79140  1.0000 0.1567279737
H   H6        1.0  0.19600  0.92720  0.70860  1.0000 0.1567279737
H   H7        1.0  0.07280  0.80400  0.20860  1.0000 0.1567279737
H   H8        1.0  0.80400  0.07280  0.29140  1.0000 0.1567279737
H   H9        1.0  0.14510  0.38870  0.98740  1.0000 0.1321516115
H   H10       1.0  0.38870  0.14510  0.51260  1.0000 0.1321516115
H   H11       1.0  0.85490  0.61130  0.01260  1.0000 0.1321516115
H   H12       1.0  0.61130  0.85490  0.48740  1.0000 0.1321516115
H   H13       1.0  0.02800  0.72180  0.89430  1.0000 0.146603376
H   H14       1.0  0.72180  0.02800  0.60570  1.0000 0.146603376
H   H15       1.0  0.97200  0.27820  0.10570  1.0000 0.146603376
H   H16       1.0  0.27820  0.97200  0.39430  1.0000 0.146603376
H   H17       1.0  0.20040  0.92200  0.01060  1.0000 0.1396111477
H   H18       1.0  0.92200  0.20040  0.48940  1.0000 0.1396111477
H   H19       1.0  0.79960  0.07800  0.98940  1.0000 0.1396111477
H   H20       1.0  0.07800  0.79960  0.51060  1.0000 0.1396111477
H   H21       1.0  0.42010  0.12890  0.82480  1.0000 0.1396111477
H   H22       1.0  0.12890  0.42010  0.67520  1.0000 0.1396111477
H   H23       1.0  0.57990  0.87110  0.17520  1.0000 0.1396111477
H   H24       1.0  0.87110  0.57990  0.32480  1.0000 0.1396111477
H   H25       1.0  0.01420  0.06040  0.73970  1.0000 0.3399633843
H   H26       1.0  0.06040  0.01420  0.76030  1.0000 0.3399633843
H   H27       1.0  0.98580  0.93960  0.26030  1.0000 0.3399633843
H   H28       1.0  0.93960  0.98580  0.23970  1.0000 0.3399633843
H   H29       1.0  0.78180  0.89020  0.00060  1.0000 0.369136602
H   H30       1.0  0.89020  0.78180  0.49940  1.0000 0.369136602
H   H31       1.0  0.21820  0.10980  0.99940  1.0000 0.369136602
H   H32       1.0  0.10980  0.21820  0.50060  1.0000 0.369136602
H   H33       1.0  0.66290  0.80710  0.95200  1.0000 0.3529179994
H   H34       1.0  0.80710  0.66290  0.54800  1.0000 0.3529179994
H   H35       1.0  0.33710  0.19290  0.04800  1.0000 0.3529179994
H   H36       1.0  0.19290  0.33710  0.45200  1.0000 0.3529179994
H   H37       1.0  0.57850  0.58550  0.90400  1.0000 0.3399633843
H   H38       1.0  0.58550  0.57850  0.59600  1.0000 0.3399633843
H   H39       1.0  0.42150  0.41450  0.09600  1.0000 0.3399633843
H   H40       1.0  0.41450  0.42150  0.40400  1.0000 0.3399633843
H   H41       1.0  0.63630  0.55570  0.89200  1.0000 0.3581734601
H   H42       1.0  0.55570  0.63630  0.60800  1.0000 0.3581734601
H   H43       1.0  0.36370  0.44430  0.10800  1.0000 0.3581734601
H   H44       1.0  0.44430  0.36370  0.39200  1.0000 0.3581734601
C   C1        1.0  0.87684  0.70356  0.77800  1.0000 0.6468268338
C   C2        1.0  0.70356  0.87684  0.72200  1.0000 0.6468268338
C   C3        1.0  0.12316  0.29644  0.22200  1.0000 0.6468268338
C   C4        1.0  0.29644  0.12316  0.27800  1.0000 0.6468268338
C   C5        1.0  0.04304  0.18296  0.92010  1.0000 0.6417962614
C   C6        1.0  0.18296  0.04304  0.57990  1.0000 0.6417962614
C   C7        1.0  0.95696  0.81704  0.07990  1.0000 0.6417962614
C   C8        1.0  0.81704  0.95696  0.42010  1.0000 0.6417962614
C   C9        1.0  0.91998  0.64162  0.79186  1.0000 -0.0021126141
C   C10       1.0  0.64162  0.91998  0.70814  1.0000 -0.0021126141
C   C11       1.0  0.08002  0.35838  0.20814  1.0000 -0.0021126141
C   C12       1.0  0.35838  0.08002  0.29186  1.0000 -0.0021126141
C   C13       1.0  0.87702  0.55778  0.74025  1.0000 -0.1007865217
C   C14       1.0  0.55778  0.87702  0.75975  1.0000 -0.1007865217
C   C15       1.0  0.12298  0.44222  0.25975  1.0000 -0.1007865217
C   C16       1.0  0.44222  0.12298  0.24025  1.0000 -0.1007865217
C   C17       1.0  0.90773  0.49147  0.75754  1.0000 -0.0628387012
C   C18       1.0  0.49147  0.90773  0.74246  1.0000 -0.0628387012
C   C19       1.0  0.09227  0.50853  0.24246  1.0000 -0.0628387012
C   C20       1.0  0.50853  0.09227  0.25754  1.0000 -0.0628387012
C   C21       1.0  0.85504  0.39296  0.70768  1.0000 0.5230671171
C   C22       1.0  0.39296  0.85504  0.79232  1.0000 0.5230671171
C   C23       1.0  0.14496  0.60704  0.29232  1.0000 0.5230671171
C   C24       1.0  0.60704  0.14496  0.20768  1.0000 0.5230671171
C   C25       1.0  0.95239  0.34141  0.80140  1.0000 0.2153064016
C   C26       1.0  0.34141  0.95239  0.69860  1.0000 0.2153064016
C   C27       1.0  0.04761  0.65859  0.19860  1.0000 0.2153064016
C   C28       1.0  0.65859  0.04761  0.30140  1.0000 0.2153064016
C   C29       1.0  0.96543  0.26097  0.82306  1.0000 -0.1778444607
C   C30       1.0  0.26097  0.96543  0.67694  1.0000 -0.1778444607
C   C31       1.0  0.03457  0.73903  0.17694  1.0000 -0.1778444607
C   C32       1.0  0.73903  0.03457  0.32306  1.0000 -0.1778444607
C   C33       1.0  0.03706  0.27834  0.89358  1.0000 -0.0021126141
C   C34       1.0  0.27834  0.03706  0.60642  1.0000 -0.0021126141
C   C35       1.0  0.96294  0.72166  0.10642  1.0000 -0.0021126141
C   C36       1.0  0.72166  0.96294  0.39358  1.0000 -0.0021126141
C   C37       1.0  0.09718  0.37742  0.94075  1.0000 -0.1216877956
C   C38       1.0  0.37742  0.09718  0.55925  1.0000 -0.1216877956
C   C39       1.0  0.90282  0.62258  0.05925  1.0000 -0.1216877956
C   C40       1.0  0.62258  0.90282  0.44075  1.0000 -0.1216877956
C   C41       1.0  0.08474  0.45986  0.91720  1.0000 -0.0628387012
C   C42       1.0  0.45986  0.08474  0.58280  1.0000 -0.0628387012
C   C43       1.0  0.91526  0.54014  0.08280  1.0000 -0.0628387012
C   C44       1.0  0.54014  0.91526  0.41720  1.0000 -0.0628387012
C   C45       1.0  0.14651  0.56569  0.96503  1.0000 0.5230671171
C   C46       1.0  0.56569  0.14651  0.53497  1.0000 0.5230671171
C   C47       1.0  0.85349  0.43431  0.03497  1.0000 0.5230671171
C   C48       1.0  0.43431  0.85349  0.46503  1.0000 0.5230671171
C   C49       1.0  0.03443  0.60437  0.87504  1.0000 0.2264365558
C   C50       1.0  0.60437  0.03443  0.62496  1.0000 0.2264365558
C   C51       1.0  0.96557  0.39563  0.12496  1.0000 0.2264365558
C   C52       1.0  0.39563  0.96557  0.37504  1.0000 0.2264365558
C   C53       1.0  0.99924  0.66536  0.85975  1.0000 -0.1778444607
C   C54       1.0  0.66536  0.99924  0.64025  1.0000 -0.1778444607
C   C55       1.0  0.00076  0.33464  0.14025  1.0000 -0.1778444607
C   C56       1.0  0.33464  0.00076  0.35975  1.0000 -0.1778444607
C   C57       1.0  0.98661  0.51479  0.82581  1.0000 -0.0196121704
C   C58       1.0  0.51479  0.98661  0.67419  1.0000 -0.0196121704
C   C59       1.0  0.01339  0.48521  0.17419  1.0000 -0.0196121704
C   C60       1.0  0.48521  0.01339  0.32581  1.0000 -0.0196121704
C   C61       1.0  0.01028  0.43952  0.84787  1.0000 -0.0196121704
C   C62       1.0  0.43952  0.01028  0.65213  1.0000 -0.0196121704
C   C63       1.0  0.98972  0.56048  0.15213  1.0000 -0.0196121704
C   C64       1.0  0.56048  0.98972  0.34787  1.0000 -0.0196121704
C   C65       1.0  0.20362  0.03138  0.87080  1.0000 0.5852520916
C   C66       1.0  0.03138  0.20362  0.62920  1.0000 0.5852520916
C   C67       1.0  0.79638  0.96862  0.12920  1.0000 0.5852520916
C   C68       1.0  0.96862  0.79638  0.37080  1.0000 0.5852520916
C   C69       1.0  0.29642  0.02658  0.91153  1.0000 -0.0021126141
C   C70       1.0  0.02658  0.29642  0.58847  1.0000 -0.0021126141
C   C71       1.0  0.70358  0.97342  0.08847  1.0000 -0.0021126141
C   C72       1.0  0.97342  0.70358  0.41153  1.0000 -0.0021126141
C   C73       1.0  0.27102  0.95918  0.98493  1.0000 -0.2109574634
C   C74       1.0  0.95918  0.27102  0.51507  1.0000 -0.2109574634
C   C75       1.0  0.72898  0.04082  0.01507  1.0000 -0.2109574634
C   C76       1.0  0.04082  0.72898  0.48493  1.0000 -0.2109574634
C   C77       1.0  0.35122  0.94818  0.01888  1.0000 0.2264365558
C   C78       1.0  0.94818  0.35122  0.48112  1.0000 0.2264365558
C   C79       1.0  0.64878  0.05182  0.98112  1.0000 0.2264365558
C   C80       1.0  0.05182  0.64878  0.51888  1.0000 0.2264365558
C   C81       1.0  0.39811  0.86229  0.12850  1.0000 0.5230671171
C   C82       1.0  0.86229  0.39811  0.37150  1.0000 0.5230671171
C   C83       1.0  0.60189  0.13771  0.87150  1.0000 0.5230671171
C   C84       1.0  0.13771  0.60189  0.62850  1.0000 0.5230671171
C   C85       1.0  0.51243  0.92257  0.09034  1.0000 -0.0667880472
C   C86       1.0  0.92257  0.51243  0.40966  1.0000 -0.0667880472
C   C87       1.0  0.48757  0.07743  0.90966  1.0000 -0.0667880472
C   C88       1.0  0.07743  0.48757  0.59034  1.0000 -0.0667880472
C   C89       1.0  0.45905  0.00655  0.98194  1.0000 -0.0196121704
C   C90       1.0  0.00655  0.45905  0.51806  1.0000 -0.0196121704
C   C91       1.0  0.54095  0.99345  0.01806  1.0000 -0.0196121704
C   C92       1.0  0.99345  0.54095  0.48194  1.0000 -0.0196121704
C   C93       1.0  0.40410  0.08490  0.87390  1.0000 -0.1007865217
C   C94       1.0  0.08490  0.40410  0.62610  1.0000 -0.1007865217
C   C95       1.0  0.59590  0.91510  0.12610  1.0000 -0.1007865217
C   C96       1.0  0.91510  0.59590  0.37390  1.0000 -0.1007865217
O   O1        1.0  0.88122  0.73978  0.83543  1.0000 -0.6490964489
O   O2        1.0  0.73978  0.88122  0.66457  1.0000 -0.6490964489
O   O3        1.0  0.11878  0.26022  0.16457  1.0000 -0.6490964489
O   O4        1.0  0.26022  0.11878  0.33543  1.0000 -0.6490964489
O   O5        1.0  0.83707  0.71253  0.71078  1.0000 -0.6631284501
O   O6        1.0  0.71253  0.83707  0.78922  1.0000 -0.6631284501
O   O7        1.0  0.16293  0.28747  0.28922  1.0000 -0.6631284501
O   O8        1.0  0.28747  0.16293  0.21078  1.0000 -0.6631284501
O   O9        1.0  0.08997  0.18723  0.98735  1.0000 -0.6490964489
O   O10       1.0  0.18723  0.08997  0.51265  1.0000 -0.6490964489
O   O11       1.0  0.91003  0.81277  0.01265  1.0000 -0.6490964489
O   O12       1.0  0.81277  0.91003  0.48735  1.0000 -0.6490964489
O   O13       1.0  0.99958  0.10462  0.87377  1.0000 -0.6172423657
O   O14       1.0  0.10462  0.99958  0.62623  1.0000 -0.6172423657
O   O15       1.0  0.00042  0.89538  0.12623  1.0000 -0.6172423657
O   O16       1.0  0.89538  0.00042  0.37377  1.0000 -0.6172423657
O   O17       1.0  0.79173  0.36847  0.64556  1.0000 -0.443253338
O   O18       1.0  0.36847  0.79173  0.85444  1.0000 -0.443253338
O   O19       1.0  0.20827  0.63153  0.35444  1.0000 -0.443253338
O   O20       1.0  0.63153  0.20827  0.14556  1.0000 -0.443253338
O   O21       1.0  0.22182  0.60178  0.02283  1.0000 -0.443253338
O   O22       1.0  0.60178  0.22182  0.47717  1.0000 -0.443253338
O   O23       1.0  0.77818  0.39822  0.97717  1.0000 -0.443253338
O   O24       1.0  0.39822  0.77818  0.52283  1.0000 -0.443253338
O   O25       1.0  0.12606  0.00534  0.90984  1.0000 -0.6490964489
O   O26       1.0  0.00534  0.12606  0.59016  1.0000 -0.6490964489
O   O27       1.0  0.87394  0.99466  0.09016  1.0000 -0.6490964489
O   O28       1.0  0.99466  0.87394  0.40984  1.0000 -0.6490964489
O   O29       1.0  0.20738  0.05842  0.79981  1.0000 -0.5114774104
O   O30       1.0  0.05842  0.20738  0.70019  1.0000 -0.5114774104
O   O31       1.0  0.79262  0.94158  0.20019  1.0000 -0.5114774104
O   O32       1.0  0.94158  0.79262  0.29981  1.0000 -0.5114774104
O   O33       1.0  0.36598  0.80122  0.19144  1.0000 -0.427939124
O   O34       1.0  0.80122  0.36598  0.30856  1.0000 -0.427939124
O   O35       1.0  0.63402  0.19878  0.80856  1.0000 -0.427939124
O   O36       1.0  0.19878  0.63402  0.69144  1.0000 -0.427939124
O   O37       1.0  0.32145  0.87675  0.09080  1.0000 -0.2366335865
O   O38       1.0  0.87675  0.32145  0.40920  1.0000 -0.2345725145
O   O39       1.0  0.67855  0.12325  0.90920  1.0000 -0.2345725145
O   O40       1.0  0.12325  0.67855  0.59080  1.0000 -0.2345725145
O   O41       1.0  0.74406  0.84894  0.96027  1.0000 -0.7352871593
O   O42       1.0  0.84894  0.74406  0.53973  1.0000 -0.7352871593
O   O43       1.0  0.25594  0.15106  0.03973  1.0000 -0.7352871593
O   O44       1.0  0.15106  0.25594  0.46027  1.0000 -0.7352871593
O   O45       1.0  0.65094  0.61426  0.90490  1.0000 -0.7009155449
O   O46       1.0  0.61426  0.65094  0.59510  1.0000 -0.7009155449
O   O47       1.0  0.34906  0.38574  0.09510  1.0000 -0.7009155449
O   O48       1.0  0.38574  0.34906  0.40490  1.0000 -0.7009155449
O   O49       1.0  0.98698  0.98698  0.75000  1.0000 -0.8051411804
O   O50       1.0  0.01302  0.01302  0.25000  1.0000 -0.803585678
O   O51       1.0  0.11241  0.62867  0.94288  1.0000 -0.2366335865
O   O52       1.0  0.62867  0.11241  0.55712  1.0000 -0.2366335865
O   O53       1.0  0.88759  0.37133  0.05712  1.0000 -0.2366335865
O   O54       1.0  0.37133  0.88759  0.44288  1.0000 -0.2366335865
O   O55       1.0  0.88020  0.32304  0.73151  1.0000 -0.2345725145
O   O56       1.0  0.32304  0.88020  0.76849  1.0000 -0.2345725145
O   O57       1.0  0.11980  0.67696  0.26849  1.0000 -0.2345725145
O   O58       1.0  0.67696  0.11980  0.23151  1.0000 -0.2345725145
