# DDEC6 charges by PACMAN v1.1 (https://github.com/mtap-research/PACMAN-charge/)
data_2014[Zn][sod]3[FSR]3
_chemical_formula_sum              "Zn6 H60 C84 N24"
_cell_length_a       14.2458
_cell_length_b       14.2458
_cell_length_c       14.2458
_cell_angle_alpha    107.292
_cell_angle_beta     107.292
_cell_angle_gamma    107.292

_symmetry_space_group_name_H-M    "P 1"
_symmetry_Int_Tables_number       1

loop_
  _symmetry_equiv_pos_as_xyz
  'x, y, z'

loop_
  _atom_site_type_symbol
  _atom_site_label
  _atom_site_symmetry_multiplicity
  _atom_site_fract_x
  _atom_site_fract_y
  _atom_site_fract_z
  _atom_site_occupancy
  _atom_site_charge
Zn  Zn1       1.0  0.72626  0.26045  0.99459  1.0000 0.645581378
Zn  Zn2       1.0  0.99459  0.72626  0.26045  1.0000 0.645581378
Zn  Zn3       1.0  0.26045  0.99459  0.72626  1.0000 0.645581378
Zn  Zn4       1.0  0.27374  0.73955  0.00541  1.0000 0.645581378
Zn  Zn5       1.0  0.00541  0.27374  0.73955  1.0000 0.645581378
Zn  Zn6       1.0  0.73955  0.00541  0.27374  1.0000 0.645581378
H   H1        1.0  0.90478  0.48369  0.10024  1.0000 0.1016949614
H   H2        1.0  0.10024  0.90478  0.48369  1.0000 0.1016949614
H   H3        1.0  0.48369  0.10024  0.90478  1.0000 0.1016949614
H   H4        1.0  0.09522  0.51631  0.89976  1.0000 0.1016949614
H   H5        1.0  0.89976  0.09522  0.51631  1.0000 0.1016949614
H   H6        1.0  0.51631  0.89976  0.09522  1.0000 0.1016949614
H   H7        1.0  0.59232  0.30058  0.14383  1.0000 0.1275667268
H   H8        1.0  0.14383  0.59232  0.30058  1.0000 0.1275667268
H   H9        1.0  0.30058  0.14383  0.59232  1.0000 0.1275667268
H   H10       1.0  0.40768  0.69942  0.85617  1.0000 0.1275667268
H   H11       1.0  0.85617  0.40768  0.69942  1.0000 0.1275667268
H   H12       1.0  0.69942  0.85617  0.40768  1.0000 0.1275667268
H   H13       1.0  0.53834  0.39974  0.25963  1.0000 0.1016949614
H   H14       1.0  0.25963  0.53834  0.39974  1.0000 0.1016949614
H   H15       1.0  0.39974  0.25963  0.53834  1.0000 0.1016949614
H   H16       1.0  0.46166  0.60026  0.74037  1.0000 0.1016949614
H   H17       1.0  0.74037  0.46166  0.60026  1.0000 0.1016949614
H   H18       1.0  0.60026  0.74037  0.46166  1.0000 0.1016949614
H   H19       1.0  0.63429  0.58709  0.35670  1.0000 0.1016949614
H   H20       1.0  0.35670  0.63429  0.58709  1.0000 0.1016949614
H   H21       1.0  0.58709  0.35670  0.63429  1.0000 0.1016949614
H   H22       1.0  0.36571  0.41291  0.64330  1.0000 0.1016949614
H   H23       1.0  0.64330  0.36571  0.41291  1.0000 0.1016949614
H   H24       1.0  0.41291  0.64330  0.36571  1.0000 0.1016949614
H   H25       1.0  0.78811  0.67946  0.34093  1.0000 0.1275667268
H   H26       1.0  0.34093  0.78811  0.67946  1.0000 0.1275667268
H   H27       1.0  0.67946  0.34093  0.78811  1.0000 0.1275667268
H   H28       1.0  0.21189  0.32054  0.65907  1.0000 0.1275667268
H   H29       1.0  0.65907  0.21189  0.32054  1.0000 0.1275667268
H   H30       1.0  0.32054  0.65907  0.21189  1.0000 0.1275667268
H   H31       1.0  0.80380  0.23850  0.77999  1.0000 0.1016949614
H   H32       1.0  0.77999  0.80380  0.23850  1.0000 0.1016949614
H   H33       1.0  0.23850  0.77999  0.80380  1.0000 0.1016949614
H   H34       1.0  0.19620  0.76150  0.22001  1.0000 0.1016949614
H   H35       1.0  0.22001  0.19620  0.76150  1.0000 0.1016949614
H   H36       1.0  0.76150  0.22001  0.19620  1.0000 0.1016949614
H   H37       1.0  0.18034  0.35342  0.99186  1.0000 0.1275667268
H   H38       1.0  0.99186  0.18034  0.35342  1.0000 0.1275667268
H   H39       1.0  0.35342  0.99186  0.18034  1.0000 0.1275667268
H   H40       1.0  0.81966  0.64658  0.00814  1.0000 0.1275667268
H   H41       1.0  0.00814  0.81966  0.64658  1.0000 0.1275667268
H   H42       1.0  0.64658  0.00814  0.81966  1.0000 0.1275667268
H   H43       1.0  0.94131  0.32616  0.16067  1.0000 0.1162738958
H   H44       1.0  0.16067  0.94131  0.32616  1.0000 0.1162738958
H   H45       1.0  0.32616  0.16067  0.94131  1.0000 0.1162738958
H   H46       1.0  0.05869  0.67384  0.83933  1.0000 0.1162738958
H   H47       1.0  0.83933  0.05869  0.67384  1.0000 0.1162738958
H   H48       1.0  0.67384  0.83933  0.05869  1.0000 0.1162738958
H   H49       1.0  0.24274  0.39144  0.17177  1.0000 0.1099546433
H   H50       1.0  0.17177  0.24274  0.39144  1.0000 0.1099546433
H   H51       1.0  0.39144  0.17177  0.24274  1.0000 0.1099546433
H   H52       1.0  0.75726  0.60856  0.82823  1.0000 0.1099546433
H   H53       1.0  0.82823  0.75726  0.60856  1.0000 0.1099546433
H   H54       1.0  0.60856  0.82823  0.75726  1.0000 0.1099546433
H   H55       1.0  0.12694  0.37855  0.25843  1.0000 0.1099546433
H   H56       1.0  0.25843  0.12694  0.37855  1.0000 0.1099546433
H   H57       1.0  0.37855  0.25843  0.12694  1.0000 0.1099546433
H   H58       1.0  0.87306  0.62145  0.74157  1.0000 0.1099546433
H   H59       1.0  0.74157  0.87306  0.62145  1.0000 0.1099546433
H   H60       1.0  0.62145  0.74157  0.87306  1.0000 0.1099546433
C   C1        1.0  0.85666  0.48484  0.13216  1.0000 0.1730736131
C   C2        1.0  0.13216  0.85666  0.48484  1.0000 0.1730736131
C   C3        1.0  0.48484  0.13216  0.85666  1.0000 0.1730736131
C   C4        1.0  0.14334  0.51516  0.86784  1.0000 0.1730736131
C   C5        1.0  0.86784  0.14334  0.51516  1.0000 0.1730736131
C   C6        1.0  0.51516  0.86784  0.14334  1.0000 0.1730736131
C   C7        1.0  0.72077  0.43131  0.17101  1.0000 0.1380038618
C   C8        1.0  0.17101  0.72077  0.43131  1.0000 0.1380038618
C   C9        1.0  0.43131  0.17101  0.72077  1.0000 0.1380038618
C   C10       1.0  0.27923  0.56869  0.82899  1.0000 0.1380038618
C   C11       1.0  0.82899  0.27923  0.56869  1.0000 0.1380038618
C   C12       1.0  0.56869  0.82899  0.27923  1.0000 0.1380038618
C   C13       1.0  0.63061  0.37541  0.18194  1.0000 -0.1865949317
C   C14       1.0  0.18194  0.63061  0.37541  1.0000 -0.1865949317
C   C15       1.0  0.37541  0.18194  0.63061  1.0000 -0.1818785732
C   C16       1.0  0.36939  0.62459  0.81806  1.0000 -0.1865949317
C   C17       1.0  0.81806  0.36939  0.62459  1.0000 -0.1818785732
C   C18       1.0  0.62459  0.81806  0.36939  1.0000 -0.1865949317
C   C19       1.0  0.59944  0.43507  0.25114  1.0000 -0.1245255811
C   C20       1.0  0.25114  0.59944  0.43507  1.0000 -0.1245255811
C   C21       1.0  0.43507  0.25114  0.59944  1.0000 -0.1245255811
C   C22       1.0  0.40056  0.56493  0.74886  1.0000 -0.1245255811
C   C23       1.0  0.74886  0.40056  0.56493  1.0000 -0.1245255811
C   C24       1.0  0.56493  0.74886  0.40056  1.0000 -0.1245255811
C   C25       1.0  0.65805  0.54928  0.31057  1.0000 -0.1114813632
C   C26       1.0  0.31057  0.65805  0.54928  1.0000 -0.1114813632
C   C27       1.0  0.54928  0.31057  0.65805  1.0000 -0.1114813632
C   C28       1.0  0.34195  0.45072  0.68943  1.0000 -0.1114813632
C   C29       1.0  0.68943  0.34195  0.45072  1.0000 -0.1114813632
C   C30       1.0  0.45072  0.68943  0.34195  1.0000 -0.1114813632
C   C31       1.0  0.77901  0.54469  0.22990  1.0000 0.1534035439
C   C32       1.0  0.22990  0.77901  0.54469  1.0000 0.1534035439
C   C33       1.0  0.54469  0.22990  0.77901  1.0000 0.1534035439
C   C34       1.0  0.22099  0.45531  0.77010  1.0000 0.1534035439
C   C35       1.0  0.77010  0.22099  0.45531  1.0000 0.1534035439
C   C36       1.0  0.45531  0.77010  0.22099  1.0000 0.1534035439
C   C37       1.0  0.74861  0.60475  0.30117  1.0000 -0.1865949317
C   C38       1.0  0.30117  0.74861  0.60475  1.0000 -0.1865949317
C   C39       1.0  0.60475  0.30117  0.74861  1.0000 -0.1865949317
C   C40       1.0  0.25139  0.39525  0.69883  1.0000 -0.1865949317
C   C41       1.0  0.69883  0.25139  0.39525  1.0000 -0.1865949317
C   C42       1.0  0.39525  0.69883  0.25139  1.0000 -0.1865949317
C   C43       1.0  0.86095  0.26087  0.84609  1.0000 0.1730736131
C   C44       1.0  0.84609  0.86095  0.26087  1.0000 0.1730736131
C   C45       1.0  0.26087  0.84609  0.86095  1.0000 0.1730736131
C   C46       1.0  0.13905  0.73913  0.15391  1.0000 0.1730736131
C   C47       1.0  0.15391  0.13905  0.73913  1.0000 0.1730736131
C   C48       1.0  0.73913  0.15391  0.13905  1.0000 0.1730736131
C   C49       1.0  0.01946  0.31159  0.96291  1.0000 0.1380038618
C   C50       1.0  0.96291  0.01946  0.31159  1.0000 0.1380038618
C   C51       1.0  0.31159  0.96291  0.01946  1.0000 0.1380038618
C   C52       1.0  0.98054  0.68841  0.03709  1.0000 0.1380038618
C   C53       1.0  0.03709  0.98054  0.68841  1.0000 0.1380038618
C   C54       1.0  0.68841  0.03709  0.98054  1.0000 0.1380038618
C   C55       1.0  0.13272  0.34666  0.02450  1.0000 -0.1818785732
C   C56       1.0  0.02450  0.13272  0.34666  1.0000 -0.1818785732
C   C57       1.0  0.34666  0.02450  0.13272  1.0000 -0.1818785732
C   C58       1.0  0.86728  0.65334  0.97550  1.0000 -0.1818785732
C   C59       1.0  0.97550  0.86728  0.65334  1.0000 -0.1818785732
C   C60       1.0  0.65334  0.97550  0.86728  1.0000 -0.1818785732
C   C61       1.0  0.95096  0.30513  0.01297  1.0000 0.1099546433
C   C62       1.0  0.01297  0.95096  0.30513  1.0000 0.1099546433
C   C63       1.0  0.30513  0.01297  0.95096  1.0000 0.1099546433
C   C64       1.0  0.04904  0.69487  0.98703  1.0000 0.1099546433
C   C65       1.0  0.98703  0.04904  0.69487  1.0000 0.1099546433
C   C66       1.0  0.69487  0.98703  0.04904  1.0000 0.1099546433
C   C67       1.0  0.98843  0.33053  0.12720  1.0000 -0.1818785732
C   C68       1.0  0.12720  0.98843  0.33053  1.0000 -0.1865949317
C   C69       1.0  0.33053  0.12720  0.98843  1.0000 -0.1818785732
C   C70       1.0  0.01157  0.66947  0.87280  1.0000 -0.1818785732
C   C71       1.0  0.87280  0.01157  0.66947  1.0000 -0.1818785732
C   C72       1.0  0.66947  0.87280  0.01157  1.0000 -0.1818785732
C   C73       1.0  0.16926  0.36983  0.13180  1.0000 -0.1114813632
C   C74       1.0  0.13180  0.16926  0.36983  1.0000 -0.1114813632
C   C75       1.0  0.36983  0.13180  0.16926  1.0000 -0.1114813632
C   C76       1.0  0.83074  0.63017  0.86820  1.0000 -0.1114813632
C   C77       1.0  0.86820  0.83074  0.63017  1.0000 -0.1114813632
C   C78       1.0  0.63017  0.86820  0.83074  1.0000 -0.1114813632
C   C79       1.0  0.09909  0.36232  0.18486  1.0000 -0.1245255811
C   C80       1.0  0.18486  0.09909  0.36232  1.0000 -0.1245255811
C   C81       1.0  0.36232  0.18486  0.09909  1.0000 -0.1245255811
C   C82       1.0  0.90091  0.63768  0.81514  1.0000 -0.1256195372
C   C83       1.0  0.81514  0.90091  0.63768  1.0000 -0.1245255811
C   C84       1.0  0.63768  0.81514  0.90091  1.0000 -0.1256195372
N   N1        1.0  0.77410  0.39475  0.11022  1.0000 -0.3759297794
N   N2        1.0  0.11022  0.77410  0.39475  1.0000 -0.3759297794
N   N3        1.0  0.39475  0.11022  0.77410  1.0000 -0.3759297794
N   N4        1.0  0.22590  0.60525  0.88978  1.0000 -0.3759297794
N   N5        1.0  0.88978  0.22590  0.60525  1.0000 -0.3690535045
N   N6        1.0  0.60525  0.88978  0.22590  1.0000 -0.3690535045
N   N7        1.0  0.86630  0.57764  0.20325  1.0000 -0.3690535045
N   N8        1.0  0.20325  0.86630  0.57764  1.0000 -0.3690535045
N   N9        1.0  0.57764  0.20325  0.86630  1.0000 -0.3690535045
N   N10       1.0  0.13370  0.42236  0.79675  1.0000 -0.3690535045
N   N11       1.0  0.79675  0.13370  0.42236  1.0000 -0.3690535045
N   N12       1.0  0.42236  0.79675  0.13370  1.0000 -0.3690535045
N   N13       1.0  0.84566  0.27136  0.93456  1.0000 -0.3572428887
N   N14       1.0  0.93456  0.84566  0.27136  1.0000 -0.3572428887
N   N15       1.0  0.27136  0.93456  0.84566  1.0000 -0.3572428887
N   N16       1.0  0.15434  0.72864  0.06544  1.0000 -0.3572428887
N   N17       1.0  0.06544  0.15434  0.72864  1.0000 -0.3572428887
N   N18       1.0  0.72864  0.06544  0.15434  1.0000 -0.3572428887
N   N19       1.0  0.96073  0.28328  0.85520  1.0000 -0.3482841517
N   N20       1.0  0.85520  0.96073  0.28328  1.0000 -0.3482841517
N   N21       1.0  0.28328  0.85520  0.96073  1.0000 -0.3482841517
N   N22       1.0  0.03927  0.71672  0.14480  1.0000 -0.3482841517
N   N23       1.0  0.14480  0.03927  0.71672  1.0000 -0.3482841517
N   N24       1.0  0.71672  0.14480  0.03927  1.0000 -0.3482841517
