# DDEC6 charges by PACMAN v1.1 (https://github.com/mtap-research/PACMAN-charge/)
data_2014[Cu][tbo]3[FSR]5
_chemical_formula_sum              "Cu12 H48 C72 O60"
_cell_length_a       18.5858
_cell_length_b       18.5858
_cell_length_c       18.5858
_cell_angle_alpha    60
_cell_angle_beta     60
_cell_angle_gamma    60

_symmetry_space_group_name_H-M    "P 1"
_symmetry_Int_Tables_number       1

loop_
  _symmetry_equiv_pos_as_xyz
  'x, y, z'

loop_
  _atom_site_type_symbol
  _atom_site_label
  _atom_site_symmetry_multiplicity
  _atom_site_fract_x
  _atom_site_fract_y
  _atom_site_fract_z
  _atom_site_occupancy
  _atom_site_charge
Cu  Cu1       1.0  0.00000  0.00000  0.56984  1.0000 0.8480118532
Cu  Cu2       1.0  0.56984  0.43016  0.00000  1.0000 0.8480118532
Cu  Cu3       1.0  0.00000  0.00000  0.43016  1.0000 0.8480118532
Cu  Cu4       1.0  0.43016  0.56984  0.00000  1.0000 0.8480118532
Cu  Cu5       1.0  0.00000  0.56984  0.00000  1.0000 0.8480118532
Cu  Cu6       1.0  0.43016  0.00000  0.56984  1.0000 0.8480118532
Cu  Cu7       1.0  1.00000  0.43016  0.56984  1.0000 0.8480118532
Cu  Cu8       1.0  0.56984  0.00000  0.00000  1.0000 0.8480118532
Cu  Cu9       1.0  0.56984  0.00000  0.43016  1.0000 0.8480118532
Cu  Cu10      1.0  0.43016  0.00000  0.00000  1.0000 0.8480118532
Cu  Cu11      1.0  0.00000  0.43016  0.00000  1.0000 0.8480118532
Cu  Cu12      1.0  0.00000  0.56984  0.43016  1.0000 0.8480118532
H   H1        1.0  0.27250  0.96670  0.27250  1.0000 0.1311508933
H   H2        1.0  0.51170  0.72750  0.72750  1.0000 0.1311508933
H   H3        1.0  0.96670  0.27250  0.48830  1.0000 0.1311508933
H   H4        1.0  0.72750  0.51170  0.03330  1.0000 0.1311508933
H   H5        1.0  0.03330  0.51170  0.72750  1.0000 0.1311508933
H   H6        1.0  0.48830  0.27250  0.96670  1.0000 0.1311508933
H   H7        1.0  0.72750  0.72750  0.51170  1.0000 0.1311508933
H   H8        1.0  0.03330  0.72750  0.51170  1.0000 0.1311508933
H   H9        1.0  0.27250  0.48830  0.27250  1.0000 0.1311508933
H   H10       1.0  0.51170  0.72750  0.03330  1.0000 0.1311508933
H   H11       1.0  0.27250  0.27250  0.96670  1.0000 0.1311508933
H   H12       1.0  0.96670  0.27250  0.27250  1.0000 0.1311508933
H   H13       1.0  0.27250  0.96670  0.48830  1.0000 0.1311508933
H   H14       1.0  0.48830  0.96670  0.27250  1.0000 0.1311508933
H   H15       1.0  0.27250  0.48830  0.96670  1.0000 0.1311508933
H   H16       1.0  0.27250  0.27250  0.48830  1.0000 0.1311508933
H   H17       1.0  0.96670  0.48830  0.27250  1.0000 0.1311508933
H   H18       1.0  0.48830  0.27250  0.27250  1.0000 0.1311508933
H   H19       1.0  0.72750  0.03330  0.51170  1.0000 0.1311508933
H   H20       1.0  0.03330  0.72750  0.72750  1.0000 0.1311508933
H   H21       1.0  0.51170  0.03330  0.72750  1.0000 0.1311508933
H   H22       1.0  0.72750  0.72750  0.03330  1.0000 0.1311508933
H   H23       1.0  0.72750  0.51170  0.72750  1.0000 0.1311508933
H   H24       1.0  0.72750  0.03330  0.72750  1.0000 0.1311508933
H   H25       1.0  0.97300  0.97300  0.74360  1.0000 0.3709357226
H   H26       1.0  0.68960  0.25640  0.02700  1.0000 0.3709357226
H   H27       1.0  0.97300  0.97300  0.31040  1.0000 0.3709357226
H   H28       1.0  0.25640  0.68960  0.02700  1.0000 0.3709357226
H   H29       1.0  0.02700  0.68960  0.02700  1.0000 0.3709357226
H   H30       1.0  0.31040  0.74360  0.97300  1.0000 0.3709357226
H   H31       1.0  0.25640  0.02700  0.68960  1.0000 0.3709357226
H   H32       1.0  0.02700  0.25640  0.68960  1.0000 0.3709357226
H   H33       1.0  0.74360  0.31040  0.97300  1.0000 0.3709357226
H   H34       1.0  0.68960  0.02700  0.02700  1.0000 0.3709357226
H   H35       1.0  0.74360  0.97300  0.97300  1.0000 0.3709357226
H   H36       1.0  0.97300  0.74360  0.97300  1.0000 0.3709357226
H   H37       1.0  0.74360  0.97300  0.31040  1.0000 0.3709357226
H   H38       1.0  0.31040  0.97300  0.97300  1.0000 0.3709357226
H   H39       1.0  0.97300  0.31040  0.97300  1.0000 0.3709357226
H   H40       1.0  0.97300  0.74360  0.31040  1.0000 0.3709357226
H   H41       1.0  0.97300  0.31040  0.74360  1.0000 0.3709357226
H   H42       1.0  0.31040  0.97300  0.74360  1.0000 0.3709357226
H   H43       1.0  0.02700  0.02700  0.68960  1.0000 0.3709357226
H   H44       1.0  0.02700  0.02700  0.25640  1.0000 0.3709357226
H   H45       1.0  0.68960  0.02700  0.25640  1.0000 0.3709357226
H   H46       1.0  0.02700  0.25640  0.02700  1.0000 0.3709357226
H   H47       1.0  0.02700  0.68960  0.25640  1.0000 0.3709357226
H   H48       1.0  0.25640  0.02700  0.02700  1.0000 0.3709357226
C   C1        1.0  0.25788  0.96696  0.38758  1.0000 -0.0318016371
C   C2        1.0  0.61242  0.61242  0.74212  1.0000 -0.0318016371
C   C3        1.0  0.96696  0.25788  0.38758  1.0000 -0.0318016371
C   C4        1.0  0.61242  0.61242  0.03304  1.0000 -0.0318016371
C   C5        1.0  0.03304  0.61242  0.74212  1.0000 -0.0318016371
C   C6        1.0  0.38758  0.38758  0.96696  1.0000 -0.0318016371
C   C7        1.0  0.61242  0.74212  0.61242  1.0000 -0.0318016371
C   C8        1.0  0.03304  0.61242  0.61242  1.0000 -0.0318016371
C   C9        1.0  0.38758  0.38758  0.25788  1.0000 -0.0318016371
C   C10       1.0  0.61242  0.74212  0.03304  1.0000 -0.0318016371
C   C11       1.0  0.38758  0.25788  0.96696  1.0000 -0.0318016371
C   C12       1.0  0.96696  0.38758  0.25788  1.0000 -0.0318016371
C   C13       1.0  0.38758  0.96696  0.38758  1.0000 -0.0318016371
C   C14       1.0  0.38758  0.96696  0.25788  1.0000 -0.0318016371
C   C15       1.0  0.25788  0.38758  0.96696  1.0000 -0.0318016371
C   C16       1.0  0.25788  0.38758  0.38758  1.0000 -0.0318016371
C   C17       1.0  0.96696  0.38758  0.38758  1.0000 -0.0318016371
C   C18       1.0  0.38758  0.25788  0.38758  1.0000 -0.0318016371
C   C19       1.0  0.74212  0.03304  0.61242  1.0000 -0.0318016371
C   C20       1.0  0.03304  0.74212  0.61242  1.0000 -0.0318016371
C   C21       1.0  0.61242  0.03304  0.61242  1.0000 -0.0318016371
C   C22       1.0  0.74212  0.61242  0.03304  1.0000 -0.0318016371
C   C23       1.0  0.74212  0.61242  0.61242  1.0000 -0.0318016371
C   C24       1.0  0.61242  0.03304  0.74212  1.0000 -0.0318016371
C   C25       1.0  0.16267  0.97459  0.43137  1.0000 0.5763414571
C   C26       1.0  0.56863  0.56863  0.83733  1.0000 0.5763414571
C   C27       1.0  0.97459  0.16267  0.43137  1.0000 0.5763414571
C   C28       1.0  0.56863  0.56863  0.02541  1.0000 0.5763414571
C   C29       1.0  0.02541  0.56863  0.83733  1.0000 0.5763414571
C   C30       1.0  0.43137  0.43137  0.97459  1.0000 0.5763414571
C   C31       1.0  0.56863  0.83733  0.56863  1.0000 0.5763414571
C   C32       1.0  0.02541  0.56863  0.56863  1.0000 0.5763414571
C   C33       1.0  0.43137  0.43137  0.16267  1.0000 0.5763414571
C   C34       1.0  0.56863  0.83733  0.02541  1.0000 0.5763414571
C   C35       1.0  0.43137  0.16267  0.97459  1.0000 0.5763414571
C   C36       1.0  0.97459  0.43137  0.16267  1.0000 0.5763414571
C   C37       1.0  0.43137  0.97459  0.43137  1.0000 0.5763414571
C   C38       1.0  0.43137  0.97459  0.16267  1.0000 0.5763414571
C   C39       1.0  0.16267  0.43137  0.97459  1.0000 0.5763414571
C   C40       1.0  0.16267  0.43137  0.43137  1.0000 0.5763414571
C   C41       1.0  0.97459  0.43137  0.43137  1.0000 0.5763414571
C   C42       1.0  0.43137  0.16267  0.43137  1.0000 0.5763414571
C   C43       1.0  0.83733  0.02541  0.56863  1.0000 0.5763414571
C   C44       1.0  0.02541  0.83733  0.56863  1.0000 0.5763414571
C   C45       1.0  0.56863  0.02541  0.56863  1.0000 0.5763414571
C   C46       1.0  0.83733  0.56863  0.02541  1.0000 0.5763414571
C   C47       1.0  0.83733  0.56863  0.56863  1.0000 0.5763414571
C   C48       1.0  0.56863  0.02541  0.83733  1.0000 0.5763414571
C   C49       1.0  0.30136  0.96686  0.30136  1.0000 -0.0927124352
C   C50       1.0  0.56958  0.69864  0.69864  1.0000 -0.0927124352
C   C51       1.0  0.96686  0.30136  0.43042  1.0000 -0.0927124352
C   C52       1.0  0.69864  0.56958  0.03314  1.0000 -0.0927124352
C   C53       1.0  0.03314  0.56958  0.69864  1.0000 -0.0927124352
C   C54       1.0  0.43042  0.30136  0.96686  1.0000 -0.0927124352
C   C55       1.0  0.69864  0.69864  0.56958  1.0000 -0.0927124352
C   C56       1.0  0.03314  0.69864  0.56958  1.0000 -0.0927124352
C   C57       1.0  0.30136  0.43042  0.30136  1.0000 -0.0927124352
C   C58       1.0  0.56958  0.69864  0.03314  1.0000 -0.0927124352
C   C59       1.0  0.30136  0.30136  0.96686  1.0000 -0.0927124352
C   C60       1.0  0.96686  0.30136  0.30136  1.0000 -0.0927124352
C   C61       1.0  0.30136  0.96686  0.43042  1.0000 -0.0927124352
C   C62       1.0  0.43042  0.96686  0.30136  1.0000 -0.0927124352
C   C63       1.0  0.30136  0.43042  0.96686  1.0000 -0.0927124352
C   C64       1.0  0.30136  0.30136  0.43042  1.0000 -0.0927124352
C   C65       1.0  0.96686  0.43042  0.30136  1.0000 -0.0927124352
C   C66       1.0  0.43042  0.30136  0.30136  1.0000 -0.0927124352
C   C67       1.0  0.69864  0.03314  0.56958  1.0000 -0.0927124352
C   C68       1.0  0.03314  0.69864  0.69864  1.0000 -0.0927124352
C   C69       1.0  0.56958  0.03314  0.69864  1.0000 -0.0927124352
C   C70       1.0  0.69864  0.69864  0.03314  1.0000 -0.0927124352
C   C71       1.0  0.69864  0.56958  0.69864  1.0000 -0.0927124352
C   C72       1.0  0.69864  0.03314  0.69864  1.0000 -0.0927124352
O   O1        1.0  0.12621  0.97869  0.50767  1.0000 -0.5277380986
O   O2        1.0  0.61257  0.49233  0.87379  1.0000 -0.5277380986
O   O3        1.0  0.97869  0.12621  0.38743  1.0000 -0.5277380986
O   O4        1.0  0.49233  0.61257  0.02131  1.0000 -0.5277380986
O   O5        1.0  0.02131  0.61257  0.87379  1.0000 -0.5277380986
O   O6        1.0  0.38743  0.50767  0.97869  1.0000 -0.5277380986
O   O7        1.0  0.49233  0.87379  0.61257  1.0000 -0.5277380986
O   O8        1.0  0.02131  0.49233  0.61257  1.0000 -0.5277380986
O   O9        1.0  0.50767  0.38743  0.12621  1.0000 -0.5277380986
O   O10       1.0  0.61257  0.87379  0.02131  1.0000 -0.5277380986
O   O11       1.0  0.50767  0.12621  0.97869  1.0000 -0.5277380986
O   O12       1.0  0.97869  0.50767  0.12621  1.0000 -0.5277380986
O   O13       1.0  0.50767  0.97869  0.38743  1.0000 -0.5277380986
O   O14       1.0  0.38743  0.97869  0.12621  1.0000 -0.5277380986
O   O15       1.0  0.12621  0.38743  0.97869  1.0000 -0.5277380986
O   O16       1.0  0.12621  0.50767  0.38743  1.0000 -0.5277380986
O   O17       1.0  0.97869  0.38743  0.50767  1.0000 -0.5277380986
O   O18       1.0  0.38743  0.12621  0.50767  1.0000 -0.5277380986
O   O19       1.0  0.87379  0.02131  0.61257  1.0000 -0.5277380986
O   O20       1.0  0.02131  0.87379  0.49233  1.0000 -0.5277380986
O   O21       1.0  0.61257  0.02131  0.49233  1.0000 -0.5277380986
O   O22       1.0  0.87379  0.49233  0.02131  1.0000 -0.5277380986
O   O23       1.0  0.87379  0.61257  0.49233  1.0000 -0.5277380986
O   O24       1.0  0.49233  0.02131  0.87379  1.0000 -0.5277380986
O   O25       1.0  0.87379  0.02131  0.49233  1.0000 -0.5277380986
O   O26       1.0  0.38743  0.50767  0.12621  1.0000 -0.5277380986
O   O27       1.0  0.02131  0.87379  0.61257  1.0000 -0.5277380986
O   O28       1.0  0.50767  0.38743  0.97869  1.0000 -0.5277380986
O   O29       1.0  0.97869  0.38743  0.12621  1.0000 -0.5277380986
O   O30       1.0  0.61257  0.49233  0.02131  1.0000 -0.5277380986
O   O31       1.0  0.50767  0.12621  0.38743  1.0000 -0.5277380986
O   O32       1.0  0.97869  0.50767  0.38743  1.0000 -0.5277380986
O   O33       1.0  0.49233  0.61257  0.87379  1.0000 -0.5277380986
O   O34       1.0  0.38743  0.12621  0.97869  1.0000 -0.5277380986
O   O35       1.0  0.49233  0.87379  0.02131  1.0000 -0.5277380986
O   O36       1.0  0.02131  0.49233  0.87379  1.0000 -0.5277380986
O   O37       1.0  0.49233  0.02131  0.61257  1.0000 -0.5277380986
O   O38       1.0  0.61257  0.02131  0.87379  1.0000 -0.5277380986
O   O39       1.0  0.87379  0.61257  0.02131  1.0000 -0.5277380986
O   O40       1.0  0.87379  0.49233  0.61257  1.0000 -0.5277380986
O   O41       1.0  0.02131  0.61257  0.49233  1.0000 -0.5277380986
O   O42       1.0  0.61257  0.87379  0.49233  1.0000 -0.5277380986
O   O43       1.0  0.12621  0.97869  0.38743  1.0000 -0.5277380986
O   O44       1.0  0.97869  0.12621  0.50767  1.0000 -0.5277380986
O   O45       1.0  0.38743  0.97869  0.50767  1.0000 -0.5277380986
O   O46       1.0  0.12621  0.50767  0.97869  1.0000 -0.5277380986
O   O47       1.0  0.12621  0.38743  0.50767  1.0000 -0.5277380986
O   O48       1.0  0.50767  0.97869  0.12621  1.0000 -0.5277380986
O   O49       1.0  0.00000  0.00000  0.69180  1.0000 -0.642408369
O   O50       1.0  0.69180  0.30820  0.00000  1.0000 -0.6457138241
O   O51       1.0  0.00000  0.00000  0.30820  1.0000 -0.6457138241
O   O52       1.0  0.30820  0.69180  0.00000  1.0000 -0.6457138241
O   O53       1.0  0.00000  0.69180  0.00000  1.0000 -0.6457138241
O   O54       1.0  0.30820  0.00000  0.69180  1.0000 -0.6457138241
O   O55       1.0  0.00000  0.30820  0.69180  1.0000 -0.6457138241
O   O56       1.0  0.69180  0.00000  0.00000  1.0000 -0.642408369
O   O57       1.0  0.69180  0.00000  0.30820  1.0000 -0.6457138241
O   O58       1.0  0.30820  0.00000  0.00000  1.0000 -0.642408369
O   O59       1.0  0.00000  0.30820  0.00000  1.0000 -0.6457138241
O   O60       1.0  0.00000  0.69180  0.30820  1.0000 -0.6457138241
