# DDEC6 charges by PACMAN v1.1 (https://github.com/mtap-research/PACMAN-charge/)
data_2014[Zn][pcu]3[FSR]12
_chemical_formula_sum              "Zn4 H80 C104 N4 O16"
_cell_length_a       13.1723
_cell_length_b       13.1723
_cell_length_c       15.867
_cell_angle_alpha    87.3163
_cell_angle_beta     92.6837
_cell_angle_gamma    70.907

_symmetry_space_group_name_H-M    "P 1"
_symmetry_Int_Tables_number       1

loop_
  _symmetry_equiv_pos_as_xyz
  'x, y, z'

loop_
  _atom_site_type_symbol
  _atom_site_label
  _atom_site_symmetry_multiplicity
  _atom_site_fract_x
  _atom_site_fract_y
  _atom_site_fract_z
  _atom_site_occupancy
  _atom_site_charge
Zn  Zn1       1.0  0.57242  0.43720  0.43922  1.0000 0.8233884088
Zn  Zn2       1.0  0.43720  0.57242  0.06078  1.0000 0.8233884088
Zn  Zn3       1.0  0.42758  0.56280  0.56078  1.0000 0.8233884088
Zn  Zn4       1.0  0.56280  0.42758  0.93922  1.0000 0.8233884088
H   H1        1.0  0.74260  0.22840  0.44280  1.0000 0.1121317659
H   H2        1.0  0.22840  0.74260  0.05720  1.0000 0.1121317659
H   H3        1.0  0.25740  0.77160  0.55720  1.0000 0.1121317659
H   H4        1.0  0.77160  0.25740  0.94280  1.0000 0.1121317659
H   H5        1.0  0.86070  0.11770  0.35630  1.0000 0.1303706235
H   H6        1.0  0.11770  0.86070  0.14370  1.0000 0.1303706235
H   H7        1.0  0.13930  0.88230  0.64370  1.0000 0.1303706235
H   H8        1.0  0.88230  0.13930  0.85630  1.0000 0.1303706235
H   H9        1.0  0.74760  0.34620  0.16810  1.0000 0.1386073839
H   H10       1.0  0.34620  0.74760  0.33190  1.0000 0.1386073839
H   H11       1.0  0.25240  0.65380  0.83190  1.0000 0.1386073839
H   H12       1.0  0.65380  0.25240  0.66810  1.0000 0.1386073839
H   H13       1.0  0.63870  0.45070  0.26050  1.0000 0.119540838
H   H14       1.0  0.45070  0.63870  0.23950  1.0000 0.119540838
H   H15       1.0  0.36130  0.54930  0.73950  1.0000 0.119540838
H   H16       1.0  0.54930  0.36130  0.76050  1.0000 0.119540838
H   H17       1.0  0.94920  0.09140  0.22070  1.0000 0.1303706235
H   H18       1.0  0.09140  0.94920  0.27930  1.0000 0.1303706235
H   H19       1.0  0.05080  0.90860  0.77930  1.0000 0.1303706235
H   H20       1.0  0.90860  0.05080  0.72070  1.0000 0.1303706235
H   H21       1.0  0.81850  0.20550  0.08910  1.0000 0.119540838
H   H22       1.0  0.20550  0.81850  0.41090  1.0000 0.119540838
H   H23       1.0  0.18150  0.79450  0.91090  1.0000 0.119540838
H   H24       1.0  0.79450  0.18150  0.58910  1.0000 0.119540838
H   H25       1.0  0.81140  0.99420  0.13540  1.0000 0.119540838
H   H26       1.0  0.99420  0.81140  0.36460  1.0000 0.119540838
H   H27       1.0  0.18860  0.00580  0.86460  1.0000 0.119540838
H   H28       1.0  0.00580  0.18860  0.63540  1.0000 0.119540838
H   H29       1.0  0.80530  0.91050  0.06860  1.0000 0.1386073839
H   H30       1.0  0.91050  0.80530  0.43140  1.0000 0.1386073839
H   H31       1.0  0.19470  0.08950  0.93140  1.0000 0.1386073839
H   H32       1.0  0.08950  0.19470  0.56860  1.0000 0.1386073839
H   H33       1.0  0.89460  0.87540  0.14440  1.0000 0.1303706235
H   H34       1.0  0.87540  0.89460  0.35560  1.0000 0.1303706235
H   H35       1.0  0.10540  0.12460  0.85560  1.0000 0.1303706235
H   H36       1.0  0.12460  0.10540  0.64440  1.0000 0.1303706235
H   H37       1.0  0.99520  0.24260  0.06240  1.0000 0.1303706235
H   H38       1.0  0.24260  0.99520  0.43760  1.0000 0.1303706235
H   H39       1.0  0.00480  0.75740  0.93760  1.0000 0.1303706235
H   H40       1.0  0.75740  0.00480  0.56240  1.0000 0.1303706235
H   H41       1.0  0.10000  0.20360  0.01130  1.0000 0.1386073839
H   H42       1.0  0.20360  0.10000  0.48870  1.0000 0.1386073839
H   H43       1.0  0.90000  0.79640  0.98870  1.0000 0.1386073839
H   H44       1.0  0.79640  0.90000  0.51130  1.0000 0.1386073839
H   H45       1.0  0.98580  0.25740  0.96240  1.0000 0.1303706235
H   H46       1.0  0.25740  0.98580  0.53760  1.0000 0.1303706235
H   H47       1.0  0.01420  0.74260  0.03760  1.0000 0.1303706235
H   H48       1.0  0.74260  0.01420  0.46240  1.0000 0.1303706235
H   H49       1.0  0.56130  0.12050  0.52880  1.0000 0.119540838
H   H50       1.0  0.12050  0.56130  0.97120  1.0000 0.119540838
H   H51       1.0  0.43870  0.87950  0.47120  1.0000 0.119540838
H   H52       1.0  0.87950  0.43870  0.02880  1.0000 0.119540838
H   H53       1.0  0.55430  0.96630  0.59930  1.0000 0.119540838
H   H54       1.0  0.96630  0.55430  0.90070  1.0000 0.119540838
H   H55       1.0  0.44570  0.03370  0.40070  1.0000 0.119540838
H   H56       1.0  0.03370  0.44570  0.09930  1.0000 0.119540838
H   H57       1.0  0.32000  0.14580  0.73510  1.0000 0.119540838
H   H58       1.0  0.14580  0.32000  0.76490  1.0000 0.119540838
H   H59       1.0  0.68000  0.85420  0.26490  1.0000 0.119540838
H   H60       1.0  0.85420  0.68000  0.23510  1.0000 0.119540838
H   H61       1.0  0.33230  0.29910  0.66800  1.0000 0.119540838
H   H62       1.0  0.29910  0.33230  0.83200  1.0000 0.119540838
H   H63       1.0  0.66770  0.70090  0.33200  1.0000 0.119540838
H   H64       1.0  0.70090  0.66770  0.16800  1.0000 0.119540838
H   H65       1.0  0.49990  0.82970  0.64380  1.0000 0.119540838
H   H66       1.0  0.82970  0.49990  0.85620  1.0000 0.119540838
H   H67       1.0  0.50010  0.17030  0.35620  1.0000 0.119540838
H   H68       1.0  0.17030  0.50010  0.14380  1.0000 0.119540838
H   H69       1.0  0.51790  0.67810  0.72890  1.0000 0.119540838
H   H70       1.0  0.67810  0.51790  0.77110  1.0000 0.119540838
H   H71       1.0  0.48210  0.32190  0.27110  1.0000 0.119540838
H   H72       1.0  0.32190  0.48210  0.22890  1.0000 0.119540838
H   H73       1.0  0.39620  0.86420  0.91820  1.0000 0.119540838
H   H74       1.0  0.86420  0.39620  0.58180  1.0000 0.119540838
H   H75       1.0  0.60380  0.13580  0.08180  1.0000 0.119540838
H   H76       1.0  0.13580  0.60380  0.41820  1.0000 0.119540838
H   H77       1.0  0.38270  0.01470  0.83410  1.0000 0.1121317659
H   H78       1.0  0.01470  0.38270  0.66590  1.0000 0.1121317659
H   H79       1.0  0.61730  0.98530  0.16590  1.0000 0.1121317659
H   H80       1.0  0.98530  0.61730  0.33410  1.0000 0.1121317659
C   C1        1.0  0.74650  0.25390  0.38720  1.0000 0.0778322061
C   C2        1.0  0.25390  0.74650  0.11280  1.0000 0.0778322061
C   C3        1.0  0.25350  0.74610  0.61280  1.0000 0.0778322061
C   C4        1.0  0.74610  0.25350  0.88720  1.0000 0.0778322061
C   C5        1.0  0.81680  0.18700  0.33540  1.0000 -0.1975795963
C   C6        1.0  0.18700  0.81680  0.16460  1.0000 -0.1975795963
C   C7        1.0  0.18320  0.81300  0.66460  1.0000 -0.1975795963
C   C8        1.0  0.81300  0.18320  0.83540  1.0000 -0.1975795963
C   C9        1.0  0.82250  0.22270  0.25170  1.0000 0.1676296851
C   C10       1.0  0.22270  0.82250  0.24830  1.0000 0.1676296851
C   C11       1.0  0.17750  0.77730  0.74830  1.0000 0.1676296851
C   C12       1.0  0.77730  0.17750  0.75170  1.0000 0.1676296851
C   C13       1.0  0.75160  0.32080  0.22490  1.0000 -0.1840558537
C   C14       1.0  0.32080  0.75160  0.27510  1.0000 -0.1840558537
C   C15       1.0  0.24840  0.67920  0.77510  1.0000 -0.1840558537
C   C16       1.0  0.67920  0.24840  0.72490  1.0000 -0.1840558537
C   C17       1.0  0.68580  0.38260  0.28080  1.0000 0.0882431417
C   C18       1.0  0.38260  0.68580  0.21920  1.0000 0.0882431417
C   C19       1.0  0.31420  0.61740  0.71920  1.0000 0.0882431417
C   C20       1.0  0.61740  0.31420  0.78080  1.0000 0.0882431417
C   C21       1.0  0.88980  0.14700  0.19490  1.0000 -0.1580104158
C   C22       1.0  0.14700  0.88980  0.30510  1.0000 -0.1580104158
C   C23       1.0  0.11020  0.85300  0.80510  1.0000 -0.1580104158
C   C24       1.0  0.85300  0.11020  0.69490  1.0000 -0.1580104158
C   C25       1.0  0.87650  0.14830  0.11480  1.0000 -0.0932856808
C   C26       1.0  0.14830  0.87650  0.38520  1.0000 -0.0932856808
C   C27       1.0  0.12350  0.85170  0.88520  1.0000 -0.0932856808
C   C28       1.0  0.85170  0.12350  0.61480  1.0000 -0.0932856808
C   C29       1.0  0.94150  0.07030  0.05660  1.0000 -0.0335433484
C   C30       1.0  0.07030  0.94150  0.44340  1.0000 -0.0335433484
C   C31       1.0  0.05850  0.92970  0.94340  1.0000 -0.0335433484
C   C32       1.0  0.92970  0.05850  0.55660  1.0000 -0.0335433484
C   C33       1.0  0.92920  0.96980  0.05090  1.0000 0.0485734967
C   C34       1.0  0.96980  0.92920  0.44910  1.0000 0.0485734967
C   C35       1.0  0.07080  0.03020  0.94910  1.0000 0.0485734967
C   C36       1.0  0.03020  0.07080  0.55090  1.0000 0.0485734967
C   C37       1.0  0.01130  0.10110  0.00640  1.0000 0.0485734967
C   C38       1.0  0.10110  0.01130  0.49360  1.0000 0.0485734967
C   C39       1.0  0.98870  0.89890  0.99360  1.0000 0.0485734967
C   C40       1.0  0.89890  0.98870  0.50640  1.0000 0.0485734967
C   C41       1.0  0.85330  0.93430  0.10470  1.0000 -0.4538186492
C   C42       1.0  0.93430  0.85330  0.39530  1.0000 -0.4538186492
C   C43       1.0  0.14670  0.06570  0.89530  1.0000 -0.4538186492
C   C44       1.0  0.06570  0.14670  0.60470  1.0000 -0.4538186492
C   C45       1.0  0.02420  0.21100  0.01110  1.0000 -0.4538186492
C   C46       1.0  0.21100  0.02420  0.48890  1.0000 -0.4538186492
C   C47       1.0  0.97580  0.78900  0.98890  1.0000 -0.4538186492
C   C48       1.0  0.78900  0.97580  0.51110  1.0000 -0.4538186492
C   C49       1.0  0.45380  0.22560  0.59470  1.0000 -0.0362551735
C   C50       1.0  0.22560  0.45380  0.90530  1.0000 -0.0362551735
C   C51       1.0  0.54620  0.77440  0.40530  1.0000 -0.0362551735
C   C52       1.0  0.77440  0.54620  0.09470  1.0000 -0.0362551735
C   C53       1.0  0.51510  0.12610  0.57290  1.0000 -0.1096224916
C   C54       1.0  0.12610  0.51510  0.92710  1.0000 -0.1096224916
C   C55       1.0  0.48490  0.87390  0.42710  1.0000 -0.1096224916
C   C56       1.0  0.87390  0.48490  0.07290  1.0000 -0.1096224916
C   C57       1.0  0.51010  0.03370  0.61480  1.0000 -0.1505303123
C   C58       1.0  0.03370  0.51010  0.88520  1.0000 -0.1505303123
C   C59       1.0  0.48990  0.96630  0.38520  1.0000 -0.1505303123
C   C60       1.0  0.96630  0.48990  0.11480  1.0000 -0.1505303123
C   C61       1.0  0.44130  0.03810  0.67940  1.0000 0.0778322061
C   C62       1.0  0.03810  0.44130  0.82060  1.0000 0.0778322061
C   C63       1.0  0.55870  0.96190  0.32060  1.0000 0.0778322061
C   C64       1.0  0.96190  0.55870  0.17940  1.0000 0.0778322061
C   C65       1.0  0.37220  0.14000  0.69550  1.0000 -0.1580104158
C   C66       1.0  0.14000  0.37220  0.80450  1.0000 -0.1580104158
C   C67       1.0  0.62780  0.86000  0.30450  1.0000 -0.1580104158
C   C68       1.0  0.86000  0.62780  0.19550  1.0000 -0.1580104158
C   C69       1.0  0.37890  0.23150  0.65500  1.0000 -0.1040128433
C   C70       1.0  0.23150  0.37890  0.84500  1.0000 -0.1040128433
C   C71       1.0  0.62110  0.76850  0.34500  1.0000 -0.1040128433
C   C72       1.0  0.76850  0.62110  0.15500  1.0000 -0.1040128433
C   C73       1.0  0.44420  0.93980  0.73010  1.0000 0.0642572938
C   C74       1.0  0.93980  0.44420  0.76990  1.0000 0.0642572938
C   C75       1.0  0.55580  0.06020  0.26990  1.0000 0.0642572938
C   C76       1.0  0.06020  0.55580  0.23010  1.0000 0.0642572938
C   C77       1.0  0.48100  0.83700  0.70010  1.0000 -0.1431010981
C   C78       1.0  0.83700  0.48100  0.79990  1.0000 -0.1431010981
C   C79       1.0  0.51900  0.16300  0.29990  1.0000 -0.1431010981
C   C80       1.0  0.16300  0.51900  0.20010  1.0000 -0.1431010981
C   C81       1.0  0.49040  0.74640  0.75050  1.0000 -0.0932856808
C   C82       1.0  0.74640  0.49040  0.74950  1.0000 -0.0932856808
C   C83       1.0  0.50960  0.25360  0.24950  1.0000 -0.0932856808
C   C84       1.0  0.25360  0.50960  0.25050  1.0000 -0.0932856808
C   C85       1.0  0.45960  0.75500  0.83300  1.0000 -0.0362551735
C   C86       1.0  0.75500  0.45960  0.66700  1.0000 -0.0362551735
C   C87       1.0  0.54040  0.24500  0.16700  1.0000 -0.0362551735
C   C88       1.0  0.24500  0.54040  0.33300  1.0000 -0.0362551735
C   C89       1.0  0.41880  0.85680  0.86280  1.0000 -0.1040128433
C   C90       1.0  0.85680  0.41880  0.63720  1.0000 -0.1040128433
C   C91       1.0  0.58120  0.14320  0.13720  1.0000 -0.1040128433
C   C92       1.0  0.14320  0.58120  0.36280  1.0000 -0.1040128433
C   C93       1.0  0.41110  0.94650  0.81250  1.0000 -0.1431010981
C   C94       1.0  0.94650  0.41110  0.68750  1.0000 -0.1431010981
C   C95       1.0  0.58890  0.05350  0.18750  1.0000 -0.1431010981
C   C96       1.0  0.05350  0.58890  0.31250  1.0000 -0.1431010981
C   C97       1.0  0.46900  0.32580  0.55660  1.0000 0.5692606754
C   C98       1.0  0.32580  0.46900  0.94340  1.0000 0.5692606754
C   C99       1.0  0.53100  0.67420  0.44340  1.0000 0.5692606754
C   C100      1.0  0.67420  0.53100  0.05660  1.0000 0.5692606754
C   C101      1.0  0.47050  0.65810  0.89040  1.0000 0.5692606754
C   C102      1.0  0.65810  0.47050  0.60960  1.0000 0.5692606754
C   C103      1.0  0.52950  0.34190  0.10960  1.0000 0.5692606754
C   C104      1.0  0.34190  0.52950  0.39040  1.0000 0.5692606754
N   N1        1.0  0.68400  0.35320  0.36080  1.0000 -0.2086061575
N   N2        1.0  0.35320  0.68400  0.13920  1.0000 -0.2086061575
N   N3        1.0  0.31600  0.64680  0.63920  1.0000 -0.2086061575
N   N4        1.0  0.64680  0.31600  0.86080  1.0000 -0.2086061575
O   O1        1.0  0.53074  0.31574  0.49720  1.0000 -0.5452172646
O   O2        1.0  0.31574  0.53074  0.00280  1.0000 -0.5452172646
O   O3        1.0  0.46926  0.68426  0.50280  1.0000 -0.5452172646
O   O4        1.0  0.68426  0.46926  0.99720  1.0000 -0.5391938576
O   O5        1.0  0.42025  0.41285  0.58840  1.0000 -0.5391938576
O   O6        1.0  0.41285  0.42025  0.91160  1.0000 -0.5391938576
O   O7        1.0  0.57975  0.58715  0.41160  1.0000 -0.5391938576
O   O8        1.0  0.58715  0.57975  0.08840  1.0000 -0.5391938576
O   O9        1.0  0.42647  0.67447  0.95872  1.0000 -0.5391938576
O   O10       1.0  0.67447  0.42647  0.54128  1.0000 -0.5391938576
O   O11       1.0  0.57353  0.32553  0.04128  1.0000 -0.5391938576
O   O12       1.0  0.32553  0.57353  0.45872  1.0000 -0.5391938576
O   O13       1.0  0.52230  0.56690  0.86620  1.0000 -0.5391938576
O   O14       1.0  0.56690  0.52230  0.63380  1.0000 -0.5391938576
O   O15       1.0  0.47770  0.43310  0.13380  1.0000 -0.5391938576
O   O16       1.0  0.43310  0.47770  0.36620  1.0000 -0.5391938576
