# DDEC6 charges by PACMAN v1.1 (https://github.com/mtap-research/PACMAN-charge/)
data_2014[Zn][dia]3[FSR]13
_chemical_formula_sum              "Zn2 H40 C56 N4 O8"
_cell_length_a       14.1863
_cell_length_b       14.1863
_cell_length_c       8.3985
_cell_angle_alpha    85.794
_cell_angle_beta     94.206
_cell_angle_gamma    56.7489

_symmetry_space_group_name_H-M    "P 1"
_symmetry_Int_Tables_number       1

loop_
  _symmetry_equiv_pos_as_xyz
  'x, y, z'

loop_
  _atom_site_type_symbol
  _atom_site_label
  _atom_site_symmetry_multiplicity
  _atom_site_fract_x
  _atom_site_fract_y
  _atom_site_fract_z
  _atom_site_occupancy
  _atom_site_charge
Zn  Zn1       1.0  0.20874  0.60892  0.69643  1.0000 0.7318470493
Zn  Zn2       1.0  0.39108  0.79126  0.19643  1.0000 0.7318470493
H   H1        1.0  0.55930  0.51910  0.56990  1.0000 0.1120680945
H   H2        1.0  0.48090  0.44070  0.06990  1.0000 0.1120680945
H   H3        1.0  0.73480  0.40420  0.47330  1.0000 0.1188454813
H   H4        1.0  0.59580  0.26520  0.97330  1.0000 0.1188454813
H   H5        1.0  0.69210  0.14470  0.49420  1.0000 0.1120680945
H   H6        1.0  0.85530  0.30790  0.99420  1.0000 0.1120680945
H   H7        1.0  0.51730  0.25850  0.58260  1.0000 0.1188454813
H   H8        1.0  0.74150  0.48270  0.08260  1.0000 0.1188454813
H   H9        1.0  0.88050  0.22850  0.39100  1.0000 0.1120680945
H   H10       1.0  0.77150  0.11950  0.89100  1.0000 0.1120680945
H   H11       1.0  0.86100  0.04560  0.43080  1.0000 0.1188454813
H   H12       1.0  0.95440  0.13900  0.93080  1.0000 0.1188454813
H   H13       1.0  0.02980  0.14140  0.27230  1.0000 0.1312940545
H   H14       1.0  0.85860  0.97020  0.77230  1.0000 0.1312940545
H   H15       1.0  0.20650  0.02630  0.19600  1.0000 0.1026736159
H   H16       1.0  0.97370  0.79350  0.69600  1.0000 0.1026736159
H   H17       1.0  0.20860  0.75280  0.31790  1.0000 0.1120680945
H   H18       1.0  0.24720  0.79140  0.81790  1.0000 0.1120680945
H   H19       1.0  0.02830  0.86090  0.39440  1.0000 0.1312940545
H   H20       1.0  0.13910  0.97170  0.89440  1.0000 0.1312940545
H   H21       1.0  0.85090  0.62910  0.43200  1.0000 0.1188454813
H   H22       1.0  0.37090  0.14910  0.93200  1.0000 0.1188454813
H   H23       1.0  0.73570  0.67010  0.19430  1.0000 0.1188454813
H   H24       1.0  0.32990  0.26430  0.69430  1.0000 0.1188454813
H   H25       1.0  0.94250  0.71950  0.94890  1.0000 0.1120680945
H   H26       1.0  0.28050  0.05750  0.44890  1.0000 0.1120680945
H   H27       1.0  0.05540  0.68500  0.18840  1.0000 0.1026736159
H   H28       1.0  0.31500  0.94460  0.68840  1.0000 0.1026736159
H   H29       1.0  0.78200  0.74500  0.79580  1.0000 0.1120680945
H   H30       1.0  0.25500  0.21800  0.29580  1.0000 0.1120680945
H   H31       1.0  0.63870  0.71090  0.96140  1.0000 0.1312940545
H   H32       1.0  0.28910  0.36130  0.46140  1.0000 0.1312940545
H   H33       1.0  0.50450  0.69050  0.79210  1.0000 0.1465405985
H   H34       1.0  0.30950  0.49550  0.29210  1.0000 0.1465405985
H   H35       1.0  0.39970  0.72530  0.54440  1.0000 0.1026736159
H   H36       1.0  0.27470  0.60030  0.04440  1.0000 0.1026736159
H   H37       1.0  0.55620  0.84540  0.32990  1.0000 0.1188454813
H   H38       1.0  0.15460  0.44380  0.82990  1.0000 0.1188454813
H   H39       1.0  0.66890  0.81070  0.57030  1.0000 0.1368065789
H   H40       1.0  0.18930  0.33110  0.07030  1.0000 0.1368065789
C   C1        1.0  0.40650  0.47110  0.63330  1.0000 0.5452289
C   C2        1.0  0.52890  0.59350  0.13330  1.0000 0.5452289
C   C3        1.0  0.52070  0.39970  0.58170  1.0000 -0.0390437976
C   C4        1.0  0.60030  0.47930  0.08170  1.0000 -0.0390437976
C   C5        1.0  0.58570  0.44350  0.55280  1.0000 -0.0928507768
C   C6        1.0  0.55650  0.41430  0.05280  1.0000 -0.0928507768
C   C7        1.0  0.69150  0.37370  0.49770  1.0000 -0.1548280254
C   C8        1.0  0.62630  0.30850  0.99770  1.0000 -0.1548280254
C   C9        1.0  0.73340  0.26220  0.47850  1.0000 0.1188454813
C   C10       1.0  0.73780  0.26660  0.97850  1.0000 0.1188454813
C   C11       1.0  0.66560  0.22060  0.50930  1.0000 -0.1568237081
C   C12       1.0  0.77940  0.33440  0.00930  1.0000 -0.1568237081
C   C13       1.0  0.56150  0.28850  0.56100  1.0000 -0.1028617755
C   C14       1.0  0.71150  0.43850  0.06100  1.0000 -0.1028617755
C   C15       1.0  0.84390  0.19150  0.42020  1.0000 -0.1231805146
C   C16       1.0  0.80850  0.15610  0.92020  1.0000 -0.1231805146
C   C17       1.0  0.89790  0.08270  0.40380  1.0000 -0.1568237081
C   C18       1.0  0.91730  0.10210  0.90380  1.0000 -0.1568237081
C   C19       1.0  0.00840  0.01360  0.34840  1.0000 0.1642781436
C   C20       1.0  0.98640  0.99160  0.84840  1.0000 0.1642781436
C   C21       1.0  0.06500  0.06140  0.28430  1.0000 -0.1983955786
C   C22       1.0  0.93860  0.93500  0.78430  1.0000 -0.1983955786
C   C23       1.0  0.17070  0.99190  0.23940  1.0000 0.0686746701
C   C24       1.0  0.00810  0.82930  0.73940  1.0000 0.0686746701
C   C25       1.0  0.17180  0.83300  0.30970  1.0000 0.0785233244
C   C26       1.0  0.16700  0.82820  0.80970  1.0000 0.0785233244
C   C27       1.0  0.06370  0.89730  0.35670  1.0000 -0.1983955786
C   C28       1.0  0.10270  0.93630  0.85670  1.0000 -0.1983955786
C   C29       1.0  0.03720  0.63120  0.49180  1.0000 0.5393885985
C   C30       1.0  0.36880  0.96280  0.99180  1.0000 0.5393885985
C   C31       1.0  0.96380  0.65540  0.33670  1.0000 -0.0302824755
C   C32       1.0  0.34460  0.03620  0.83670  1.0000 -0.0302824755
C   C33       1.0  0.86890  0.64950  0.33400  1.0000 -0.1028617755
C   C34       1.0  0.35050  0.13110  0.83400  1.0000 -0.1028617755
C   C35       1.0  0.80110  0.67270  0.19260  1.0000 -0.1391747728
C   C36       1.0  0.32730  0.19890  0.69260  1.0000 -0.1391747728
C   C37       1.0  0.82640  0.70000  0.04650  1.0000 0.1312940545
C   C38       1.0  0.30000  0.17360  0.54650  1.0000 0.1312940545
C   C39       1.0  0.92280  0.70280  0.04780  1.0000 -0.1568237081
C   C40       1.0  0.29720  0.07720  0.54780  1.0000 -0.1568237081
C   C41       1.0  0.99030  0.68170  0.19000  1.0000 -0.1105948523
C   C42       1.0  0.31830  0.00970  0.69000  1.0000 -0.1105948523
C   C43       1.0  0.75760  0.72660  0.88850  1.0000 -0.1275570229
C   C44       1.0  0.27340  0.24240  0.38850  1.0000 -0.1275570229
C   C45       1.0  0.66460  0.72640  0.86810  1.0000 -0.1391747728
C   C46       1.0  0.27360  0.33540  0.36810  1.0000 -0.1391747728
C   C47       1.0  0.59740  0.74900  0.70850  1.0000 0.1691764086
C   C48       1.0  0.25100  0.40260  0.20850  1.0000 0.1691764086
C   C49       1.0  0.51690  0.72230  0.69900  1.0000 -0.184045358
C   C50       1.0  0.27770  0.48310  0.19900  1.0000 -0.184045358
C   C51       1.0  0.45520  0.74320  0.55030  1.0000 0.0785233244
C   C52       1.0  0.25680  0.54480  0.05030  1.0000 0.0785233244
C   C53       1.0  0.54640  0.81280  0.42490  1.0000 0.1026736159
C   C54       1.0  0.18720  0.45360  0.92490  1.0000 0.1026736159
C   C55       1.0  0.61290  0.79350  0.56820  1.0000 -0.1946110711
C   C56       1.0  0.20650  0.38710  0.06820  1.0000 -0.1946110711
N   N1        1.0  0.22640  0.87860  0.25330  1.0000 -0.2457841024
N   N2        1.0  0.12140  0.77360  0.75330  1.0000 -0.2457841024
N   N3        1.0  0.46860  0.78660  0.41610  1.0000 -0.2320886538
N   N4        1.0  0.21340  0.53140  0.91610  1.0000 -0.2320886538
O   O1        1.0  0.36469  0.57569  0.65280  1.0000 -0.5510749206
O   O2        1.0  0.42431  0.63531  0.15280  1.0000 -0.5510749206
O   O3        1.0  0.34825  0.43085  0.65720  1.0000 -0.5432259128
O   O4        1.0  0.56915  0.65175  0.15720  1.0000 -0.5432259128
O   O5        1.0  0.11920  0.64260  0.48540  1.0000 -0.5432259128
O   O6        1.0  0.35740  0.88080  0.98540  1.0000 -0.5432259128
O   O7        1.0  0.01310  0.60470  0.62120  1.0000 -0.575456439
O   O8        1.0  0.39530  0.98690  0.12120  1.0000 -0.575456439
