# DDEC6 charges by PACMAN v1.1 (https://github.com/mtap-research/PACMAN-charge/)
data_2014[Zn][dia]3[FSR]2
_chemical_formula_sum              "Zn4 H24 C32 S4 N16 O28"
_cell_length_a       11.318
_cell_length_b       9.601
_cell_length_c       17.6561
_cell_angle_alpha    90
_cell_angle_beta     127.774
_cell_angle_gamma    90

_symmetry_space_group_name_H-M    "P 1"
_symmetry_Int_Tables_number       1

loop_
  _symmetry_equiv_pos_as_xyz
  'x, y, z'

loop_
  _atom_site_type_symbol
  _atom_site_label
  _atom_site_symmetry_multiplicity
  _atom_site_fract_x
  _atom_site_fract_y
  _atom_site_fract_z
  _atom_site_occupancy
  _atom_site_charge
Zn  Zn1       1.0  0.90867  0.26543  0.65423  1.0000 0.7153565047
Zn  Zn2       1.0  0.09133  0.76543  0.84577  1.0000 0.7142820516
Zn  Zn3       1.0  0.09133  0.73457  0.34577  1.0000 0.7153565047
Zn  Zn4       1.0  0.90867  0.23457  0.15423  1.0000 0.7153565047
H   H1        1.0  0.38560  0.29760  0.36970  1.0000 0.2870993175
H   H2        1.0  0.61440  0.79760  0.13030  1.0000 0.2870993175
H   H3        1.0  0.61440  0.70240  0.63030  1.0000 0.2870993175
H   H4        1.0  0.38560  0.20240  0.86970  1.0000 0.2870993175
H   H5        1.0  0.11890  0.31440  0.48260  1.0000 0.2536503234
H   H6        1.0  0.88110  0.81440  0.01740  1.0000 0.2536503234
H   H7        1.0  0.88110  0.68560  0.51740  1.0000 0.2536503234
H   H8        1.0  0.11890  0.18560  0.98260  1.0000 0.2536503234
H   H9        1.0  0.92020  0.95640  0.59680  1.0000 0.111824124
H   H10       1.0  0.07980  0.45640  0.90320  1.0000 0.111824124
H   H11       1.0  0.07980  0.04360  0.40320  1.0000 0.111824124
H   H12       1.0  0.92020  0.54360  0.09680  1.0000 0.111824124
H   H13       1.0  0.07710  0.41920  0.58590  1.0000 0.0866926321
H   H14       1.0  0.92290  0.91920  0.91410  1.0000 0.0866926321
H   H15       1.0  0.92290  0.58080  0.41410  1.0000 0.0866926321
H   H16       1.0  0.07710  0.08080  0.08590  1.0000 0.0866926321
H   H17       1.0  0.62600  0.40030  0.47790  1.0000 0.0866926321
H   H18       1.0  0.37400  0.90030  0.02210  1.0000 0.0866926321
H   H19       1.0  0.37400  0.59970  0.52210  1.0000 0.0866926321
H   H20       1.0  0.62600  0.09970  0.97790  1.0000 0.0866926321
H   H21       1.0  0.25060  0.03990  0.35440  1.0000 0.111824124
H   H22       1.0  0.74940  0.53990  0.14560  1.0000 0.111824124
H   H23       1.0  0.74940  0.96010  0.64560  1.0000 0.111824124
H   H24       1.0  0.25060  0.46010  0.85440  1.0000 0.111824124
C   C1        1.0  0.95110  0.97390  0.55830  1.0000 -0.2899398944
C   C2        1.0  0.04890  0.47390  0.94170  1.0000 -0.2899398944
C   C3        1.0  0.04890  0.02610  0.44170  1.0000 -0.2899398944
C   C4        1.0  0.95110  0.52610  0.05830  1.0000 -0.2899398944
C   C5        1.0  0.99750  0.10520  0.55200  1.0000 0.1218137544
C   C6        1.0  0.00250  0.60520  0.94800  1.0000 0.1218137544
C   C7        1.0  0.00250  0.89480  0.44800  1.0000 0.1218137544
C   C8        1.0  0.99750  0.39480  0.05200  1.0000 0.1218137544
C   C9        1.0  0.04660  0.12860  0.49570  1.0000 0.1285922175
C   C10       1.0  0.95340  0.62860  0.00430  1.0000 0.1285922175
C   C11       1.0  0.95340  0.87140  0.50430  1.0000 0.1285922175
C   C12       1.0  0.04660  0.37140  0.99570  1.0000 0.1285922175
C   C13       1.0  0.05930  0.32430  0.56650  1.0000 0.1218137544
C   C14       1.0  0.94070  0.82430  0.93350  1.0000 0.1218137544
C   C15       1.0  0.94070  0.67570  0.43350  1.0000 0.1218137544
C   C16       1.0  0.05930  0.17570  0.06650  1.0000 0.1218137544
C   C17       1.0  0.60940  0.10040  0.53690  1.0000 0.1285922175
C   C18       1.0  0.39060  0.60040  0.96310  1.0000 0.1285922175
C   C19       1.0  0.39060  0.89960  0.46310  1.0000 0.1285922175
C   C20       1.0  0.60940  0.39960  0.03690  1.0000 0.1285922175
C   C21       1.0  0.46120  0.12170  0.45120  1.0000 0.1374507145
C   C22       1.0  0.53880  0.62170  0.04880  1.0000 0.1374507145
C   C23       1.0  0.53880  0.87830  0.54880  1.0000 0.1374507145
C   C24       1.0  0.46120  0.37830  0.95120  1.0000 0.1374507145
C   C25       1.0  0.59860  0.30960  0.48360  1.0000 0.1285922175
C   C26       1.0  0.40140  0.80960  0.01640  1.0000 0.1285922175
C   C27       1.0  0.40140  0.69040  0.51640  1.0000 0.1285922175
C   C28       1.0  0.59860  0.19040  0.98360  1.0000 0.1285922175
C   C29       1.0  0.34850  0.02390  0.41170  1.0000 -0.2899398944
C   C30       1.0  0.65150  0.52390  0.08830  1.0000 -0.2899398944
C   C31       1.0  0.65150  0.97610  0.58830  1.0000 -0.2899398944
C   C32       1.0  0.34850  0.47610  0.91170  1.0000 -0.2899398944
S   S1        1.0  0.88441  0.58173  0.67311  1.0000 0.8196058282
S   S2        1.0  0.11559  0.08173  0.82689  1.0000 0.8196058282
S   S3        1.0  0.11559  0.41827  0.32689  1.0000 0.8196058282
S   S4        1.0  0.88441  0.91827  0.17311  1.0000 0.8196058282
N   N1        1.0  0.69230  0.22180  0.55490  1.0000 -0.4223501376
N   N2        1.0  0.30770  0.72180  0.94510  1.0000 -0.4223501376
N   N3        1.0  0.30770  0.77820  0.44510  1.0000 -0.4223501376
N   N4        1.0  0.69230  0.27820  0.05490  1.0000 -0.4223501376
N   N5        1.0  0.46220  0.25560  0.42120  1.0000 -0.2544268063
N   N6        1.0  0.53780  0.75560  0.07880  1.0000 -0.2544268063
N   N7        1.0  0.53780  0.74440  0.57880  1.0000 -0.2544268063
N   N8        1.0  0.46220  0.24440  0.92120  1.0000 -0.2544268063
N   N9        1.0  0.00650  0.23050  0.59420  1.0000 -0.3986733995
N   N10       1.0  0.99350  0.73050  0.90580  1.0000 -0.3986733995
N   N11       1.0  0.99350  0.76950  0.40580  1.0000 -0.3986733995
N   N12       1.0  0.00650  0.26950  0.09420  1.0000 -0.3986733995
N   N13       1.0  0.08430  0.26930  0.50870  1.0000 -0.2717360994
N   N14       1.0  0.91570  0.76930  0.99130  1.0000 -0.2717360994
N   N15       1.0  0.91570  0.73070  0.49130  1.0000 -0.2717360994
N   N16       1.0  0.08430  0.23070  0.00870  1.0000 -0.2717360994
O   O1        1.0  0.98020  0.45250  0.71810  1.0000 -0.2271519332
O   O2        1.0  0.01980  0.95250  0.78190  1.0000 -0.2271519332
O   O3        1.0  0.01980  0.54750  0.28190  1.0000 -0.2271519332
O   O4        1.0  0.98020  0.04750  0.21810  1.0000 -0.2271519332
O   O5        1.0  0.80880  0.58350  0.57310  1.0000 -0.0633720561
O   O6        1.0  0.19120  0.08350  0.92690  1.0000 -0.0633720561
O   O7        1.0  0.19120  0.41650  0.42690  1.0000 -0.0633720561
O   O8        1.0  0.80880  0.91650  0.07310  1.0000 -0.0633720561
O   O9        1.0  0.78710  0.58050  0.69950  1.0000 -0.5486849538
O   O10       1.0  0.21290  0.08050  0.80050  1.0000 -0.5486849538
O   O11       1.0  0.21290  0.41950  0.30050  1.0000 -0.5486849538
O   O12       1.0  0.78710  0.91950  0.19950  1.0000 -0.5486849538
O   O13       1.0  0.99800  0.70010  0.72060  1.0000 -0.1061615377
O   O14       1.0  0.00200  0.20010  0.77940  1.0000 -0.1061615377
O   O15       1.0  0.00200  0.29990  0.27940  1.0000 -0.1061615377
O   O16       1.0  0.99800  0.79990  0.22060  1.0000 -0.1061615377
O   O17       1.0  0.87920  0.46430  0.61230  1.0000 -0.1519361801
O   O18       1.0  0.12080  0.96430  0.88770  1.0000 -0.1519361801
O   O19       1.0  0.12080  0.53570  0.38770  1.0000 -0.1519361801
O   O20       1.0  0.87920  0.03570  0.11230  1.0000 -0.1519361801
O   O21       1.0  0.82260  0.70550  0.60390  1.0000 -0.1638253174
O   O22       1.0  0.17740  0.20550  0.89610  1.0000 -0.1670269014
O   O23       1.0  0.17740  0.29450  0.39610  1.0000 -0.1670269014
O   O24       1.0  0.82260  0.79450  0.10390  1.0000 -0.1670269014
O   O25       1.0  0.03290  0.60420  0.75150  1.0000 -0.0487323507
O   O26       1.0  0.96710  0.10420  0.74850  1.0000 -0.0487323507
O   O27       1.0  0.96710  0.39580  0.24850  1.0000 -0.0487323507
O   O28       1.0  0.03290  0.89580  0.25150  1.0000 -0.0487323507
