# DDEC6 charges by PACMAN v1.1 (https://github.com/mtap-research/PACMAN-charge/)
data_2014[ErU][nan]3[FSR]1
_chemical_formula_sum              "Er2 U3 H26 C30 O40"
_cell_length_a       10.5136
_cell_length_b       11.465
_cell_length_c       13.4175
_cell_angle_alpha    69.084
_cell_angle_beta     78.607
_cell_angle_gamma    63.542

_symmetry_space_group_name_H-M    "P 1"
_symmetry_Int_Tables_number       1

loop_
  _symmetry_equiv_pos_as_xyz
  'x, y, z'

loop_
  _atom_site_type_symbol
  _atom_site_label
  _atom_site_symmetry_multiplicity
  _atom_site_fract_x
  _atom_site_fract_y
  _atom_site_fract_z
  _atom_site_occupancy
  _atom_site_charge
Er  Er1       1.0  0.59886  0.23045  0.75015  1.0000 2.1147032987
Er  Er2       1.0  0.40114  0.76955  0.24985  1.0000 2.1180287611
U   U1        1.0  0.62304  0.71343  0.83640  1.0000 2.3972002279
U   U2        1.0  0.37696  0.28657  0.16360  1.0000 2.3972002279
U   U3        1.0  0.00000  0.50000  0.50000  1.0000 2.3692268144
H   H1        1.0  0.52620  0.48580  0.57320  1.0000 0.386863203
H   H2        1.0  0.47380  0.51420  0.42680  1.0000 0.386863203
H   H3        1.0  0.68910  0.43050  0.58520  1.0000 0.4218130321
H   H4        1.0  0.31090  0.56950  0.41480  1.0000 0.4218130321
H   H5        1.0  0.35300  0.45330  0.63000  1.0000 0.4218130321
H   H6        1.0  0.64700  0.54670  0.37000  1.0000 0.4218130321
H   H7        1.0  0.29280  0.35370  0.71480  1.0000 0.4048730146
H   H8        1.0  0.70720  0.64630  0.28520  1.0000 0.4096089732
H   H9        1.0  0.43660  0.47830  0.81180  1.0000 0.437175886
H   H10       1.0  0.56340  0.52170  0.18820  1.0000 0.437175886
H   H11       1.0  0.58060  0.40800  0.86760  1.0000 0.437175886
H   H12       1.0  0.41940  0.59200  0.13240  1.0000 0.437175886
H   H13       1.0  0.73760  0.94430  0.86260  1.0000 0.4096089732
H   H14       1.0  0.26240  0.05570  0.13740  1.0000 0.4096089732
H   H15       1.0  0.84960  0.00420  0.84790  1.0000 0.4218130321
H   H16       1.0  0.15040  0.99580  0.15210  1.0000 0.4218130321
H   H17       1.0  0.66667  0.18110  0.54780  1.0000 0.4096089732
H   H18       1.0  0.33333  0.81890  0.45220  1.0000 0.4096089732
H   H19       1.0  0.80630  0.09440  0.60990  1.0000 0.4312702577
H   H20       1.0  0.19370  0.90560  0.39010  1.0000 0.4312702577
H   H21       1.0  0.09680  0.35860  0.95840  1.0000 0.1453232031
H   H22       1.0  0.90320  0.64140  0.04160  1.0000 0.1453232031
H   H23       1.0  0.15800  0.11260  0.73250  1.0000 0.1381834458
H   H24       1.0  0.84200  0.88740  0.26750  1.0000 0.1381834458
H   H25       1.0  0.71260  0.99850  0.41580  1.0000 0.1315169047
H   H26       1.0  0.28740  0.00150  0.58420  1.0000 0.1315169047
C   C1        1.0  0.99790  0.34350  0.85280  1.0000 -0.0315787862
C   C2        1.0  0.00210  0.65650  0.14720  1.0000 -0.0315787862
C   C3        1.0  0.11110  0.31290  0.90950  1.0000 -0.0974640835
C   C4        1.0  0.88890  0.68710  0.09050  1.0000 -0.0974640835
C   C5        1.0  0.24600  0.21510  0.89480  1.0000 -0.0934292514
C   C6        1.0  0.75400  0.78490  0.10520  1.0000 -0.0934292514
C   C7        1.0  0.26570  0.14130  0.82470  1.0000 -0.0442680202
C   C8        1.0  0.73430  0.85870  0.17530  1.0000 -0.0442680202
C   C9        1.0  0.14680  0.16610  0.77450  1.0000 -0.1508899618
C   C10       1.0  0.85320  0.83390  0.22550  1.0000 -0.1508899618
C   C11       1.0  0.01330  0.26730  0.78540  1.0000 -0.0244308631
C   C12       1.0  0.98670  0.73270  0.21460  1.0000 -0.0315787862
C   C13       1.0  0.62630  0.99940  0.45010  1.0000 -0.1267727453
C   C14       1.0  0.37370  0.00060  0.54990  1.0000 -0.1267727453
C   C15       1.0  0.61640  0.87590  0.50540  1.0000 -0.0244308631
C   C16       1.0  0.38360  0.12410  0.49460  1.0000 -0.0244308631
C   C17       1.0  0.48700  0.87620  0.55610  1.0000 -0.0592269737
C   C18       1.0  0.51300  0.12380  0.44390  1.0000 -0.0592269737
C   C19       1.0  0.86090  0.46180  0.85920  1.0000 0.5642399799
C   C20       1.0  0.13910  0.53820  0.14080  1.0000 0.5668393186
C   C21       1.0  0.36220  0.19440  0.95570  1.0000 0.6402013313
C   C22       1.0  0.63780  0.80560  0.04430  1.0000 0.6402013313
C   C23       1.0  0.40680  0.04160  0.79580  1.0000 0.6402013313
C   C24       1.0  0.59320  0.95840  0.20420  1.0000 0.6402013313
C   C25       1.0  0.89370  0.29120  0.72550  1.0000 0.6577971589
C   C26       1.0  0.10630  0.70880  0.27450  1.0000 0.6577971589
C   C27       1.0  0.46800  0.74750  0.62130  1.0000 0.6238256406
C   C28       1.0  0.53200  0.25250  0.37870  1.0000 0.6238256406
C   C29       1.0  0.74450  0.74540  0.50790  1.0000 0.5668393186
C   C30       1.0  0.25550  0.25460  0.49210  1.0000 0.5668393186
O   O1        1.0  0.53150  0.63400  0.94550  1.0000 -0.6739784468
O   O2        1.0  0.46850  0.36600  0.05450  1.0000 -0.6739784468
O   O3        1.0  0.71770  0.78840  0.73110  1.0000 -0.6595530499
O   O4        1.0  0.28230  0.21160  0.26890  1.0000 -0.6595530499
O   O5        1.0  0.06720  0.50020  0.60990  1.0000 -0.6595530499
O   O6        1.0  0.93280  0.49980  0.39010  1.0000 -0.6595530499
O   O7        1.0  0.84950  0.53740  0.91370  1.0000 -0.5782566357
O   O8        1.0  0.15050  0.46260  0.08630  1.0000 -0.5782566357
O   O9        1.0  0.76080  0.49640  0.80170  1.0000 -0.5668762613
O   O10       1.0  0.23920  0.50360  0.19830  1.0000 -0.5668762613
O   O11       1.0  0.81310  0.23570  0.77090  1.0000 -0.6263290235
O   O12       1.0  0.18690  0.76430  0.22910  1.0000 -0.6263290235
O   O13       1.0  0.88610  0.36360  0.62690  1.0000 -0.6016705025
O   O14       1.0  0.11390  0.63640  0.37310  1.0000 -0.6016705025
O   O15       1.0  0.41850  0.92000  0.81930  1.0000 -0.6114107657
O   O16       1.0  0.58150  0.08000  0.18070  1.0000 -0.6114107657
O   O17       1.0  0.50390  0.07840  0.75360  1.0000 -0.6387619961
O   O18       1.0  0.49610  0.92160  0.24640  1.0000 -0.6387619961
O   O19       1.0  0.48410  0.17690  0.91680  1.0000 -0.6263290235
O   O20       1.0  0.51590  0.82310  0.08320  1.0000 -0.6263290235
O   O21       1.0  0.32700  0.19710  0.05140  1.0000 -0.6263290235
O   O22       1.0  0.67300  0.80290  0.94860  1.0000 -0.6263290235
O   O23       1.0  0.50080  0.69390  0.71810  1.0000 -0.6114107657
O   O24       1.0  0.49920  0.30610  0.28190  1.0000 -0.6114107657
O   O25       1.0  0.40970  0.70160  0.58080  1.0000 -0.5363037575
O   O26       1.0  0.59030  0.29840  0.41920  1.0000 -0.5363037575
O   O27       1.0  0.73290  0.63400  0.53400  1.0000 -0.5668762613
O   O28       1.0  0.26710  0.36600  0.46600  1.0000 -0.5668762613
O   O29       1.0  0.86540  0.74960  0.47880  1.0000 -0.5782566357
O   O30       1.0  0.13460  0.25040  0.52120  1.0000 -0.5782566357
O   O31       1.0  0.60620  0.42180  0.60650  1.0000 -0.8374443937
O   O32       1.0  0.39380  0.57820  0.39350  1.0000 -0.8374443937
O   O33       1.0  0.36660  0.37610  0.68500  1.0000 -0.8308485139
O   O34       1.0  0.63340  0.62390  0.31500  1.0000 -0.8308485139
O   O35       1.0  0.52310  0.40890  0.82540  1.0000 -0.8374443937
O   O36       1.0  0.47690  0.59110  0.17460  1.0000 -0.8374443937
O   O37       1.0  0.76190  0.01600  0.83830  1.0000 -0.8374443937
O   O38       1.0  0.23810  0.98400  0.16170  1.0000 -0.8374443937
O   O39       1.0  0.71400  0.15300  0.60680  1.0000 -0.8308485139
O   O40       1.0  0.28600  0.84700  0.39320  1.0000 -0.8308485139
