# DDEC6 charges by PACMAN v1.1 (https://github.com/mtap-research/PACMAN-charge/)
data_2014[Cd][pts]3[FSR]2
_chemical_formula_sum              "Cd4 H112 C116 N16 O16"
_cell_length_a       11.0106
_cell_length_b       11.0106
_cell_length_c       24.062
_cell_angle_alpha    87.6354
_cell_angle_beta     92.3646
_cell_angle_gamma    78.7963

_symmetry_space_group_name_H-M    "P 1"
_symmetry_Int_Tables_number       1

loop_
  _symmetry_equiv_pos_as_xyz
  'x, y, z'

loop_
  _atom_site_type_symbol
  _atom_site_label
  _atom_site_symmetry_multiplicity
  _atom_site_fract_x
  _atom_site_fract_y
  _atom_site_fract_z
  _atom_site_occupancy
  _atom_site_charge
Cd  Cd1       1.0  0.50000  0.50000  0.00000  1.0000 0.8352701228
Cd  Cd2       1.0  0.50000  0.50000  0.50000  1.0000 0.8352701228
Cd  Cd3       1.0  0.94429  0.94429  0.25000  1.0000 0.8158824007
Cd  Cd4       1.0  0.05571  0.05571  0.75000  1.0000 0.8158824007
H   H1        1.0  0.78660  0.33640  0.02890  1.0000 0.1111771945
H   H2        1.0  0.33640  0.78660  0.47110  1.0000 0.1111771945
H   H3        1.0  0.21340  0.66360  0.97110  1.0000 0.1111771945
H   H4        1.0  0.66360  0.21340  0.52890  1.0000 0.1111771945
H   H5        1.0  0.64030  0.40570  0.87820  1.0000 0.1207162451
H   H6        1.0  0.40570  0.64030  0.62180  1.0000 0.1207162451
H   H7        1.0  0.35970  0.59430  0.12180  1.0000 0.1207162451
H   H8        1.0  0.59430  0.35970  0.37820  1.0000 0.1207162451
H   H9        1.0  0.84190  0.27470  0.87050  1.0000 0.1390210097
H   H10       1.0  0.27470  0.84190  0.62950  1.0000 0.1390210097
H   H11       1.0  0.15810  0.72530  0.12950  1.0000 0.1390210097
H   H12       1.0  0.72530  0.15810  0.37050  1.0000 0.1390210097
H   H13       1.0  0.98360  0.09060  0.90880  1.0000 0.1305178776
H   H14       1.0  0.09060  0.98360  0.59120  1.0000 0.1305178776
H   H15       1.0  0.01640  0.90940  0.09120  1.0000 0.1305178776
H   H16       1.0  0.90940  0.01640  0.40880  1.0000 0.1305178776
H   H17       1.0  0.17160  0.96380  0.93710  1.0000 0.1111771945
H   H18       1.0  0.96380  0.17160  0.56290  1.0000 0.1111771945
H   H19       1.0  0.82840  0.03620  0.06290  1.0000 0.1111771945
H   H20       1.0  0.03620  0.82840  0.43710  1.0000 0.1111771945
H   H21       1.0  0.00390  0.29470  0.04280  1.0000 0.1390210097
H   H22       1.0  0.29470  0.00390  0.45720  1.0000 0.1390210097
H   H23       1.0  0.99610  0.70530  0.95720  1.0000 0.1390210097
H   H24       1.0  0.70530  0.99610  0.54280  1.0000 0.1390210097
H   H25       1.0  0.39270  0.84890  0.98710  1.0000 0.1207162451
H   H26       1.0  0.84890  0.39270  0.51290  1.0000 0.1207162451
H   H27       1.0  0.60730  0.15110  0.01290  1.0000 0.1207162451
H   H28       1.0  0.15110  0.60730  0.48710  1.0000 0.1207162451
H   H29       1.0  0.57410  0.78810  0.04160  1.0000 0.1305178776
H   H30       1.0  0.78810  0.57410  0.45840  1.0000 0.1305178776
H   H31       1.0  0.42590  0.21190  0.95840  1.0000 0.1305178776
H   H32       1.0  0.21190  0.42590  0.54160  1.0000 0.1305178776
H   H33       1.0  0.46080  0.05700  0.14650  1.0000 0.1390210097
H   H34       1.0  0.05700  0.46080  0.35350  1.0000 0.1390210097
H   H35       1.0  0.53920  0.94300  0.85350  1.0000 0.1390210097
H   H36       1.0  0.94300  0.53920  0.64650  1.0000 0.1390210097
H   H37       1.0  0.20720  0.35040  0.09360  1.0000 0.1305178776
H   H38       1.0  0.35040  0.20720  0.40640  1.0000 0.1305178776
H   H39       1.0  0.79280  0.64960  0.90640  1.0000 0.1305178776
H   H40       1.0  0.64960  0.79280  0.59360  1.0000 0.1305178776
H   H41       1.0  0.33920  0.28340  0.11720  1.0000 0.1390210097
H   H42       1.0  0.28340  0.33920  0.38280  1.0000 0.1390210097
H   H43       1.0  0.66080  0.71660  0.88280  1.0000 0.1390210097
H   H44       1.0  0.71660  0.66080  0.61720  1.0000 0.1390210097
H   H45       1.0  0.30970  0.29850  0.05270  1.0000 0.1305178776
H   H46       1.0  0.29850  0.30970  0.44730  1.0000 0.1305178776
H   H47       1.0  0.69030  0.70150  0.94730  1.0000 0.1305178776
H   H48       1.0  0.70150  0.69030  0.55270  1.0000 0.1305178776
H   H49       1.0  0.10310  0.20790  0.14820  1.0000 0.1390210097
H   H50       1.0  0.20790  0.10310  0.35180  1.0000 0.1390210097
H   H51       1.0  0.89690  0.79210  0.85180  1.0000 0.1390210097
H   H52       1.0  0.79210  0.89690  0.64820  1.0000 0.1390210097
H   H53       1.0  0.13740  0.06440  0.14160  1.0000 0.1305178776
H   H54       1.0  0.06440  0.13740  0.35840  1.0000 0.1305178776
H   H55       1.0  0.86260  0.93560  0.85840  1.0000 0.1305178776
H   H56       1.0  0.93560  0.86260  0.64160  1.0000 0.1305178776
H   H57       1.0  0.22860  0.13140  0.17470  1.0000 0.1305178776
H   H58       1.0  0.13140  0.22860  0.32530  1.0000 0.1305178776
H   H59       1.0  0.77140  0.86860  0.82530  1.0000 0.1305178776
H   H60       1.0  0.86860  0.77140  0.67470  1.0000 0.1305178776
H   H61       1.0  0.67780  0.03520  0.16640  1.0000 0.1207162451
H   H62       1.0  0.03520  0.67780  0.33360  1.0000 0.1207162451
H   H63       1.0  0.32220  0.96480  0.83360  1.0000 0.1207162451
H   H64       1.0  0.96480  0.32220  0.66640  1.0000 0.1207162451
H   H65       1.0  0.70740  0.69260  0.11740  1.0000 0.1390210097
H   H66       1.0  0.69260  0.70740  0.38260  1.0000 0.1390210097
H   H67       1.0  0.29260  0.30740  0.88260  1.0000 0.1390210097
H   H68       1.0  0.30740  0.29260  0.61740  1.0000 0.1390210097
H   H69       1.0  0.88780  0.70540  0.17760  1.0000 0.1305178776
H   H70       1.0  0.70540  0.88780  0.32240  1.0000 0.1305178776
H   H71       1.0  0.11220  0.29460  0.82240  1.0000 0.1305178776
H   H72       1.0  0.29460  0.11220  0.67760  1.0000 0.1305178776
H   H73       1.0  0.34120  0.82680  0.19770  1.0000 0.0996510238
H   H74       1.0  0.82680  0.34120  0.30230  1.0000 0.0996510238
H   H75       1.0  0.65880  0.17320  0.80230  1.0000 0.0996510238
H   H76       1.0  0.17320  0.65880  0.69770  1.0000 0.0996510238
H   H77       1.0  0.29690  0.62790  0.21710  1.0000 0.0996510238
H   H78       1.0  0.62790  0.29690  0.28290  1.0000 0.0996510238
H   H79       1.0  0.70310  0.37210  0.78290  1.0000 0.0996510238
H   H80       1.0  0.37210  0.70310  0.71710  1.0000 0.0996510238
H   H81       1.0  0.43790  0.63270  0.22560  1.0000 0.0996510238
H   H82       1.0  0.63270  0.43790  0.27440  1.0000 0.0996510238
H   H83       1.0  0.56210  0.36730  0.77440  1.0000 0.0996510238
H   H84       1.0  0.36730  0.56210  0.72560  1.0000 0.0996510238
H   H85       1.0  0.38050  0.51950  0.30100  1.0000 0.0996510238
H   H86       1.0  0.51950  0.38050  0.19900  1.0000 0.0996510238
H   H87       1.0  0.61950  0.48050  0.69900  1.0000 0.0996510238
H   H88       1.0  0.48050  0.61950  0.80100  1.0000 0.0996510238
H   H89       1.0  0.27330  0.63030  0.31320  1.0000 0.0996510238
H   H90       1.0  0.63030  0.27330  0.18680  1.0000 0.0996510238
H   H91       1.0  0.72670  0.36970  0.68680  1.0000 0.0996510238
H   H92       1.0  0.36970  0.72670  0.81320  1.0000 0.0996510238
H   H93       1.0  0.52750  0.63850  0.32250  1.0000 0.0996510238
H   H94       1.0  0.63850  0.52750  0.17750  1.0000 0.0996510238
H   H95       1.0  0.47250  0.36150  0.67750  1.0000 0.0996510238
H   H96       1.0  0.36150  0.47250  0.82250  1.0000 0.0996510238
H   H97       1.0  0.47220  0.83500  0.35720  1.0000 0.0996510238
H   H98       1.0  0.83500  0.47220  0.14280  1.0000 0.0996510238
H   H99       1.0  0.52780  0.16500  0.64280  1.0000 0.0996510238
H   H100      1.0  0.16500  0.52780  0.85720  1.0000 0.0996510238
H   H101      1.0  0.33120  0.82920  0.35000  1.0000 0.1111771945
H   H102      1.0  0.82920  0.33120  0.15000  1.0000 0.1111771945
H   H103      1.0  0.66880  0.17080  0.65000  1.0000 0.1111771945
H   H104      1.0  0.17080  0.66880  0.85000  1.0000 0.1111771945
H   H105      1.0  0.49180  0.83860  0.26170  1.0000 0.090779883
H   H106      1.0  0.83860  0.49180  0.23830  1.0000 0.090779883
H   H107      1.0  0.50820  0.16140  0.73830  1.0000 0.090779883
H   H108      1.0  0.16140  0.50820  0.76170  1.0000 0.090779883
H   H109      1.0  0.38030  0.94430  0.27420  1.0000 0.1111771945
H   H110      1.0  0.94430  0.38030  0.22580  1.0000 0.1111771945
H   H111      1.0  0.61970  0.05570  0.72580  1.0000 0.1111771945
H   H112      1.0  0.05570  0.61970  0.77420  1.0000 0.1111771945
C   C1        1.0  0.77490  0.33750  0.99032  1.0000 0.090779883
C   C2        1.0  0.33750  0.77490  0.50968  1.0000 0.090779883
C   C3        1.0  0.22510  0.66250  0.00968  1.0000 0.090779883
C   C4        1.0  0.66250  0.22510  0.49032  1.0000 0.090779883
C   C5        1.0  0.69570  0.37490  0.90801  1.0000 -0.0316652947
C   C6        1.0  0.37490  0.69570  0.59199  1.0000 -0.0316652947
C   C7        1.0  0.30430  0.62510  0.09199  1.0000 -0.0316652947
C   C8        1.0  0.62510  0.30430  0.40801  1.0000 -0.0316652947
C   C9        1.0  0.80670  0.30270  0.90320  1.0000 -0.1080832601
C   C10       1.0  0.30270  0.80670  0.59680  1.0000 -0.1080832601
C   C11       1.0  0.19330  0.69730  0.09680  1.0000 -0.1080832601
C   C12       1.0  0.69730  0.19330  0.40320  1.0000 -0.1080832601
C   C13       1.0  0.97623  0.20223  0.97359  1.0000 0.1483200725
C   C14       1.0  0.20223  0.97623  0.52641  1.0000 0.1483200725
C   C15       1.0  0.02377  0.79777  0.02641  1.0000 0.1483200725
C   C16       1.0  0.79777  0.02377  0.47359  1.0000 0.1483200725
C   C17       1.0  0.02568  0.10508  0.94142  1.0000 -0.181066361
C   C18       1.0  0.10508  0.02568  0.55858  1.0000 -0.181066361
C   C19       1.0  0.97432  0.89492  0.05858  1.0000 -0.181066361
C   C20       1.0  0.89492  0.97432  0.44142  1.0000 -0.181066361
C   C21       1.0  0.13802  0.02982  0.95819  1.0000 -0.128962918
C   C22       1.0  0.02982  0.13802  0.54181  1.0000 -0.128962918
C   C23       1.0  0.86198  0.97018  0.04181  1.0000 -0.128962918
C   C24       1.0  0.97018  0.86198  0.45819  1.0000 -0.128962918
C   C25       1.0  0.20010  0.05310  0.00643  1.0000 0.0064633771
C   C26       1.0  0.05310  0.20010  0.49357  1.0000 0.0064633771
C   C27       1.0  0.79990  0.94690  0.99357  1.0000 0.0064633771
C   C28       1.0  0.94690  0.79990  0.50643  1.0000 0.0064633771
C   C29       1.0  0.14942  0.15182  0.03827  1.0000 0.0372227683
C   C30       1.0  0.15182  0.14942  0.46173  1.0000 0.0372227683
C   C31       1.0  0.85058  0.84818  0.96173  1.0000 0.0372227683
C   C32       1.0  0.84818  0.85058  0.53827  1.0000 0.0372227683
C   C33       1.0  0.03730  0.22810  0.02195  1.0000 -0.2372124985
C   C34       1.0  0.22810  0.03730  0.47805  1.0000 -0.2372124985
C   C35       1.0  0.96270  0.77190  0.97805  1.0000 -0.2372124985
C   C36       1.0  0.77190  0.96270  0.52195  1.0000 -0.2372124985
C   C37       1.0  0.23387  0.16127  0.08958  1.0000 0.1796486686
C   C38       1.0  0.16127  0.23387  0.41042  1.0000 0.1796486686
C   C39       1.0  0.76613  0.83873  0.91042  1.0000 0.1796486686
C   C40       1.0  0.83873  0.76613  0.58958  1.0000 0.1796486686
C   C41       1.0  0.34009  0.05429  0.08119  1.0000 0.0372227683
C   C42       1.0  0.05429  0.34009  0.41881  1.0000 0.0372227683
C   C43       1.0  0.65991  0.94571  0.91881  1.0000 0.0372227683
C   C44       1.0  0.94571  0.65991  0.58119  1.0000 0.0372227683
C   C45       1.0  0.32032  0.99112  0.03339  1.0000 0.0064633771
C   C46       1.0  0.99112  0.32032  0.46661  1.0000 0.0064633771
C   C47       1.0  0.67968  0.00888  0.96661  1.0000 0.0064633771
C   C48       1.0  0.00888  0.67968  0.53339  1.0000 0.0064633771
C   C49       1.0  0.40683  0.89123  0.01864  1.0000 -0.128962918
C   C50       1.0  0.89123  0.40683  0.48136  1.0000 -0.128962918
C   C51       1.0  0.59317  0.10877  0.98136  1.0000 -0.128962918
C   C52       1.0  0.10877  0.59317  0.51864  1.0000 -0.128962918
C   C53       1.0  0.51458  0.85498  0.05121  1.0000 -0.1696972762
C   C54       1.0  0.85498  0.51458  0.44879  1.0000 -0.1696972762
C   C55       1.0  0.48542  0.14502  0.94879  1.0000 -0.1696972762
C   C56       1.0  0.14502  0.48542  0.55121  1.0000 -0.1696972762
C   C57       1.0  0.53456  0.91796  0.09829  1.0000 0.1390210097
C   C58       1.0  0.91796  0.53456  0.40171  1.0000 0.1390210097
C   C59       1.0  0.46544  0.08204  0.90171  1.0000 0.1390210097
C   C60       1.0  0.08204  0.46544  0.59829  1.0000 0.1390210097
C   C61       1.0  0.44741  0.01681  0.11426  1.0000 -0.2372124985
C   C62       1.0  0.01681  0.44741  0.38574  1.0000 -0.2372124985
C   C63       1.0  0.55259  0.98319  0.88574  1.0000 -0.2372124985
C   C64       1.0  0.98319  0.55259  0.61426  1.0000 -0.2372124985
C   C65       1.0  0.27640  0.28480  0.08815  1.0000 -0.4618731205
C   C66       1.0  0.28480  0.27640  0.41185  1.0000 -0.4618731205
C   C67       1.0  0.72360  0.71520  0.91185  1.0000 -0.4618731205
C   C68       1.0  0.71520  0.72360  0.58815  1.0000 -0.4618731205
C   C69       1.0  0.16970  0.13910  0.14360  1.0000 -0.4618731205
C   C70       1.0  0.13910  0.16970  0.35640  1.0000 -0.4618731205
C   C71       1.0  0.83030  0.86090  0.85640  1.0000 -0.4618731205
C   C72       1.0  0.86090  0.83030  0.64360  1.0000 -0.4618731205
C   C73       1.0  0.70783  0.95143  0.16195  1.0000 0.090779883
C   C74       1.0  0.95143  0.70783  0.33805  1.0000 0.090779883
C   C75       1.0  0.29217  0.04857  0.83805  1.0000 0.090779883
C   C76       1.0  0.04857  0.29217  0.66195  1.0000 0.090779883
C   C77       1.0  0.72290  0.76270  0.13445  1.0000 -0.1041439165
C   C78       1.0  0.76270  0.72290  0.36555  1.0000 -0.1041439165
C   C79       1.0  0.27710  0.23730  0.86555  1.0000 -0.1041439165
C   C80       1.0  0.23730  0.27710  0.63445  1.0000 -0.1041439165
C   C81       1.0  0.82220  0.77080  0.16784  1.0000 -0.0388772654
C   C82       1.0  0.77080  0.82220  0.33216  1.0000 -0.0388772654
C   C83       1.0  0.17780  0.22920  0.83216  1.0000 -0.0388772654
C   C84       1.0  0.22920  0.17780  0.66784  1.0000 -0.0388772654
C   C85       1.0  0.18620  0.84820  0.24314  1.0000 0.534917907
C   C86       1.0  0.84820  0.18620  0.25686  1.0000 0.5373817445
C   C87       1.0  0.81380  0.15180  0.75686  1.0000 0.5373817445
C   C88       1.0  0.15180  0.81380  0.74314  1.0000 0.534917907
C   C89       1.0  0.32450  0.80090  0.23566  1.0000 -0.1080832601
C   C90       1.0  0.80090  0.32450  0.26434  1.0000 -0.1080832601
C   C91       1.0  0.67550  0.19910  0.76434  1.0000 -0.1080832601
C   C92       1.0  0.19910  0.67550  0.73566  1.0000 -0.1080832601
C   C93       1.0  0.35660  0.66040  0.23994  1.0000 -0.188835134
C   C94       1.0  0.66040  0.35660  0.26006  1.0000 -0.188835134
C   C95       1.0  0.64340  0.33960  0.76006  1.0000 -0.188835134
C   C96       1.0  0.33960  0.64340  0.73994  1.0000 -0.188835134
C   C97       1.0  0.35640  0.60900  0.29987  1.0000 -0.181066361
C   C98       1.0  0.60900  0.35640  0.20013  1.0000 -0.181066361
C   C99       1.0  0.64360  0.39100  0.70013  1.0000 -0.181066361
C   C100      1.0  0.39100  0.64360  0.79987  1.0000 -0.181066361
C   C101      1.0  0.44510  0.66150  0.33735  1.0000 -0.1207445998
C   C102      1.0  0.66150  0.44510  0.16265  1.0000 -0.1207445998
C   C103      1.0  0.55490  0.33850  0.66265  1.0000 -0.1207445998
C   C104      1.0  0.33850  0.55490  0.83735  1.0000 -0.1207445998
C   C105      1.0  0.41160  0.80280  0.33472  1.0000 -0.181066361
C   C106      1.0  0.80280  0.41160  0.16528  1.0000 -0.188835134
C   C107      1.0  0.58840  0.19720  0.66528  1.0000 -0.181066361
C   C108      1.0  0.19720  0.58840  0.83472  1.0000 -0.181066361
C   C109      1.0  0.40830  0.85510  0.27488  1.0000 -0.181066361
C   C110      1.0  0.85510  0.40830  0.22512  1.0000 -0.181066361
C   C111      1.0  0.59170  0.14490  0.72512  1.0000 -0.181066361
C   C112      1.0  0.14490  0.59170  0.77488  1.0000 -0.181066361
C   C113      1.0  0.45501  0.60959  0.39694  1.0000 0.5373817445
C   C114      1.0  0.60959  0.45501  0.10306  1.0000 0.5373817445
C   C115      1.0  0.54499  0.39041  0.60306  1.0000 0.5373817445
C   C116      1.0  0.39041  0.54499  0.89694  1.0000 0.5373817445
N   N1        1.0  0.67416  0.39758  0.96237  1.0000 -0.2843199213
N   N2        1.0  0.39758  0.67416  0.53763  1.0000 -0.2843199213
N   N3        1.0  0.32584  0.60242  0.03763  1.0000 -0.2843199213
N   N4        1.0  0.60242  0.32584  0.46237  1.0000 -0.2843199213
N   N5        1.0  0.85856  0.27812  0.95669  1.0000 0.0020656016
N   N6        1.0  0.27812  0.85856  0.54331  1.0000 0.0020656016
N   N7        1.0  0.14144  0.72188  0.04331  1.0000 0.0020656016
N   N8        1.0  0.72188  0.14144  0.45669  1.0000 0.0020656016
N   N9        1.0  0.64932  0.87952  0.13065  1.0000 0.0020656016
N   N10       1.0  0.87952  0.64932  0.36935  1.0000 0.0020656016
N   N11       1.0  0.35068  0.12048  0.86935  1.0000 0.0020656016
N   N12       1.0  0.12048  0.35068  0.63065  1.0000 0.0020656016
N   N13       1.0  0.81275  0.88877  0.18539  1.0000 -0.2904023964
N   N14       1.0  0.88877  0.81275  0.31461  1.0000 -0.2904023964
N   N15       1.0  0.18725  0.11123  0.81461  1.0000 -0.2904023964
N   N16       1.0  0.11123  0.18725  0.68539  1.0000 -0.2904023964
O   O1        1.0  0.54928  0.62060  0.42660  1.0000 -0.5695367296
O   O2        1.0  0.62060  0.54928  0.07340  1.0000 -0.5695367296
O   O3        1.0  0.45072  0.37940  0.57340  1.0000 -0.5695367296
O   O4        1.0  0.37940  0.45072  0.92660  1.0000 -0.5695367296
O   O5        1.0  0.37265  0.55835  0.41545  1.0000 -0.543610229
O   O6        1.0  0.55835  0.37265  0.08455  1.0000 -0.543610229
O   O7        1.0  0.62735  0.44165  0.58455  1.0000 -0.543610229
O   O8        1.0  0.44165  0.62735  0.91545  1.0000 -0.543610229
O   O9        1.0  0.10990  0.80850  0.21257  1.0000 -0.548956259
O   O10       1.0  0.80850  0.10990  0.28743  1.0000 -0.548956259
O   O11       1.0  0.89010  0.19150  0.78743  1.0000 -0.548956259
O   O12       1.0  0.19150  0.89010  0.71257  1.0000 -0.548956259
O   O13       1.0  0.15097  0.92287  0.27764  1.0000 -0.4928463538
O   O14       1.0  0.92287  0.15097  0.22236  1.0000 -0.4928463538
O   O15       1.0  0.84903  0.07713  0.72236  1.0000 -0.4928463538
O   O16       1.0  0.07713  0.84903  0.77764  1.0000 -0.4928463538
