# DDEC6 charges by PACMAN v1.1 (https://github.com/mtap-research/PACMAN-charge/)
data_2014[Tb][mog]3[FSR]1
_chemical_formula_sum              "Tb4 H112 C114 N4 O34"
_cell_length_a       13.0022
_cell_length_b       13.3793
_cell_length_c       25.8929
_cell_angle_alpha    95.94
_cell_angle_beta     88.104
_cell_angle_gamma    113.639

_symmetry_space_group_name_H-M    "P 1"
_symmetry_Int_Tables_number       1

loop_
  _symmetry_equiv_pos_as_xyz
  'x, y, z'

loop_
  _atom_site_type_symbol
  _atom_site_label
  _atom_site_symmetry_multiplicity
  _atom_site_fract_x
  _atom_site_fract_y
  _atom_site_fract_z
  _atom_site_occupancy
  _atom_site_charge
Tb  Tb1       1.0  0.37484  0.30672  0.49418  1.0000 2.0704501308
Tb  Tb2       1.0  0.62516  0.69328  0.50582  1.0000 2.0704501308
Tb  Tb3       1.0  0.15788  0.62555  0.95701  1.0000 2.0074078478
Tb  Tb4       1.0  0.84212  0.37445  0.04299  1.0000 2.0074078478
H   H1        1.0  0.17660  0.89380  0.83490  1.0000 0.1390501122
H   H2        1.0  0.82340  0.10620  0.16510  1.0000 0.1390501122
H   H3        1.0  0.24170  0.63640  0.77110  1.0000 0.1200378223
H   H4        1.0  0.75830  0.36360  0.22890  1.0000 0.1200378223
H   H5        1.0  0.28730  0.71420  0.69270  1.0000 0.1303403633
H   H6        1.0  0.71270  0.28580  0.30730  1.0000 0.1303403633
H   H7        1.0  0.26790  0.10190  0.81530  1.0000 0.1390501122
H   H8        1.0  0.73210  0.89810  0.18470  1.0000 0.1390501122
H   H9        1.0  0.29210  0.17410  0.76880  1.0000 0.1303403633
H   H10       1.0  0.70790  0.82590  0.23120  1.0000 0.1303403633
H   H11       1.0  0.37030  0.11430  0.77900  1.0000 0.1303403633
H   H12       1.0  0.62970  0.88570  0.22100  1.0000 0.1303403633
H   H13       1.0  0.05160  0.93710  0.72430  1.0000 0.1390501122
H   H14       1.0  0.94840  0.06290  0.27570  1.0000 0.1390501122
H   H15       1.0  0.09570  0.06510  0.73420  1.0000 0.1303403633
H   H16       1.0  0.90430  0.93490  0.26580  1.0000 0.1303403633
H   H17       1.0  0.07060  0.99400  0.78130  1.0000 0.1390501122
H   H18       1.0  0.92940  0.00600  0.21870  1.0000 0.1390501122
H   H19       1.0  0.34200  0.84160  0.61520  1.0000 0.1303403633
H   H20       1.0  0.65800  0.15840  0.38480  1.0000 0.1303403633
H   H21       1.0  0.37190  0.97480  0.55780  1.0000 0.1303403633
H   H22       1.0  0.62810  0.02520  0.44220  1.0000 0.1303403633
H   H23       1.0  0.26150  0.14940  0.66470  1.0000 0.1303403633
H   H24       1.0  0.73850  0.85060  0.33530  1.0000 0.1303403633
H   H25       1.0  0.49890  0.16430  0.28370  1.0000 0.1303403633
H   H26       1.0  0.50110  0.83570  0.71630  1.0000 0.1303403633
H   H27       1.0  0.20580  0.09190  0.35890  1.0000 0.1200378223
H   H28       1.0  0.79420  0.90810  0.64110  1.0000 0.1200378223
H   H29       1.0  0.10700  0.99490  0.28410  1.0000 0.1200378223
H   H30       1.0  0.89300  0.00510  0.71590  1.0000 0.1200378223
H   H31       1.0  0.44210  0.91870  0.20920  1.0000 0.1303403633
H   H32       1.0  0.55790  0.08130  0.79080  1.0000 0.1303403633
H   H33       1.0  0.54800  0.03000  0.21510  1.0000 0.1303403633
H   H34       1.0  0.45200  0.97000  0.78490  1.0000 0.1303403633
H   H35       1.0  0.51010  0.96660  0.16000  1.0000 0.1390501122
H   H36       1.0  0.48990  0.03340  0.84000  1.0000 0.1303403633
H   H37       1.0  0.50130  0.13290  0.12780  1.0000 0.1390501122
H   H38       1.0  0.49870  0.86710  0.87220  1.0000 0.1390501122
H   H39       1.0  0.53640  0.19960  0.18240  1.0000 0.1303403633
H   H40       1.0  0.46360  0.80040  0.81760  1.0000 0.1303403633
H   H41       1.0  0.42500  0.18730  0.15560  1.0000 0.1303403633
H   H42       1.0  0.57500  0.81270  0.84440  1.0000 0.1303403633
H   H43       1.0  0.03640  0.89670  0.18530  1.0000 0.1200378223
H   H44       1.0  0.96360  0.10330  0.81470  1.0000 0.1200378223
H   H45       1.0  0.35510  0.92660  0.08860  1.0000 0.1390501122
H   H46       1.0  0.64490  0.07340  0.91140  1.0000 0.1390501122
H   H47       1.0  0.01890  0.80860  0.10220  1.0000 0.1200378223
H   H48       1.0  0.98110  0.19140  0.89780  1.0000 0.1200378223
H   H49       1.0  0.09470  0.37530  0.14840  1.0000 0.1390501122
H   H50       1.0  0.90530  0.62470  0.85160  1.0000 0.1390501122
H   H51       1.0  0.30660  0.66650  0.10500  1.0000 0.1303403633
H   H52       1.0  0.69340  0.33350  0.89500  1.0000 0.1303403633
H   H53       1.0  0.40870  0.70310  0.18150  1.0000 0.1200378223
H   H54       1.0  0.59130  0.29690  0.81850  1.0000 0.1200378223
H   H55       1.0  0.07770  0.40390  0.28150  1.0000 0.1390501122
H   H56       1.0  0.92230  0.59610  0.71850  1.0000 0.1390501122
H   H57       1.0  0.08610  0.29410  0.29200  1.0000 0.1303403633
H   H58       1.0  0.91390  0.70590  0.70800  1.0000 0.1303403633
H   H59       1.0  0.03580  0.30290  0.23930  1.0000 0.1303403633
H   H60       1.0  0.96420  0.69710  0.76070  1.0000 0.1303403633
H   H61       1.0  0.18660  0.24670  0.19330  1.0000 0.1303403633
H   H62       1.0  0.81340  0.75330  0.80670  1.0000 0.1303403633
H   H63       1.0  0.22620  0.24070  0.24900  1.0000 0.1303403633
H   H64       1.0  0.77380  0.75930  0.75100  1.0000 0.1303403633
H   H65       1.0  0.31210  0.31410  0.21050  1.0000 0.1303403633
H   H66       1.0  0.68790  0.68590  0.78950  1.0000 0.1303403633
H   H67       1.0  0.49430  0.70690  0.27580  1.0000 0.1200378223
H   H68       1.0  0.50570  0.29310  0.72420  1.0000 0.1200378223
H   H69       1.0  0.53230  0.67600  0.35800  1.0000 0.1303403633
H   H70       1.0  0.46770  0.32400  0.64200  1.0000 0.1303403633
H   H71       1.0  0.27990  0.37790  0.34430  1.0000 0.1390501122
H   H72       1.0  0.72010  0.62210  0.65570  1.0000 0.1390501122
H   H73       1.0  0.58480  0.34080  0.43680  1.0000 0.3565129377
H   H74       1.0  0.41520  0.65920  0.56320  1.0000 0.3565129377
H   H75       1.0  0.62450  0.34370  0.48560  1.0000 0.3692285903
H   H76       1.0  0.37550  0.65630  0.51440  1.0000 0.3692285903
H   H77       1.0  0.31830  0.49500  0.54000  1.0000 0.3692285903
H   H78       1.0  0.68170  0.50500  0.46000  1.0000 0.3692285903
H   H79       1.0  0.21600  0.41190  0.52710  1.0000 0.3420512937
H   H80       1.0  0.78400  0.58810  0.47290  1.0000 0.3420512937
H   H81       1.0  0.03630  0.39260  0.93650  1.0000 0.3692285903
H   H82       1.0  0.96370  0.60740  0.06350  1.0000 0.3692285903
H   H83       1.0  0.12740  0.42440  0.90430  1.0000 0.3420512937
H   H84       1.0  0.87260  0.57560  0.09570  1.0000 0.3420512937
H   H85       1.0  0.09630  0.18350  0.52620  1.0000 0.1104592234
H   H86       1.0  0.90370  0.81650  0.47380  1.0000 0.1104592234
H   H87       1.0  0.05590  0.15580  0.40040  1.0000 0.1590054371
H   H88       1.0  0.94410  0.84420  0.59960  1.0000 0.1590054371
H   H89       1.0  0.92820  0.13460  0.40210  1.0000 0.1390501122
H   H90       1.0  0.07180  0.86540  0.59790  1.0000 0.1390501122
H   H91       1.0  0.96440  0.03570  0.39970  1.0000 0.1390501122
H   H92       1.0  0.03560  0.96430  0.60030  1.0000 0.1390501122
H   H93       1.0  0.91310  0.10960  0.53340  1.0000 0.1390501122
H   H94       1.0  0.08690  0.89040  0.46660  1.0000 0.1390501122
H   H95       1.0  0.85920  0.00840  0.49210  1.0000 0.1390501122
H   H96       1.0  0.14080  0.99160  0.50790  1.0000 0.1390501122
H   H97       1.0  0.84250  0.11670  0.48710  1.0000 0.1469890215
H   H98       1.0  0.15750  0.88330  0.51290  1.0000 0.1469890215
H   H99       1.0  0.37810  0.61110  0.88120  1.0000 0.1104592234
H   H100      1.0  0.62190  0.38890  0.11880  1.0000 0.1104592234
H   H101      1.0  0.54980  0.68120  0.96460  1.0000 0.1390501122
H   H102      1.0  0.45020  0.31880  0.03540  1.0000 0.1390501122
H   H103      1.0  0.60990  0.60180  0.94910  1.0000 0.1303403633
H   H104      1.0  0.39010  0.39820  0.05090  1.0000 0.1303403633
H   H105      1.0  0.51570  0.57260  0.99130  1.0000 0.1303403633
H   H106      1.0  0.48430  0.42740  0.00870  1.0000 0.1303403633
H   H107      1.0  0.47320  0.50030  0.84830  1.0000 0.1390501122
H   H108      1.0  0.52680  0.49970  0.15170  1.0000 0.1390501122
H   H109      1.0  0.54510  0.47270  0.88750  1.0000 0.1303403633
H   H110      1.0  0.45490  0.52730  0.11250  1.0000 0.1303403633
H   H111      1.0  0.58310  0.59300  0.87270  1.0000 0.1390501122
H   H112      1.0  0.41690  0.40700  0.12730  1.0000 0.1390501122
C   C1        1.0  0.19060  0.71190  0.86190  1.0000 0.5570562519
C   C2        1.0  0.80940  0.28810  0.13810  1.0000 0.5570562519
C   C3        1.0  0.20850  0.75900  0.81080  1.0000 -0.0226854707
C   C4        1.0  0.79150  0.24100  0.18920  1.0000 -0.0226854707
C   C5        1.0  0.19880  0.85840  0.80670  1.0000 -0.1579765278
C   C6        1.0  0.80120  0.14160  0.19330  1.0000 -0.1512861844
C   C7        1.0  0.23900  0.70400  0.76800  1.0000 -0.1209801082
C   C8        1.0  0.76100  0.29600  0.23200  1.0000 -0.1209801082
C   C9        1.0  0.26520  0.74950  0.72090  1.0000 -0.1419997923
C   C10       1.0  0.73480  0.25050  0.27910  1.0000 -0.1419997923
C   C11       1.0  0.25770  0.84900  0.71730  1.0000 0.0193347897
C   C12       1.0  0.74230  0.15100  0.28270  1.0000 0.0193347897
C   C13       1.0  0.22280  0.90240  0.75960  1.0000 0.0193347897
C   C14       1.0  0.77720  0.09760  0.24040  1.0000 0.0193347897
C   C15       1.0  0.21930  0.00880  0.74490  1.0000 0.1787457876
C   C16       1.0  0.78070  0.99120  0.25510  1.0000 0.1787457876
C   C17       1.0  0.29440  0.10910  0.78030  1.0000 -0.4614102416
C   C18       1.0  0.70560  0.89090  0.21970  1.0000 -0.4614102416
C   C19       1.0  0.09790  0.00050  0.74630  1.0000 -0.4614102416
C   C20       1.0  0.90210  0.99950  0.25370  1.0000 -0.4614102416
C   C21       1.0  0.26240  0.01080  0.68930  1.0000 0.0108973539
C   C22       1.0  0.73760  0.98920  0.31070  1.0000 0.0108973539
C   C23       1.0  0.28420  0.91830  0.67420  1.0000 0.0193347897
C   C24       1.0  0.71580  0.08170  0.32580  1.0000 0.0193347897
C   C25       1.0  0.32610  0.90280  0.62490  1.0000 -0.1419997923
C   C26       1.0  0.67390  0.09720  0.37510  1.0000 -0.1419997923
C   C27       1.0  0.34350  0.98270  0.59070  1.0000 -0.1209801082
C   C28       1.0  0.65650  0.01730  0.40930  1.0000 -0.1209801082
C   C29       1.0  0.27790  0.08850  0.65500  1.0000 -0.1579765278
C   C30       1.0  0.72210  0.91150  0.34500  1.0000 -0.1579765278
C   C31       1.0  0.31870  0.07350  0.60540  1.0000 -0.0316492952
C   C32       1.0  0.68130  0.92650  0.39460  1.0000 -0.0316492952
C   C33       1.0  0.33310  0.15430  0.56690  1.0000 0.5484067239
C   C34       1.0  0.66690  0.84570  0.43310  1.0000 0.5484067239
C   C35       1.0  0.42390  0.20080  0.37760  1.0000 0.6011052765
C   C36       1.0  0.57610  0.79920  0.62240  1.0000 0.6011052765
C   C37       1.0  0.36160  0.13830  0.32850  1.0000 -0.0226854707
C   C38       1.0  0.63840  0.86170  0.67150  1.0000 -0.0226854707
C   C39       1.0  0.42090  0.13040  0.28370  1.0000 -0.1512861844
C   C40       1.0  0.57910  0.86960  0.71630  1.0000 -0.1512861844
C   C41       1.0  0.24450  0.08690  0.32850  1.0000 -0.1264878027
C   C42       1.0  0.75550  0.91310  0.67150  1.0000 -0.1264878027
C   C43       1.0  0.18500  0.02850  0.28400  1.0000 -0.1579765278
C   C44       1.0  0.81500  0.97150  0.71600  1.0000 -0.1579765278
C   C45       1.0  0.24500  0.02140  0.23890  1.0000 0.0193347897
C   C46       1.0  0.75500  0.97860  0.76110  1.0000 0.0193347897
C   C47       1.0  0.36240  0.07120  0.23900  1.0000 0.029793224
C   C48       1.0  0.63760  0.92880  0.76100  1.0000 0.029793224
C   C49       1.0  0.41020  0.04690  0.18690  1.0000 0.1787457876
C   C50       1.0  0.58980  0.95310  0.81310  1.0000 0.1787457876
C   C51       1.0  0.48450  0.98480  0.19340  1.0000 -0.4614102416
C   C52       1.0  0.51550  0.01520  0.80660  1.0000 -0.4614102416
C   C53       1.0  0.47410  0.15140  0.16080  1.0000 -0.4614102416
C   C54       1.0  0.52590  0.84860  0.83920  1.0000 -0.4614102416
C   C55       1.0  0.30330  0.97470  0.15720  1.0000 0.0193347897
C   C56       1.0  0.69670  0.02530  0.84280  1.0000 0.0193347897
C   C57       1.0  0.20700  0.96390  0.18670  1.0000 0.0193347897
C   C58       1.0  0.79300  0.03610  0.81330  1.0000 0.0193347897
C   C59       1.0  0.09990  0.90210  0.16620  1.0000 -0.1579765278
C   C60       1.0  0.90010  0.09790  0.83380  1.0000 -0.1579765278
C   C61       1.0  0.29170  0.91990  0.10800  1.0000 -0.1419997923
C   C62       1.0  0.70830  0.08010  0.89200  1.0000 -0.1419997923
C   C63       1.0  0.09000  0.84900  0.11660  1.0000 -0.1209801082
C   C64       1.0  0.91000  0.15100  0.88340  1.0000 -0.1209801082
C   C65       1.0  0.18500  0.85470  0.08760  1.0000 -0.0226854707
C   C66       1.0  0.81500  0.14530  0.91240  1.0000 -0.0226854707
C   C67       1.0  0.17460  0.78770  0.03690  1.0000 0.5664547123
C   C68       1.0  0.82540  0.21230  0.96310  1.0000 0.5664547123
C   C69       1.0  0.12170  0.50260  0.07130  1.0000 0.6461040415
C   C70       1.0  0.87830  0.49740  0.92870  1.0000 0.6461040415
C   C71       1.0  0.19090  0.51940  0.11950  1.0000 -0.0364449573
C   C72       1.0  0.80910  0.48060  0.88050  1.0000 -0.0364449573
C   C73       1.0  0.15790  0.44020  0.15490  1.0000 -0.1512861844
C   C74       1.0  0.84210  0.55980  0.84510  1.0000 -0.1512861844
C   C75       1.0  0.28450  0.61540  0.12930  1.0000 -0.1209801082
C   C76       1.0  0.71550  0.38460  0.87070  1.0000 -0.1209801082
C   C77       1.0  0.34660  0.63730  0.17480  1.0000 -0.1512861844
C   C78       1.0  0.65340  0.36270  0.82520  1.0000 -0.1512861844
C   C79       1.0  0.31420  0.55910  0.21020  1.0000 0.0108973539
C   C80       1.0  0.68580  0.44090  0.78980  1.0000 0.0108973539
C   C81       1.0  0.22140  0.46020  0.20030  1.0000 0.0193347897
C   C82       1.0  0.77860  0.53980  0.79970  1.0000 0.0193347897
C   C83       1.0  0.20640  0.38640  0.24310  1.0000 0.1787457876
C   C84       1.0  0.79360  0.61360  0.75690  1.0000 0.1787457876
C   C85       1.0  0.09100  0.34190  0.26600  1.0000 -0.4661505185
C   C86       1.0  0.90900  0.65810  0.73400  1.0000 -0.4661505185
C   C87       1.0  0.23570  0.28750  0.22190  1.0000 -0.4614102416
C   C88       1.0  0.76430  0.71250  0.77810  1.0000 -0.4614102416
C   C89       1.0  0.29690  0.46220  0.28180  1.0000 0.0193347897
C   C90       1.0  0.70310  0.53780  0.71820  1.0000 0.0193347897
C   C91       1.0  0.36010  0.56110  0.26140  1.0000 0.0108973539
C   C92       1.0  0.63990  0.43890  0.73860  1.0000 0.0108973539
C   C93       1.0  0.45050  0.64180  0.28960  1.0000 -0.1512861844
C   C94       1.0  0.54950  0.35820  0.71040  1.0000 -0.1512861844
C   C95       1.0  0.47320  0.62240  0.33860  1.0000 -0.1136473678
C   C96       1.0  0.52680  0.37760  0.66140  1.0000 -0.1136473678
C   C97       1.0  0.32190  0.44390  0.33080  1.0000 -0.1419997923
C   C98       1.0  0.67810  0.55610  0.66920  1.0000 -0.1419997923
C   C99       1.0  0.40980  0.52470  0.35940  1.0000 -0.0364449573
C   C100      1.0  0.59020  0.47530  0.64060  1.0000 -0.0364449573
C   C101      1.0  0.43850  0.50500  0.41220  1.0000 0.6586991586
C   C102      1.0  0.56150  0.49500  0.58780  1.0000 0.6586991586
C   C103      1.0  0.09440  0.17570  0.49010  1.0000 0.2124357111
C   C104      1.0  0.90560  0.82430  0.50990  1.0000 0.2124357111
C   C105      1.0  0.98360  0.11070  0.41310  1.0000 -0.3048456274
C   C106      1.0  0.01640  0.88930  0.58690  1.0000 -0.306413309
C   C107      1.0  0.89390  0.08690  0.49740  1.0000 -0.306413309
C   C108      1.0  0.10610  0.91310  0.50260  1.0000 -0.306413309
C   C109      1.0  0.38840  0.59760  0.91470  1.0000 0.263495896
C   C110      1.0  0.61160  0.40240  0.08530  1.0000 0.263495896
C   C111      1.0  0.54000  0.60580  0.95950  1.0000 -0.349023398
C   C112      1.0  0.46000  0.39420  0.04050  1.0000 -0.349023398
C   C113      1.0  0.51960  0.52710  0.87890  1.0000 -0.3383681439
C   C114      1.0  0.48040  0.47290  0.12110  1.0000 -0.3383681439
N   N1        1.0  0.99090  0.12170  0.46820  1.0000 0.029793224
N   N2        1.0  0.00910  0.87830  0.53180  1.0000 0.029793224
N   N3        1.0  0.45700  0.54910  0.92010  1.0000 0.029793224
N   N4        1.0  0.54300  0.45090  0.07990  1.0000 0.029793224
O   O1        1.0  0.18050  0.76870  0.90270  1.0000 -0.6112354956
O   O2        1.0  0.81950  0.23130  0.09730  1.0000 -0.6112354956
O   O3        1.0  0.18770  0.61700  0.86429  1.0000 -0.6600731872
O   O4        1.0  0.81230  0.38300  0.13571  1.0000 -0.6600731872
O   O5        1.0  0.28210  0.21730  0.57297  1.0000 -0.6462110244
O   O6        1.0  0.71790  0.78270  0.42703  1.0000 -0.6462110244
O   O7        1.0  0.39610  0.15620  0.52786  1.0000 -0.6393210329
O   O8        1.0  0.60390  0.84380  0.47214  1.0000 -0.6393210329
O   O9        1.0  0.36730  0.19270  0.41862  1.0000 -0.6716274582
O   O10       1.0  0.63270  0.80730  0.58138  1.0000 -0.6716274582
O   O11       1.0  0.52820  0.25630  0.37460  1.0000 -0.5672787391
O   O12       1.0  0.47180  0.74370  0.62540  1.0000 -0.5672787391
O   O13       1.0  0.07730  0.72440  0.01907  1.0000 -0.6393210329
O   O14       1.0  0.92270  0.27560  0.98093  1.0000 -0.6393210329
O   O15       1.0  0.26150  0.79120  0.01309  1.0000 -0.5979296528
O   O16       1.0  0.73850  0.20880  0.98691  1.0000 -0.5979296528
O   O17       1.0  0.16330  0.56310  0.03655  1.0000 -0.6393210329
O   O18       1.0  0.83670  0.43690  0.96345  1.0000 -0.6393210329
O   O19       1.0  0.02420  0.42880  0.06996  1.0000 -0.6600731872
O   O20       1.0  0.97580  0.57120  0.93004  1.0000 -0.6600731872
O   O21       1.0  0.51130  0.58350  0.43909  1.0000 -0.6856965088
O   O22       1.0  0.48870  0.41650  0.56091  1.0000 -0.6856965088
O   O23       1.0  0.38830  0.41180  0.42653  1.0000 -0.6393210329
O   O24       1.0  0.61170  0.58820  0.57347  1.0000 -0.6393210329
O   O25       1.0  0.57220  0.34940  0.46899  1.0000 -0.752570983
O   O26       1.0  0.42780  0.65060  0.53101  1.0000 -0.752570983
O   O27       1.0  0.28640  0.42860  0.52735  1.0000 -0.768701192
O   O28       1.0  0.71360  0.57140  0.47265  1.0000 -0.768701192
O   O29       1.0  0.10610  0.43250  0.93522  1.0000 -0.7443749271
O   O30       1.0  0.89390  0.56750  0.06478  1.0000 -0.7443749271
O   O31       1.0  0.18280  0.21440  0.46980  1.0000 -0.4898246341
O   O32       1.0  0.81720  0.78560  0.53020  1.0000 -0.4898246341
O   O33       1.0  0.33770  0.62650  0.94850  1.0000 -0.5031939112
O   O34       1.0  0.66230  0.37350  0.05150  1.0000 -0.5031939112
