# DDEC6 charges by PACMAN v1.1 (https://github.com/mtap-research/PACMAN-charge/)
data_2014[Cu][dia]3[FSR]8
_chemical_formula_sum              "Cu4 H112 C144 N48 O8"
_cell_length_a       24.4729
_cell_length_b       24.4729
_cell_length_c       24.4729
_cell_angle_alpha    145.954
_cell_angle_beta     145.954
_cell_angle_gamma    48.9144

_symmetry_space_group_name_H-M    "P 1"
_symmetry_Int_Tables_number       1

loop_
  _symmetry_equiv_pos_as_xyz
  'x, y, z'

loop_
  _atom_site_type_symbol
  _atom_site_label
  _atom_site_symmetry_multiplicity
  _atom_site_fract_x
  _atom_site_fract_y
  _atom_site_fract_z
  _atom_site_occupancy
  _atom_site_charge
Cu  Cu1       1.0  0.04170  0.54170  0.50000  1.0000 0.5933464874
Cu  Cu2       1.0  0.29170  0.29170  0.00000  1.0000 0.5933464874
Cu  Cu3       1.0  0.70830  0.70830  0.00000  1.0000 0.5933464874
Cu  Cu4       1.0  0.45830  0.95830  0.50000  1.0000 0.5933464874
H   H1        1.0  0.92379  0.40839  0.21980  1.0000 0.3121205127
H   H2        1.0  0.18859  0.70399  0.78020  1.0000 0.3121205127
H   H3        1.0  0.15839  0.43859  0.98460  1.0000 0.3121205127
H   H4        1.0  0.45399  0.17379  0.01540  1.0000 0.3121205127
H   H5        1.0  0.88229  0.39489  0.22580  1.0000 0.3121205127
H   H6        1.0  0.16909  0.65649  0.77420  1.0000 0.3121205127
H   H7        1.0  0.14489  0.41909  0.01260  1.0000 0.3121205127
H   H8        1.0  0.40649  0.13229  0.98740  1.0000 0.3121205127
H   H9        1.0  0.85769  0.60329  0.33380  1.0000 0.1096648826
H   H10       1.0  0.26949  0.52389  0.66620  1.0000 0.1096648826
H   H11       1.0  0.35329  0.51949  0.24560  1.0000 0.1096648826
H   H12       1.0  0.27389  0.10769  0.75440  1.0000 0.1096648826
H   H13       1.0  0.12449  0.73369  0.65400  1.0000 0.1203801599
H   H14       1.0  0.07969  0.47049  0.34600  1.0000 0.1203801599
H   H15       1.0  0.48369  0.32969  0.10920  1.0000 0.1203801599
H   H16       1.0  0.22049  0.37449  0.89080  1.0000 0.1203801599
H   H17       1.0  0.04259  0.67039  0.40580  1.0000 0.1096648826
H   H18       1.0  0.26459  0.63679  0.59420  1.0000 0.1096648826
H   H19       1.0  0.42039  0.51459  0.12780  1.0000 0.1096648826
H   H20       1.0  0.38679  0.29259  0.87220  1.0000 0.1096648826
H   H21       1.0  0.08449  0.64599  0.33030  1.0000 0.1096648826
H   H22       1.0  0.31569  0.75419  0.66970  1.0000 0.1096648826
H   H23       1.0  0.39599  0.56569  0.06150  1.0000 0.1096648826
H   H24       1.0  0.50419  0.33449  0.93850  1.0000 0.1096648826
H   H25       1.0  0.11079  0.77989  0.40310  1.0000 0.1030095031
H   H26       1.0  0.37679  0.70769  0.59690  1.0000 0.1030095031
H   H27       1.0  0.52989  0.62679  0.16910  1.0000 0.1030095031
H   H28       1.0  0.45769  0.36079  0.83090  1.0000 0.1030095031
H   H29       1.0  0.10909  0.93729  0.56280  1.0000 0.1096648826
H   H30       1.0  0.37449  0.54629  0.43720  1.0000 0.1096648826
H   H31       1.0  0.68729  0.62449  0.32820  1.0000 0.1096648826
H   H32       1.0  0.29629  0.35909  0.67180  1.0000 0.1096648826
H   H33       1.0  0.05479  0.16939  0.86280  1.0000 0.1096648826
H   H34       1.0  0.30659  0.19199  0.13720  1.0000 0.1096648826
H   H35       1.0  0.91939  0.55659  0.61460  1.0000 0.1096648826
H   H36       1.0  0.94199  0.30479  0.38540  1.0000 0.1096648826
H   H37       1.0  0.00439  0.19309  0.92870  1.0000 0.1096648826
H   H38       1.0  0.26439  0.07569  0.07130  1.0000 0.1096648826
H   H39       1.0  0.94309  0.51439  0.68870  1.0000 0.1096648826
H   H40       1.0  0.82569  0.25439  0.31130  1.0000 0.1096648826
H   H41       1.0  0.96119  0.05899  0.83980  1.0000 0.1203801599
H   H42       1.0  0.21919  0.12139  0.16020  1.0000 0.1203801599
H   H43       1.0  0.80899  0.46919  0.59780  1.0000 0.1203801599
H   H44       1.0  0.87139  0.21119  0.40220  1.0000 0.1203801599
H   H45       1.0  0.97219  0.90119  0.68920  1.0000 0.1096648826
H   H46       1.0  0.21199  0.28299  0.31080  1.0000 0.1096648826
H   H47       1.0  0.65119  0.46199  0.42900  1.0000 0.1096648826
H   H48       1.0  0.03299  0.22219  0.57100  1.0000 0.1096648826
H   H49       1.0  0.24569  0.10959  0.89430  1.0000 0.1203801599
H   H50       1.0  0.21529  0.35139  0.10570  1.0000 0.1203801599
H   H51       1.0  0.85959  0.46529  0.36390  1.0000 0.1203801599
H   H52       1.0  0.10139  0.49569  0.63610  1.0000 0.1203801599
H   H53       1.0  0.05999  0.23039  0.74640  1.0000 0.1096648826
H   H54       1.0  0.48399  0.31359  0.25360  1.0000 0.1096648826
H   H55       1.0  0.98039  0.73399  0.67040  1.0000 0.1096648826
H   H56       1.0  0.06359  0.30999  0.32960  1.0000 0.1096648826
H   H57       1.0  0.82621  0.84161  0.28020  1.0000 0.3152943065
H   H58       1.0  0.56141  0.54601  0.71980  1.0000 0.3152943065
H   H59       1.0  0.59161  0.81141  0.51540  1.0000 0.3152943065
H   H60       1.0  0.29601  0.07621  0.48460  1.0000 0.3121205127
H   H61       1.0  0.86771  0.85511  0.27420  1.0000 0.3121205127
H   H62       1.0  0.58091  0.59351  0.72580  1.0000 0.3121205127
H   H63       1.0  0.60511  0.83091  0.48740  1.0000 0.3121205127
H   H64       1.0  0.34351  0.11771  0.51260  1.0000 0.3121205127
H   H65       1.0  0.89231  0.64671  0.16620  1.0000 0.1096648826
H   H66       1.0  0.48051  0.72611  0.83380  1.0000 0.1096648826
H   H67       1.0  0.39671  0.73051  0.25440  1.0000 0.1096648826
H   H68       1.0  0.47611  0.14231  0.74560  1.0000 0.1096648826
H   H69       1.0  0.62551  0.51631  0.84600  1.0000 0.1203801599
H   H70       1.0  0.67031  0.77951  0.15400  1.0000 0.1203801599
H   H71       1.0  0.26631  0.92031  0.39080  1.0000 0.1203801599
H   H72       1.0  0.52951  0.87551  0.60920  1.0000 0.1203801599
H   H73       1.0  0.70741  0.57961  0.09420  1.0000 0.1096648826
H   H74       1.0  0.48541  0.61321  0.90580  1.0000 0.1096648826
H   H75       1.0  0.32961  0.73541  0.37220  1.0000 0.1096648826
H   H76       1.0  0.36321  0.95741  0.62780  1.0000 0.1096648826
H   H77       1.0  0.66551  0.60401  0.16970  1.0000 0.1096648826
H   H78       1.0  0.43431  0.49581  0.83030  1.0000 0.1096648826
H   H79       1.0  0.35401  0.68431  0.43850  1.0000 0.1096648826
H   H80       1.0  0.24581  0.91551  0.56150  1.0000 0.1096648826
H   H81       1.0  0.63921  0.47011  0.09690  1.0000 0.1030095031
H   H82       1.0  0.37321  0.54231  0.90310  1.0000 0.1030095031
H   H83       1.0  0.22011  0.62321  0.33090  1.0000 0.1030095031
H   H84       1.0  0.29231  0.88921  0.66910  1.0000 0.1030095031
H   H85       1.0  0.64091  0.31271  0.93720  1.0000 0.1096648826
H   H86       1.0  0.37551  0.70371  0.06280  1.0000 0.1096648826
H   H87       1.0  0.06271  0.62551  0.17180  1.0000 0.1096648826
H   H88       1.0  0.45371  0.89091  0.82820  1.0000 0.1096648826
H   H89       1.0  0.69521  0.08061  0.63720  1.0000 0.1096648826
H   H90       1.0  0.44341  0.05801  0.36280  1.0000 0.1096648826
H   H91       1.0  0.83061  0.69341  0.88540  1.0000 0.1096648826
H   H92       1.0  0.80801  0.94521  0.11460  1.0000 0.1096648826
H   H93       1.0  0.74561  0.05691  0.57130  1.0000 0.1096648826
H   H94       1.0  0.48561  0.17431  0.42870  1.0000 0.1096648826
H   H95       1.0  0.80691  0.73561  0.81130  1.0000 0.1096648826
H   H96       1.0  0.92431  0.99561  0.18870  1.0000 0.1096648826
H   H97       1.0  0.78881  0.19101  0.66020  1.0000 0.1203801599
H   H98       1.0  0.53081  0.12861  0.33980  1.0000 0.1203801599
H   H99       1.0  0.94101  0.78081  0.90220  1.0000 0.1203801599
H   H100      1.0  0.87861  0.03881  0.09780  1.0000 0.1203801599
H   H101      1.0  0.77781  0.34881  0.81080  1.0000 0.1096648826
H   H102      1.0  0.53801  0.96701  0.18920  1.0000 0.1096648826
H   H103      1.0  0.09881  0.78801  0.07100  1.0000 0.1096648826
H   H104      1.0  0.71701  0.02781  0.92900  1.0000 0.1096648826
H   H105      1.0  0.50431  0.14041  0.60570  1.0000 0.1203801599
H   H106      1.0  0.53471  0.89861  0.39430  1.0000 0.1203801599
H   H107      1.0  0.89041  0.78471  0.13610  1.0000 0.1203801599
H   H108      1.0  0.64861  0.75431  0.86390  1.0000 0.1203801599
H   H109      1.0  0.69001  0.01961  0.75360  1.0000 0.1096648826
H   H110      1.0  0.26601  0.93641  0.24640  1.0000 0.1096648826
H   H111      1.0  0.76961  0.51601  0.82960  1.0000 0.1096648826
H   H112      1.0  0.68641  0.94001  0.17040  1.0000 0.1096648826
C   C1        1.0  0.91254  0.64673  0.40441  1.0000 0.1303081532
C   C2        1.0  0.24232  0.50813  0.59559  1.0000 0.1355173101
C   C3        1.0  0.39673  0.49232  0.23419  1.0000 0.1303081532
C   C4        1.0  0.25813  0.16254  0.76581  1.0000 0.1303081532
C   C5        1.0  0.05661  0.71580  0.57705  1.0000 0.0635816266
C   C6        1.0  0.13875  0.47956  0.42295  1.0000 0.0635816266
C   C7        1.0  0.46580  0.38875  0.15919  1.0000 0.0635816266
C   C8        1.0  0.22956  0.30661  0.84081  1.0000 0.0635816266
C   C9        1.0  0.02572  0.84135  0.58463  1.0000 0.0317750743
C   C10       1.0  0.25672  0.44109  0.41537  1.0000 0.0317750743
C   C11       1.0  0.59135  0.50672  0.31563  1.0000 0.0317750743
C   C12       1.0  0.19109  0.27572  0.68437  1.0000 0.0317750743
C   C13       1.0  0.05114  0.82138  0.53546  1.0000 0.012477704
C   C14       1.0  0.28592  0.51568  0.46454  1.0000 0.012477704
C   C15       1.0  0.57138  0.53592  0.27024  1.0000 0.012477704
C   C16       1.0  0.26568  0.30114  0.72976  1.0000 0.012477704
C   C17       1.0  0.05601  0.72520  0.43891  1.0000 -0.1626490301
C   C18       1.0  0.28629  0.61710  0.56109  1.0000 -0.1626490301
C   C19       1.0  0.47520  0.53629  0.16919  1.0000 -0.1626490301
C   C20       1.0  0.36710  0.30601  0.83081  1.0000 -0.1626490301
C   C21       1.0  0.07978  0.71059  0.39309  1.0000 -0.1103096188
C   C22       1.0  0.31750  0.68669  0.60691  1.0000 -0.1103096188
C   C23       1.0  0.46059  0.56750  0.13081  1.0000 -0.1103096188
C   C24       1.0  0.43669  0.32978  0.86919  1.0000 -0.1103096188
C   C25       1.0  0.09737  0.79120  0.43877  1.0000 -0.1103096188
C   C26       1.0  0.35243  0.65860  0.56123  1.0000 -0.1103096188
C   C27       1.0  0.54120  0.60243  0.19383  1.0000 -0.1103096188
C   C28       1.0  0.40860  0.34737  0.80617  1.0000 -0.1103096188
C   C29       1.0  0.09557  0.88425  0.53238  1.0000 -0.1754321645
C   C30       1.0  0.35187  0.56319  0.46762  1.0000 -0.1754321645
C   C31       1.0  0.63425  0.60187  0.28868  1.0000 -0.1754321645
C   C32       1.0  0.31319  0.34557  0.71132  1.0000 -0.1754321645
C   C33       1.0  0.07341  0.90385  0.58626  1.0000 0.012477704
C   C34       1.0  0.31759  0.48715  0.41374  1.0000 0.012477704
C   C35       1.0  0.65385  0.56759  0.33044  1.0000 0.012477704
C   C36       1.0  0.23715  0.32341  0.66956  1.0000 0.012477704
C   C37       1.0  0.07127  0.99793  0.68346  1.0000 0.0317750743
C   C38       1.0  0.31447  0.38781  0.31654  1.0000 0.0317750743
C   C39       1.0  0.74793  0.56447  0.42666  1.0000 0.0317750743
C   C40       1.0  0.13781  0.32127  0.57334  1.0000 0.0317750743
C   C41       1.0  0.04465  0.01746  0.73115  1.0000 0.0156628264
C   C42       1.0  0.28631  0.31350  0.26885  1.0000 0.0156628264
C   C43       1.0  0.76746  0.53631  0.47281  1.0000 0.0156628264
C   C44       1.0  0.06350  0.29465  0.52719  1.0000 0.0156628264
C   C45       1.0  0.03802  0.11442  0.82640  1.0000 -0.1725694241
C   C46       1.0  0.28802  0.21162  0.17360  1.0000 -0.1725694241
C   C47       1.0  0.86442  0.53802  0.57640  1.0000 -0.1725694241
C   C48       1.0  0.96162  0.28802  0.42360  1.0000 -0.1725694241
C   C49       1.0  0.00834  0.12834  0.86520  1.0000 -0.0987481435
C   C50       1.0  0.26314  0.14314  0.13480  1.0000 -0.0987481435
C   C51       1.0  0.87834  0.51314  0.62000  1.0000 -0.0987481435
C   C52       1.0  0.89314  0.25834  0.38000  1.0000 -0.0987481435
C   C53       1.0  0.98279  0.04749  0.81210  1.0000 -0.0987481435
C   C54       1.0  0.23539  0.17069  0.18790  1.0000 -0.0987481435
C   C55       1.0  0.79749  0.48539  0.56470  1.0000 -0.0987481435
C   C56       1.0  0.92069  0.23279  0.43530  1.0000 -0.0987481435
C   C57       1.0  0.98874  0.95424  0.72270  1.0000 -0.1725694241
C   C58       1.0  0.23154  0.26604  0.27730  1.0000 -0.1725694241
C   C59       1.0  0.70424  0.48154  0.46550  1.0000 -0.1725694241
C   C60       1.0  0.01604  0.23874  0.53450  1.0000 -0.1725694241
C   C61       1.0  0.01996  0.93550  0.67842  1.0000 0.012477704
C   C62       1.0  0.25708  0.34154  0.32158  1.0000 0.012477704
C   C63       1.0  0.68550  0.50708  0.41554  1.0000 0.012477704
C   C64       1.0  0.09154  0.26996  0.58446  1.0000 0.012477704
C   C65       1.0  0.18753  0.12499  0.84104  1.0000 0.0425954128
C   C66       1.0  0.28395  0.34649  0.15896  1.0000 0.0425954128
C   C67       1.0  0.87499  0.53395  0.43746  1.0000 0.0425954128
C   C68       1.0  0.09649  0.43753  0.56254  1.0000 0.0425954128
C   C69       1.0  0.08615  0.18869  0.75966  1.0000 0.1203801599
C   C70       1.0  0.42903  0.32649  0.24034  1.0000 0.1203801599
C   C71       1.0  0.93869  0.67903  0.60254  1.0000 0.1203801599
C   C72       1.0  0.07649  0.33615  0.39746  1.0000 0.1203801599
C   C73       1.0  0.83746  0.60327  0.09559  1.0000 0.1303081532
C   C74       1.0  0.50768  0.74187  0.90441  1.0000 0.1303081532
C   C75       1.0  0.35327  0.75768  0.26581  1.0000 0.1303081532
C   C76       1.0  0.49187  0.08746  0.73419  1.0000 0.1303081532
C   C77       1.0  0.69339  0.53420  0.92295  1.0000 0.0635816266
C   C78       1.0  0.61125  0.77044  0.07705  1.0000 0.0635816266
C   C79       1.0  0.28420  0.86125  0.34081  1.0000 0.0635816266
C   C80       1.0  0.52044  0.94339  0.65919  1.0000 0.0635816266
C   C81       1.0  0.72428  0.40865  0.91537  1.0000 0.0317750743
C   C82       1.0  0.49328  0.80891  0.08463  1.0000 0.0317750743
C   C83       1.0  0.15865  0.74328  0.18437  1.0000 0.0317750743
C   C84       1.0  0.55891  0.97428  0.81563  1.0000 0.0317750743
C   C85       1.0  0.69886  0.42862  0.96454  1.0000 0.012477704
C   C86       1.0  0.46408  0.73432  0.03546  1.0000 0.012477704
C   C87       1.0  0.17862  0.71408  0.22976  1.0000 0.012477704
C   C88       1.0  0.48432  0.94886  0.77024  1.0000 0.012477704
C   C89       1.0  0.69399  0.52480  0.06109  1.0000 -0.1626490301
C   C90       1.0  0.46371  0.63290  0.93891  1.0000 -0.1626490301
C   C91       1.0  0.27480  0.71371  0.33081  1.0000 -0.1626490301
C   C92       1.0  0.38290  0.94399  0.66919  1.0000 -0.1626490301
C   C93       1.0  0.67022  0.53941  0.10691  1.0000 -0.1103096188
C   C94       1.0  0.43250  0.56331  0.89309  1.0000 -0.1103096188
C   C95       1.0  0.28941  0.68250  0.36919  1.0000 -0.1103096188
C   C96       1.0  0.31331  0.92022  0.63081  1.0000 -0.1103096188
C   C97       1.0  0.65263  0.45880  0.06123  1.0000 -0.1103096188
C   C98       1.0  0.39757  0.59140  0.93877  1.0000 -0.1103096188
C   C99       1.0  0.20880  0.64757  0.30617  1.0000 -0.1103096188
C   C100      1.0  0.34140  0.90263  0.69383  1.0000 -0.1103096188
C   C101      1.0  0.65443  0.36575  0.96762  1.0000 -0.1754321645
C   C102      1.0  0.39813  0.68681  0.03238  1.0000 -0.1754321645
C   C103      1.0  0.11575  0.64813  0.21132  1.0000 -0.1754321645
C   C104      1.0  0.43681  0.90443  0.78868  1.0000 -0.1754321645
C   C105      1.0  0.67659  0.34615  0.91374  1.0000 0.012477704
C   C106      1.0  0.43241  0.76285  0.08626  1.0000 0.012477704
C   C107      1.0  0.09615  0.68241  0.16956  1.0000 0.012477704
C   C108      1.0  0.51285  0.92659  0.83044  1.0000 0.012477704
C   C109      1.0  0.67873  0.25207  0.81654  1.0000 0.0317750743
C   C110      1.0  0.43553  0.86219  0.18346  1.0000 0.0317750743
C   C111      1.0  0.00207  0.68553  0.07334  1.0000 0.0317750743
C   C112      1.0  0.61219  0.92873  0.92666  1.0000 0.0317750743
C   C113      1.0  0.70535  0.23254  0.76885  1.0000 0.0156628264
C   C114      1.0  0.46369  0.93650  0.23115  1.0000 0.0156628264
C   C115      1.0  0.98254  0.71369  0.02719  1.0000 0.0156628264
C   C116      1.0  0.68650  0.95535  0.97281  1.0000 0.0156628264
C   C117      1.0  0.71198  0.13558  0.67360  1.0000 -0.1725694241
C   C118      1.0  0.46198  0.03838  0.32640  1.0000 -0.1725694241
C   C119      1.0  0.88558  0.71198  0.92360  1.0000 -0.1725694241
C   C120      1.0  0.78838  0.96198  0.07640  1.0000 -0.1725694241
C   C121      1.0  0.74166  0.12166  0.63480  1.0000 -0.0987481435
C   C122      1.0  0.48686  0.10686  0.36520  1.0000 -0.0987481435
C   C123      1.0  0.87166  0.73686  0.88000  1.0000 -0.0987481435
C   C124      1.0  0.85686  0.99166  0.12000  1.0000 -0.0987481435
C   C125      1.0  0.76721  0.20251  0.68790  1.0000 -0.0987481435
C   C126      1.0  0.51461  0.07931  0.31210  1.0000 -0.0987481435
C   C127      1.0  0.95251  0.76461  0.93530  1.0000 -0.0987481435
C   C128      1.0  0.82931  0.01721  0.06470  1.0000 -0.0987481435
C   C129      1.0  0.76126  0.29576  0.77730  1.0000 -0.1725694241
C   C130      1.0  0.51846  0.98396  0.22270  1.0000 -0.1725694241
C   C131      1.0  0.04576  0.76846  0.03450  1.0000 -0.1725694241
C   C132      1.0  0.73396  0.01126  0.96550  1.0000 -0.1725694241
C   C133      1.0  0.73004  0.31450  0.82158  1.0000 0.012477704
C   C134      1.0  0.49292  0.90846  0.17842  1.0000 0.012477704
C   C135      1.0  0.06450  0.74292  0.08446  1.0000 0.012477704
C   C136      1.0  0.65846  0.98004  0.91554  1.0000 0.012477704
C   C137      1.0  0.56247  0.12501  0.65896  1.0000 0.0425954128
C   C138      1.0  0.46605  0.90351  0.34104  1.0000 0.0425954128
C   C139      1.0  0.87501  0.71605  0.06254  1.0000 0.0425954128
C   C140      1.0  0.65351  0.81247  0.93746  1.0000 0.0425954128
C   C141      1.0  0.66385  0.06131  0.74034  1.0000 0.1203801599
C   C142      1.0  0.32097  0.92351  0.25966  1.0000 0.1203801599
C   C143      1.0  0.81131  0.57097  0.89746  1.0000 0.1203801599
C   C144      1.0  0.67351  0.91385  0.10254  1.0000 0.1203801599
N   N1        1.0  0.00333  0.64327  0.49820  1.0000 -0.3219975813
N   N2        1.0  0.14507  0.50513  0.50180  1.0000 -0.3219975813
N   N3        1.0  0.39327  0.39507  0.13994  1.0000 -0.3219975813
N   N4        1.0  0.25513  0.25333  0.86006  1.0000 -0.3219975813
N   N5        1.0  0.90703  0.71526  0.41971  1.0000 -0.2632661651
N   N6        1.0  0.29555  0.48732  0.58029  1.0000 -0.2632661651
N   N7        1.0  0.46526  0.54555  0.30823  1.0000 -0.2632661651
N   N8        1.0  0.23732  0.15703  0.69177  1.0000 -0.2632661651
N   N9        1.0  0.00052  0.75938  0.53188  1.0000 0.1096648826
N   N10       1.0  0.22750  0.46864  0.46812  1.0000 0.1096648826
N   N11       1.0  0.50938  0.47750  0.25886  1.0000 0.1096648826
N   N12       1.0  0.21864  0.25052  0.74114  1.0000 0.1096648826
N   N13       1.0  0.09878  0.07949  0.73793  1.0000 0.1303081532
N   N14       1.0  0.34156  0.36085  0.26207  1.0000 0.1303081532
N   N15       1.0  0.82949  0.59156  0.48071  1.0000 0.1303081532
N   N16       1.0  0.11085  0.34878  0.51929  1.0000 0.1303081532
N   N17       1.0  0.03207  0.12006  0.68441  1.0000 -0.2524043287
N   N18       1.0  0.43565  0.34766  0.31559  1.0000 -0.2524043287
N   N19       1.0  0.87006  0.68565  0.58799  1.0000 -0.2524043287
N   N20       1.0  0.09766  0.28207  0.41201  1.0000 -0.2524043287
N   N21       1.0  0.18253  0.19498  0.85809  1.0000 -0.3219975813
N   N22       1.0  0.33689  0.32444  0.14191  1.0000 -0.3219975813
N   N23       1.0  0.94498  0.58689  0.51245  1.0000 -0.3219975813
N   N24       1.0  0.07444  0.43253  0.48755  1.0000 -0.3219975813
N   N25       1.0  0.74667  0.60673  0.00180  1.0000 -0.3219975813
N   N26       1.0  0.60493  0.74487  0.99820  1.0000 -0.3219975813
N   N27       1.0  0.35673  0.85493  0.36006  1.0000 -0.3219975813
N   N28       1.0  0.49487  0.99667  0.63994  1.0000 -0.3219975813
N   N29       1.0  0.84297  0.53474  0.08029  1.0000 -0.2632661651
N   N30       1.0  0.45445  0.76268  0.91971  1.0000 -0.2632661651
N   N31       1.0  0.28474  0.70445  0.19177  1.0000 -0.2632661651
N   N32       1.0  0.51268  0.09297  0.80823  1.0000 -0.2632661651
N   N33       1.0  0.74948  0.49062  0.96812  1.0000 0.1096648826
N   N34       1.0  0.52250  0.78136  0.03188  1.0000 0.1096648826
N   N35       1.0  0.24062  0.77250  0.24114  1.0000 0.1096648826
N   N36       1.0  0.53136  0.99948  0.75886  1.0000 0.1096648826
N   N37       1.0  0.65122  0.17051  0.76207  1.0000 0.1303081532
N   N38       1.0  0.40844  0.88915  0.23793  1.0000 0.1303081532
N   N39       1.0  0.92051  0.65844  0.01929  1.0000 0.1303081532
N   N40       1.0  0.63915  0.90122  0.98071  1.0000 0.1303081532
N   N41       1.0  0.71793  0.12994  0.81559  1.0000 -0.2524043287
N   N42       1.0  0.31435  0.90234  0.18441  1.0000 -0.2524043287
N   N43       1.0  0.87994  0.56435  0.91201  1.0000 -0.2524043287
N   N44       1.0  0.65234  0.96793  0.08799  1.0000 -0.2524043287
N   N45       1.0  0.56747  0.05502  0.64191  1.0000 -0.3219975813
N   N46       1.0  0.41311  0.92556  0.35809  1.0000 -0.3219975813
N   N47       1.0  0.80502  0.66311  0.98755  1.0000 -0.3219975813
N   N48       1.0  0.67556  0.81747  0.01245  1.0000 -0.3219975813
O   O1        1.0  0.91706  0.43427  0.26681  1.0000 -0.7167078818
O   O2        1.0  0.16746  0.65025  0.73319  1.0000 -0.7167078818
O   O3        1.0  0.18427  0.41746  0.01721  1.0000 -0.7167078818
O   O4        1.0  0.40025  0.16706  0.98279  1.0000 -0.7167078818
O   O5        1.0  0.83294  0.81573  0.23319  1.0000 -0.7167078818
O   O6        1.0  0.58254  0.59975  0.76681  1.0000 -0.7167078818
O   O7        1.0  0.56573  0.83254  0.48279  1.0000 -0.7167078818
O   O8        1.0  0.34975  0.08294  0.51721  1.0000 -0.7167078818
