# DDEC6 charges by PACMAN v1.1 (https://github.com/mtap-research/PACMAN-charge/)
data_2014[Cu][nan]3[FSR]4
_chemical_formula_sum              "Cu8 H112 C128 N16 O40"
_cell_length_a       8.5872
_cell_length_b       8.5911
_cell_length_c       52.7295
_cell_angle_alpha    90
_cell_angle_beta     90
_cell_angle_gamma    90

_symmetry_space_group_name_H-M    "P 1"
_symmetry_Int_Tables_number       1

loop_
  _symmetry_equiv_pos_as_xyz
  'x, y, z'

loop_
  _atom_site_type_symbol
  _atom_site_label
  _atom_site_symmetry_multiplicity
  _atom_site_fract_x
  _atom_site_fract_y
  _atom_site_fract_z
  _atom_site_occupancy
  _atom_site_charge
Cu  Cu1       1.0  0.35216  0.15519  0.98482  1.0000 0.782234589
Cu  Cu2       1.0  0.14784  0.84481  0.48482  1.0000 0.782234589
Cu  Cu3       1.0  0.85216  0.34481  0.01518  1.0000 0.782234589
Cu  Cu4       1.0  0.64784  0.65519  0.51518  1.0000 0.782234589
Cu  Cu5       1.0  0.09529  0.93384  0.73759  1.0000 0.782234589
Cu  Cu6       1.0  0.40471  0.06616  0.23759  1.0000 0.782234589
Cu  Cu7       1.0  0.59529  0.56616  0.26241  1.0000 0.782234589
Cu  Cu8       1.0  0.90471  0.43384  0.76241  1.0000 0.782234589
H   H1        1.0  0.42470  0.65020  0.95960  1.0000 0.1412362096
H   H2        1.0  0.07530  0.34980  0.45960  1.0000 0.1412362096
H   H3        1.0  0.92470  0.84980  0.04040  1.0000 0.1412362096
H   H4        1.0  0.57530  0.15020  0.54040  1.0000 0.1412362096
H   H5        1.0  0.60680  0.65840  0.96610  1.0000 0.1412362096
H   H6        1.0  0.89320  0.34160  0.46610  1.0000 0.1412362096
H   H7        1.0  0.10680  0.84160  0.03390  1.0000 0.1412362096
H   H8        1.0  0.39320  0.15840  0.53390  1.0000 0.1412362096
H   H9        1.0  0.35940  0.64930  0.00280  1.0000 0.0986800178
H   H10       1.0  0.14060  0.35070  0.50280  1.0000 0.0986800178
H   H11       1.0  0.85940  0.85070  0.99720  1.0000 0.0986800178
H   H12       1.0  0.64060  0.14930  0.49720  1.0000 0.0986800178
H   H13       1.0  0.54760  0.65020  0.03090  1.0000 0.3302778623
H   H14       1.0  0.95240  0.34980  0.53090  1.0000 0.3302778623
H   H15       1.0  0.04760  0.84980  0.96910  1.0000 0.3302778623
H   H16       1.0  0.45240  0.15020  0.46910  1.0000 0.3302778623
H   H17       1.0  0.59710  0.01040  0.71110  1.0000 0.1317097359
H   H18       1.0  0.90290  0.98960  0.21110  1.0000 0.1317097359
H   H19       1.0  0.09710  0.48960  0.28890  1.0000 0.1317097359
H   H20       1.0  0.40290  0.51040  0.78890  1.0000 0.1317097359
H   H21       1.0  0.58700  0.19120  0.71830  1.0000 0.1412362096
H   H22       1.0  0.91300  0.80880  0.21830  1.0000 0.1412362096
H   H23       1.0  0.08700  0.30880  0.28170  1.0000 0.1412362096
H   H24       1.0  0.41300  0.69120  0.78170  1.0000 0.1412362096
H   H25       1.0  0.59850  0.94170  0.75400  1.0000 0.1111213218
H   H26       1.0  0.90150  0.05830  0.25400  1.0000 0.1111213218
H   H27       1.0  0.09850  0.55830  0.24600  1.0000 0.1111213218
H   H28       1.0  0.40150  0.44170  0.74600  1.0000 0.1111213218
H   H29       1.0  0.63840  0.20030  0.77540  1.0000 0.32357231
H   H30       1.0  0.86160  0.79970  0.27540  1.0000 0.32357231
H   H31       1.0  0.13840  0.29970  0.22460  1.0000 0.32357231
H   H32       1.0  0.36160  0.70030  0.72460  1.0000 0.32357231
H   H33       1.0  0.47570  0.32190  0.93850  1.0000 0.1111213218
H   H34       1.0  0.02430  0.67810  0.43850  1.0000 0.1111213218
H   H35       1.0  0.97570  0.17810  0.06150  1.0000 0.1111213218
H   H36       1.0  0.52430  0.82190  0.56150  1.0000 0.1111213218
H   H37       1.0  0.45400  0.30430  0.89510  1.0000 0.1317097359
H   H38       1.0  0.04600  0.69570  0.39510  1.0000 0.1317097359
H   H39       1.0  0.95400  0.19570  0.10490  1.0000 0.1317097359
H   H40       1.0  0.54600  0.80430  0.60490  1.0000 0.1317097359
H   H41       1.0  0.09610  0.00580  0.90440  1.0000 0.1317097359
H   H42       1.0  0.40390  0.99420  0.40440  1.0000 0.1317097359
H   H43       1.0  0.59610  0.49420  0.09560  1.0000 0.1317097359
H   H44       1.0  0.90390  0.50580  0.59560  1.0000 0.1317097359
H   H45       1.0  0.13690  0.02220  0.94790  1.0000 0.0986800178
H   H46       1.0  0.36310  0.97780  0.44790  1.0000 0.0986800178
H   H47       1.0  0.63690  0.47780  0.05210  1.0000 0.0986800178
H   H48       1.0  0.86310  0.52220  0.55210  1.0000 0.0986800178
H   H49       1.0  0.33390  0.19970  0.85670  1.0000 0.1192344087
H   H50       1.0  0.16610  0.80030  0.35670  1.0000 0.1192344087
H   H51       1.0  0.83390  0.30030  0.14330  1.0000 0.1192344087
H   H52       1.0  0.66610  0.69970  0.64330  1.0000 0.1192344087
H   H53       1.0  0.08990  0.98770  0.86480  1.0000 0.1111213218
H   H54       1.0  0.41010  0.01230  0.36480  1.0000 0.1111213218
H   H55       1.0  0.58990  0.51230  0.13520  1.0000 0.1111213218
H   H56       1.0  0.91010  0.48770  0.63520  1.0000 0.1111213218
H   H57       1.0  0.29110  0.20250  0.81500  1.0000 0.1317097359
H   H58       1.0  0.20890  0.79750  0.31500  1.0000 0.1317097359
H   H59       1.0  0.79110  0.29750  0.18500  1.0000 0.1317097359
H   H60       1.0  0.70890  0.70250  0.68500  1.0000 0.1317097359
H   H61       1.0  0.26080  0.15750  0.77240  1.0000 0.1192344087
H   H62       1.0  0.23920  0.84250  0.27240  1.0000 0.1192344087
H   H63       1.0  0.76080  0.34250  0.22760  1.0000 0.1192344087
H   H64       1.0  0.73920  0.65750  0.72760  1.0000 0.1192344087
H   H65       1.0  0.96690  0.81750  0.78520  1.0000 0.1192344087
H   H66       1.0  0.53310  0.18250  0.28520  1.0000 0.1192344087
H   H67       1.0  0.46690  0.68250  0.21480  1.0000 0.1192344087
H   H68       1.0  0.03310  0.31750  0.71480  1.0000 0.1192344087
H   H69       1.0  0.98490  0.85460  0.82870  1.0000 0.1317097359
H   H70       1.0  0.51510  0.14540  0.32870  1.0000 0.1317097359
H   H71       1.0  0.48490  0.64540  0.17130  1.0000 0.1317097359
H   H72       1.0  0.01510  0.35460  0.67130  1.0000 0.1317097359
H   H73       1.0  0.23710  0.30760  0.03110  1.0000 0.1192344087
H   H74       1.0  0.26290  0.69240  0.53110  1.0000 0.1192344087
H   H75       1.0  0.73710  0.19240  0.96890  1.0000 0.1192344087
H   H76       1.0  0.76290  0.80760  0.46890  1.0000 0.1192344087
H   H77       1.0  0.26280  0.28970  0.07490  1.0000 0.1317097359
H   H78       1.0  0.23720  0.71030  0.57490  1.0000 0.1317097359
H   H79       1.0  0.76280  0.21030  0.92510  1.0000 0.1317097359
H   H80       1.0  0.73720  0.78970  0.42510  1.0000 0.1317097359
H   H81       1.0  0.58720  0.95770  0.06490  1.0000 0.1317097359
H   H82       1.0  0.91280  0.04230  0.56490  1.0000 0.1317097359
H   H83       1.0  0.08720  0.54230  0.93510  1.0000 0.1317097359
H   H84       1.0  0.41280  0.45770  0.43510  1.0000 0.1317097359
H   H85       1.0  0.55740  0.98040  0.02130  1.0000 0.1192344087
H   H86       1.0  0.94260  0.01960  0.52130  1.0000 0.1192344087
H   H87       1.0  0.05740  0.51960  0.97870  1.0000 0.1192344087
H   H88       1.0  0.44260  0.48040  0.47870  1.0000 0.1192344087
H   H89       1.0  0.52740  0.01750  0.10680  1.0000 0.1192344087
H   H90       1.0  0.97260  0.98250  0.60680  1.0000 0.1192344087
H   H91       1.0  0.02740  0.48250  0.89320  1.0000 0.1192344087
H   H92       1.0  0.47260  0.51750  0.39320  1.0000 0.1192344087
H   H93       1.0  0.31810  0.25500  0.11470  1.0000 0.1192344087
H   H94       1.0  0.18190  0.74500  0.61470  1.0000 0.1192344087
H   H95       1.0  0.81810  0.24500  0.88530  1.0000 0.1192344087
H   H96       1.0  0.68190  0.75500  0.38530  1.0000 0.1192344087
H   H97       1.0  0.56330  0.96610  0.14770  1.0000 0.1317097359
H   H98       1.0  0.93670  0.03390  0.64770  1.0000 0.1317097359
H   H99       1.0  0.06330  0.53390  0.85230  1.0000 0.1317097359
H   H100      1.0  0.43670  0.46610  0.35230  1.0000 0.1317097359
H   H101      1.0  0.57560  0.94100  0.19200  1.0000 0.1111213218
H   H102      1.0  0.92440  0.05900  0.69200  1.0000 0.1111213218
H   H103      1.0  0.07560  0.55900  0.80800  1.0000 0.1111213218
H   H104      1.0  0.42440  0.44100  0.30800  1.0000 0.1111213218
H   H105      1.0  0.26660  0.27870  0.19980  1.0000 0.0986800178
H   H106      1.0  0.23340  0.72130  0.69980  1.0000 0.0986800178
H   H107      1.0  0.76660  0.22130  0.80020  1.0000 0.0986800178
H   H108      1.0  0.73340  0.77870  0.30020  1.0000 0.0986800178
H   H109      1.0  0.25800  0.31880  0.15620  1.0000 0.1317097359
H   H110      1.0  0.24200  0.68120  0.65620  1.0000 0.1317097359
H   H111      1.0  0.75800  0.18120  0.84380  1.0000 0.1317097359
H   H112      1.0  0.74200  0.81880  0.34380  1.0000 0.1317097359
C   C1        1.0  0.49300  0.87010  0.97241  1.0000 0.632336805
C   C2        1.0  0.00700  0.12990  0.47241  1.0000 0.632336805
C   C3        1.0  0.99300  0.62990  0.02759  1.0000 0.632336805
C   C4        1.0  0.50700  0.37010  0.52759  1.0000 0.632336805
C   C5        1.0  0.50190  0.69100  0.97180  1.0000 -0.3811952003
C   C6        1.0  0.99810  0.30900  0.47180  1.0000 -0.3811952003
C   C7        1.0  0.00190  0.80900  0.02820  1.0000 -0.3811952003
C   C8        1.0  0.49810  0.19100  0.52820  1.0000 -0.3811952003
C   C9        1.0  0.46930  0.62330  0.99818  1.0000 0.080730188
C   C10       1.0  0.03070  0.37670  0.49818  1.0000 0.080730188
C   C11       1.0  0.96930  0.87670  0.00182  1.0000 0.080730188
C   C12       1.0  0.53070  0.12330  0.50182  1.0000 0.080730188
C   C13       1.0  0.48320  0.44530  0.99677  1.0000 0.5431086443
C   C14       1.0  0.01680  0.55470  0.49677  1.0000 0.5431086443
C   C15       1.0  0.98320  0.05470  0.00323  1.0000 0.5431086443
C   C16       1.0  0.51680  0.94530  0.50323  1.0000 0.5431086443
C   C17       1.0  0.37820  0.07450  0.72429  1.0000 0.632336805
C   C18       1.0  0.12180  0.92550  0.22429  1.0000 0.632336805
C   C19       1.0  0.87820  0.42550  0.27571  1.0000 0.632336805
C   C20       1.0  0.62180  0.57450  0.77571  1.0000 0.632336805
C   C21       1.0  0.55600  0.08520  0.72373  1.0000 -0.3811952003
C   C22       1.0  0.94400  0.91480  0.22373  1.0000 -0.3811952003
C   C23       1.0  0.05600  0.41480  0.27627  1.0000 -0.3811952003
C   C24       1.0  0.44400  0.58520  0.77627  1.0000 -0.3811952003
C   C25       1.0  0.62660  0.05080  0.74929  1.0000 0.080730188
C   C26       1.0  0.87340  0.94920  0.24929  1.0000 0.080730188
C   C27       1.0  0.12660  0.44920  0.25071  1.0000 0.080730188
C   C28       1.0  0.37340  0.55080  0.75071  1.0000 0.080730188
C   C29       1.0  0.80210  0.06070  0.74762  1.0000 0.55139217
C   C30       1.0  0.69790  0.93930  0.24762  1.0000 0.55139217
C   C31       1.0  0.30210  0.43930  0.25238  1.0000 0.55139217
C   C32       1.0  0.19790  0.56070  0.75238  1.0000 0.55139217
C   C33       1.0  0.40080  0.25300  0.93151  1.0000 0.080730188
C   C34       1.0  0.09920  0.74700  0.43151  1.0000 0.080730188
C   C35       1.0  0.90080  0.24700  0.06849  1.0000 0.080730188
C   C36       1.0  0.59920  0.75300  0.56849  1.0000 0.080730188
C   C37       1.0  0.38610  0.24480  0.90554  1.0000 -0.2103272406
C   C38       1.0  0.11390  0.75520  0.40554  1.0000 -0.2103272406
C   C39       1.0  0.88610  0.25520  0.09446  1.0000 -0.2103272406
C   C40       1.0  0.61390  0.74480  0.59446  1.0000 -0.2103272406
C   C41       1.0  0.27470  0.15200  0.89432  1.0000 0.1558834299
C   C42       1.0  0.22530  0.84800  0.39432  1.0000 0.1558834299
C   C43       1.0  0.77470  0.34800  0.10568  1.0000 0.1558834299
C   C44       1.0  0.72530  0.65200  0.60568  1.0000 0.1558834299
C   C45       1.0  0.17780  0.06900  0.91085  1.0000 -0.2006928486
C   C46       1.0  0.32220  0.93100  0.41085  1.0000 -0.2006928486
C   C47       1.0  0.67780  0.43100  0.08915  1.0000 -0.2006928486
C   C48       1.0  0.82220  0.56900  0.58915  1.0000 -0.2006928486
C   C49       1.0  0.20270  0.08010  0.93696  1.0000 0.0986800178
C   C50       1.0  0.29730  0.91990  0.43696  1.0000 0.0986800178
C   C51       1.0  0.70270  0.41990  0.06304  1.0000 0.0986800178
C   C52       1.0  0.79730  0.58010  0.56304  1.0000 0.0986800178
C   C53       1.0  0.26430  0.13960  0.86673  1.0000 -0.1641592362
C   C54       1.0  0.23570  0.86040  0.36673  1.0000 -0.1641592362
C   C55       1.0  0.76430  0.36040  0.13327  1.0000 -0.1641592362
C   C56       1.0  0.73570  0.63960  0.63327  1.0000 -0.1641592362
C   C57       1.0  0.15980  0.04630  0.85465  1.0000 -0.1509236857
C   C58       1.0  0.34020  0.95370  0.35465  1.0000 -0.1509236857
C   C59       1.0  0.65980  0.45370  0.14535  1.0000 -0.1509236857
C   C60       1.0  0.84020  0.54630  0.64535  1.0000 -0.1509236857
C   C61       1.0  0.14740  0.02970  0.82686  1.0000 0.1516377352
C   C62       1.0  0.35260  0.97030  0.32686  1.0000 0.1516377352
C   C63       1.0  0.64740  0.47030  0.17314  1.0000 0.1516377352
C   C64       1.0  0.85260  0.52970  0.67314  1.0000 0.1516377352
C   C65       1.0  0.22480  0.12080  0.80939  1.0000 -0.1891699039
C   C66       1.0  0.27520  0.87920  0.30939  1.0000 -0.1891699039
C   C67       1.0  0.72480  0.37920  0.19061  1.0000 -0.1891699039
C   C68       1.0  0.77520  0.62080  0.69061  1.0000 -0.1891699039
C   C69       1.0  0.20600  0.09360  0.78410  1.0000 0.1111213218
C   C70       1.0  0.29400  0.90640  0.28410  1.0000 0.1111213218
C   C71       1.0  0.70600  0.40640  0.21590  1.0000 0.1111213218
C   C72       1.0  0.79400  0.59360  0.71590  1.0000 0.1111213218
C   C73       1.0  0.03450  0.89600  0.79151  1.0000 0.0986800178
C   C74       1.0  0.46550  0.10400  0.29151  1.0000 0.0986800178
C   C75       1.0  0.53450  0.60400  0.20849  1.0000 0.0986800178
C   C76       1.0  0.96550  0.39600  0.70849  1.0000 0.0986800178
C   C77       1.0  0.04540  0.91640  0.81747  1.0000 -0.2103272406
C   C78       1.0  0.45460  0.08360  0.31747  1.0000 -0.2103272406
C   C79       1.0  0.54540  0.58360  0.18253  1.0000 -0.2103272406
C   C80       1.0  0.95460  0.41640  0.68253  1.0000 -0.2103272406
C   C81       1.0  0.30700  0.23320  0.03807  1.0000 0.0986800178
C   C82       1.0  0.19300  0.76680  0.53807  1.0000 0.0986800178
C   C83       1.0  0.80700  0.26680  0.96193  1.0000 0.0986800178
C   C84       1.0  0.69300  0.73320  0.46193  1.0000 0.0986800178
C   C85       1.0  0.32210  0.22330  0.06419  1.0000 -0.2103272406
C   C86       1.0  0.17790  0.77670  0.56419  1.0000 -0.2103272406
C   C87       1.0  0.82210  0.27670  0.93581  1.0000 -0.2103272406
C   C88       1.0  0.67790  0.72330  0.43581  1.0000 -0.2103272406
C   C89       1.0  0.42600  0.11410  0.07484  1.0000 0.1412362096
C   C90       1.0  0.07400  0.88590  0.57484  1.0000 0.1412362096
C   C91       1.0  0.92600  0.38590  0.92516  1.0000 0.1412362096
C   C92       1.0  0.57400  0.61410  0.42516  1.0000 0.1412362096
C   C93       1.0  0.51240  0.02860  0.05841  1.0000 -0.1891699039
C   C94       1.0  0.98760  0.97140  0.55841  1.0000 -0.1891699039
C   C95       1.0  0.01240  0.47140  0.94159  1.0000 -0.1891699039
C   C96       1.0  0.48760  0.52860  0.44159  1.0000 -0.1891699039
C   C97       1.0  0.49460  0.04160  0.03229  1.0000 0.0986800178
C   C98       1.0  0.00540  0.95840  0.53229  1.0000 0.0986800178
C   C99       1.0  0.99460  0.45840  0.96771  1.0000 0.0986800178
C   C100      1.0  0.50540  0.54160  0.46771  1.0000 0.0986800178
C   C101      1.0  0.45380  0.09420  0.10186  1.0000 -0.1336698361
C   C102      1.0  0.04620  0.90580  0.60186  1.0000 -0.1336698361
C   C103      1.0  0.95380  0.40580  0.89814  1.0000 -0.1336698361
C   C104      1.0  0.54620  0.59420  0.39814  1.0000 -0.1336698361
C   C105      1.0  0.38590  0.17310  0.11969  1.0000 -0.1376905606
C   C106      1.0  0.11410  0.82690  0.61969  1.0000 -0.1376905606
C   C107      1.0  0.88590  0.32690  0.88031  1.0000 -0.1376905606
C   C108      1.0  0.61410  0.67310  0.38031  1.0000 -0.1376905606
C   C109      1.0  0.40650  0.14470  0.14730  1.0000 0.1558834299
C   C110      1.0  0.09350  0.85530  0.64730  1.0000 0.1558834299
C   C111      1.0  0.90650  0.35530  0.85270  1.0000 0.1558834299
C   C112      1.0  0.59350  0.64470  0.35270  1.0000 0.1558834299
C   C113      1.0  0.50200  0.03190  0.15817  1.0000 -0.2006928486
C   C114      1.0  0.99800  0.96810  0.65817  1.0000 -0.2006928486
C   C115      1.0  0.00200  0.46810  0.84183  1.0000 -0.2006928486
C   C116      1.0  0.49800  0.53190  0.34183  1.0000 -0.2006928486
C   C117      1.0  0.50770  0.01570  0.18461  1.0000 0.080730188
C   C118      1.0  0.99230  0.98430  0.68461  1.0000 0.080730188
C   C119      1.0  0.00770  0.48430  0.81539  1.0000 0.080730188
C   C120      1.0  0.49230  0.51570  0.31539  1.0000 0.080730188
C   C121      1.0  0.32820  0.21440  0.18913  1.0000 0.0986800178
C   C122      1.0  0.17180  0.78560  0.68913  1.0000 0.0986800178
C   C123      1.0  0.82820  0.28560  0.81087  1.0000 0.0986800178
C   C124      1.0  0.67180  0.71440  0.31087  1.0000 0.0986800178
C   C125      1.0  0.32130  0.23830  0.16304  1.0000 -0.2006928486
C   C126      1.0  0.17870  0.76170  0.66304  1.0000 -0.2006928486
C   C127      1.0  0.82130  0.26170  0.83696  1.0000 -0.2006928486
C   C128      1.0  0.67870  0.73830  0.33696  1.0000 -0.2006928486
N   N1        1.0  0.31330  0.16710  0.94721  1.0000 -0.2006928486
N   N2        1.0  0.18670  0.83290  0.44721  1.0000 -0.2006928486
N   N3        1.0  0.81330  0.33290  0.05279  1.0000 -0.2006928486
N   N4        1.0  0.68670  0.66710  0.55279  1.0000 -0.2006928486
N   N5        1.0  0.11410  0.98120  0.77499  1.0000 -0.2006928486
N   N6        1.0  0.38590  0.01880  0.27499  1.0000 -0.2006928486
N   N7        1.0  0.61410  0.51880  0.22501  1.0000 -0.2006928486
N   N8        1.0  0.88590  0.48120  0.72501  1.0000 -0.2006928486
N   N9        1.0  0.38740  0.14170  0.02227  1.0000 -0.2103272406
N   N10       1.0  0.11260  0.85830  0.52227  1.0000 -0.2103272406
N   N11       1.0  0.88740  0.35830  0.97773  1.0000 -0.2103272406
N   N12       1.0  0.61260  0.64170  0.47773  1.0000 -0.2103272406
N   N13       1.0  0.41710  0.10560  0.19986  1.0000 -0.2006928486
N   N14       1.0  0.08290  0.89440  0.69986  1.0000 -0.2103272406
N   N15       1.0  0.91710  0.39440  0.80014  1.0000 -0.2006928486
N   N16       1.0  0.58290  0.60560  0.30014  1.0000 -0.2103272406
O   O1        1.0  0.36790  0.92560  0.98205  1.0000 -0.5590904184
O   O2        1.0  0.13210  0.07440  0.48205  1.0000 -0.5590904184
O   O3        1.0  0.86790  0.57440  0.01795  1.0000 -0.5590904184
O   O4        1.0  0.63210  0.42560  0.51795  1.0000 -0.5590904184
O   O5        1.0  0.60010  0.95140  0.96399  1.0000 -0.6100386657
O   O6        1.0  0.89990  0.04860  0.46399  1.0000 -0.6100386657
O   O7        1.0  0.10010  0.54860  0.03601  1.0000 -0.6100386657
O   O8        1.0  0.39990  0.45140  0.53601  1.0000 -0.6100386657
O   O9        1.0  0.56790  0.68920  0.01670  1.0000 -0.4417330303
O   O10       1.0  0.93210  0.31080  0.51670  1.0000 -0.4417330303
O   O11       1.0  0.06790  0.81080  0.98330  1.0000 -0.4417330303
O   O12       1.0  0.43210  0.18920  0.48330  1.0000 -0.4417330303
O   O13       1.0  0.36830  0.38190  0.98521  1.0000 -0.5590904184
O   O14       1.0  0.13170  0.61810  0.48521  1.0000 -0.5590904184
O   O15       1.0  0.86830  0.11810  0.01479  1.0000 -0.5590904184
O   O16       1.0  0.63170  0.88190  0.51479  1.0000 -0.5590904184
O   O17       1.0  0.59550  0.37920  0.00608  1.0000 -0.5662215405
O   O18       1.0  0.90450  0.62080  0.50608  1.0000 -0.5662215405
O   O19       1.0  0.09550  0.12080  0.99392  1.0000 -0.5662215405
O   O20       1.0  0.40450  0.87920  0.49392  1.0000 -0.5662215405
O   O21       1.0  0.32380  0.95100  0.73469  1.0000 -0.5662215405
O   O22       1.0  0.17620  0.04900  0.23469  1.0000 -0.5662215405
O   O23       1.0  0.82380  0.54900  0.26531  1.0000 -0.5662215405
O   O24       1.0  0.67620  0.45100  0.76531  1.0000 -0.5662215405
O   O25       1.0  0.29740  0.18180  0.71595  1.0000 -0.5905513741
O   O26       1.0  0.20260  0.81820  0.21595  1.0000 -0.5905513741
O   O27       1.0  0.79740  0.31820  0.28405  1.0000 -0.5905513741
O   O28       1.0  0.70260  0.68180  0.78405  1.0000 -0.5905513741
O   O29       1.0  0.56510  0.15230  0.76832  1.0000 -0.4737936386
O   O30       1.0  0.93490  0.84770  0.26832  1.0000 -0.4737936386
O   O31       1.0  0.06510  0.34770  0.23168  1.0000 -0.4737936386
O   O32       1.0  0.43490  0.65230  0.73168  1.0000 -0.4737936386
O   O33       1.0  0.86870  0.93610  0.73886  1.0000 -0.5590904184
O   O34       1.0  0.63130  0.06390  0.23886  1.0000 -0.5590904184
O   O35       1.0  0.36870  0.56390  0.26114  1.0000 -0.5590904184
O   O36       1.0  0.13130  0.43610  0.76114  1.0000 -0.5590904184
O   O37       1.0  0.87300  0.18040  0.75361  1.0000 -0.5905513741
O   O38       1.0  0.62700  0.81960  0.25361  1.0000 -0.5905513741
O   O39       1.0  0.37300  0.31960  0.24639  1.0000 -0.5905513741
O   O40       1.0  0.12700  0.68040  0.74639  1.0000 -0.5905513741
