# DDEC6 charges by PACMAN v1.1 (https://github.com/mtap-research/PACMAN-charge/)
data_2014[Zn][nan]3[FSR]7
_chemical_formula_sum              "Zn6 H6 C24 O18"
_cell_length_a       15.1178
_cell_length_b       15.1178
_cell_length_c       15.1178
_cell_angle_alpha    117.78
_cell_angle_beta     117.78
_cell_angle_gamma    117.78

_symmetry_space_group_name_H-M    "P 1"
_symmetry_Int_Tables_number       1

loop_
  _symmetry_equiv_pos_as_xyz
  'x, y, z'

loop_
  _atom_site_type_symbol
  _atom_site_label
  _atom_site_symmetry_multiplicity
  _atom_site_fract_x
  _atom_site_fract_y
  _atom_site_fract_z
  _atom_site_occupancy
  _atom_site_charge
Zn  Zn1       1.0  0.10430  0.51910  0.78310  1.0000 0.9854045038
Zn  Zn2       1.0  0.51910  0.78310  0.10430  1.0000 0.9854045038
Zn  Zn3       1.0  0.78310  0.10430  0.51910  1.0000 0.9854045038
Zn  Zn4       1.0  0.89570  0.48090  0.21690  1.0000 0.9854045038
Zn  Zn5       1.0  0.48090  0.21690  0.89570  1.0000 0.9854045038
Zn  Zn6       1.0  0.21690  0.89570  0.48090  1.0000 0.9854045038
H   H1        1.0  0.67730  0.21070  0.65300  1.0000 0.1498910214
H   H2        1.0  0.21070  0.65300  0.67730  1.0000 0.1498910214
H   H3        1.0  0.65300  0.67730  0.21070  1.0000 0.1498910214
H   H4        1.0  0.32270  0.78930  0.34700  1.0000 0.1498910214
H   H5        1.0  0.78930  0.34700  0.32270  1.0000 0.1498910214
H   H6        1.0  0.34700  0.32270  0.78930  1.0000 0.1498910214
C   C1        1.0  0.35820  0.74550  0.18480  1.0000 0.650321943
C   C2        1.0  0.74550  0.18480  0.35820  1.0000 0.650321943
C   C3        1.0  0.18480  0.35820  0.74550  1.0000 0.650321943
C   C4        1.0  0.64180  0.25450  0.81520  1.0000 0.650321943
C   C5        1.0  0.25450  0.81520  0.64180  1.0000 0.650321943
C   C6        1.0  0.81520  0.64180  0.25450  1.0000 0.650321943
C   C7        1.0  0.16380  0.60920  0.07690  1.0000 -0.1373030121
C   C8        1.0  0.60920  0.07690  0.16380  1.0000 -0.1373030121
C   C9        1.0  0.07690  0.16380  0.60920  1.0000 -0.1373030121
C   C10       1.0  0.83620  0.39080  0.92310  1.0000 -0.1373030121
C   C11       1.0  0.39080  0.92310  0.83620  1.0000 -0.1373030121
C   C12       1.0  0.92310  0.83620  0.39080  1.0000 -0.1373030121
C   C13       1.0  0.97290  0.43510  0.87370  1.0000 0.2768177216
C   C14       1.0  0.43510  0.87370  0.97290  1.0000 0.2768177216
C   C15       1.0  0.87370  0.97290  0.43510  1.0000 0.2768177216
C   C16       1.0  0.02710  0.56490  0.12630  1.0000 0.2768177216
C   C17       1.0  0.56490  0.12630  0.02710  1.0000 0.2768177216
C   C18       1.0  0.12630  0.02710  0.56490  1.0000 0.2768177216
C   C19       1.0  0.80370  0.32160  0.79160  1.0000 -0.1859942575
C   C20       1.0  0.32160  0.79160  0.80370  1.0000 -0.1859942575
C   C21       1.0  0.79160  0.80370  0.32160  1.0000 -0.1859942575
C   C22       1.0  0.19630  0.67840  0.20840  1.0000 -0.1859942575
C   C23       1.0  0.67840  0.20840  0.19630  1.0000 -0.1859942575
C   C24       1.0  0.20840  0.19630  0.67840  1.0000 -0.1859942575
O   O1        1.0  0.32910  0.68890  0.06740  1.0000 -0.568448541
O   O2        1.0  0.68890  0.06740  0.32910  1.0000 -0.568448541
O   O3        1.0  0.06740  0.32910  0.68890  1.0000 -0.568448541
O   O4        1.0  0.67090  0.31110  0.93260  1.0000 -0.568448541
O   O5        1.0  0.31110  0.93260  0.67090  1.0000 -0.568448541
O   O6        1.0  0.93260  0.67090  0.31110  1.0000 -0.568448541
O   O7        1.0  0.53270  0.91100  0.37940  1.0000 -0.5231864626
O   O8        1.0  0.91100  0.37940  0.53270  1.0000 -0.5231864626
O   O9        1.0  0.37940  0.53270  0.91100  1.0000 -0.5231864626
O   O10       1.0  0.46730  0.08900  0.62060  1.0000 -0.5231864626
O   O11       1.0  0.08900  0.62060  0.46730  1.0000 -0.5231864626
O   O12       1.0  0.62060  0.46730  0.08900  1.0000 -0.5231864626
O   O13       1.0  0.92220  0.35680  0.72880  1.0000 -0.6475029165
O   O14       1.0  0.35680  0.72880  0.92220  1.0000 -0.6475029165
O   O15       1.0  0.72880  0.92220  0.35680  1.0000 -0.6475029165
O   O16       1.0  0.07780  0.64320  0.27120  1.0000 -0.6475029165
O   O17       1.0  0.64320  0.27120  0.07780  1.0000 -0.6475029165
O   O18       1.0  0.27120  0.07780  0.64320  1.0000 -0.6475029165
