# DDEC6 charges by PACMAN v1.1 (https://github.com/mtap-research/PACMAN-charge/)
data_2014[Ni][nan]3[FSR]6
_chemical_formula_sum              "Ni6 H6 C24 O18"
_cell_length_a       15.0663
_cell_length_b       15.0663
_cell_length_c       15.0663
_cell_angle_alpha    117.803
_cell_angle_beta     117.803
_cell_angle_gamma    117.803

_symmetry_space_group_name_H-M    "P 1"
_symmetry_Int_Tables_number       1

loop_
  _symmetry_equiv_pos_as_xyz
  'x, y, z'

loop_
  _atom_site_type_symbol
  _atom_site_label
  _atom_site_symmetry_multiplicity
  _atom_site_fract_x
  _atom_site_fract_y
  _atom_site_fract_z
  _atom_site_occupancy
  _atom_site_charge
Ni  Ni1       1.0  0.88380  0.18440  0.60280  1.0000 0.7271049408
Ni  Ni2       1.0  0.18440  0.60280  0.88380  1.0000 0.7271049408
Ni  Ni3       1.0  0.60280  0.88380  0.18440  1.0000 0.7271049408
Ni  Ni4       1.0  0.18440  0.88380  0.60280  1.0000 0.7271049408
Ni  Ni5       1.0  0.88380  0.60280  0.18440  1.0000 0.7271049408
Ni  Ni6       1.0  0.60280  0.18440  0.88380  1.0000 0.7271049408
H   H1        1.0  0.77080  0.27600  0.77120  1.0000 0.1991508392
H   H2        1.0  0.27600  0.77120  0.77080  1.0000 0.1991508392
H   H3        1.0  0.77120  0.77080  0.27600  1.0000 0.1991508392
H   H4        1.0  0.47220  0.90200  0.47180  1.0000 0.1345244137
H   H5        1.0  0.90200  0.47180  0.47220  1.0000 0.1345244137
H   H6        1.0  0.47180  0.47220  0.90200  1.0000 0.1345244137
C   C1        1.0  0.04300  0.48850  0.94950  1.0000 0.4100601412
C   C2        1.0  0.48850  0.94950  0.04300  1.0000 0.4100601412
C   C3        1.0  0.94950  0.04300  0.48850  1.0000 0.4100601412
C   C4        1.0  0.48850  0.04300  0.94950  1.0000 0.4100601412
C   C5        1.0  0.04300  0.94950  0.48850  1.0000 0.4100601412
C   C6        1.0  0.94950  0.48850  0.04300  1.0000 0.4100601412
C   C7        1.0  0.91210  0.41980  0.91210  1.0000 -0.4141989561
C   C8        1.0  0.41980  0.91210  0.91210  1.0000 -0.4141989561
C   C9        1.0  0.91210  0.91210  0.41980  1.0000 -0.4141989561
C   C10       1.0  0.27860  0.70390  0.18850  1.0000 -0.1267071279
C   C11       1.0  0.70390  0.18850  0.27860  1.0000 -0.1267071279
C   C12       1.0  0.18850  0.27860  0.70390  1.0000 -0.1267071279
C   C13       1.0  0.70390  0.27860  0.18850  1.0000 -0.1267071279
C   C14       1.0  0.27860  0.18850  0.70390  1.0000 -0.1267071279
C   C15       1.0  0.18850  0.70390  0.27860  1.0000 -0.1267071279
C   C16       1.0  0.44740  0.80510  0.26050  1.0000 0.5985722529
C   C17       1.0  0.80510  0.26050  0.44740  1.0000 0.5985722529
C   C18       1.0  0.26050  0.44740  0.80510  1.0000 0.5985722529
C   C19       1.0  0.80510  0.44740  0.26050  1.0000 0.5985722529
C   C20       1.0  0.44740  0.26050  0.80510  1.0000 0.5985722529
C   C21       1.0  0.26050  0.80510  0.44740  1.0000 0.5985722529
C   C22       1.0  0.31330  0.76040  0.31330  1.0000 -0.051464318
C   C23       1.0  0.76040  0.31330  0.31330  1.0000 -0.051464318
C   C24       1.0  0.31330  0.31330  0.76040  1.0000 -0.051464318
O   O1        1.0  0.01480  0.43390  0.84030  1.0000 -0.4386249197
O   O2        1.0  0.43390  0.84030  0.01480  1.0000 -0.4386249197
O   O3        1.0  0.84030  0.01480  0.43390  1.0000 -0.4386249197
O   O4        1.0  0.43390  0.01480  0.84030  1.0000 -0.4386249197
O   O5        1.0  0.01480  0.84030  0.43390  1.0000 -0.4386249197
O   O6        1.0  0.84030  0.43390  0.01480  1.0000 -0.4386249197
O   O7        1.0  0.39060  0.73800  0.12040  1.0000 -0.5741683555
O   O8        1.0  0.73800  0.12040  0.39060  1.0000 -0.5741683555
O   O9        1.0  0.12040  0.39060  0.73800  1.0000 -0.5741683555
O   O10       1.0  0.73800  0.39060  0.12040  1.0000 -0.5741683555
O   O11       1.0  0.39060  0.12040  0.73800  1.0000 -0.5741683555
O   O12       1.0  0.12040  0.73800  0.39060  1.0000 -0.5741683555
O   O13       1.0  0.62710  0.95900  0.45490  1.0000 -0.5302429212
O   O14       1.0  0.95900  0.45490  0.62710  1.0000 -0.5302429212
O   O15       1.0  0.45490  0.62710  0.95900  1.0000 -0.5302429212
O   O16       1.0  0.95900  0.62710  0.45490  1.0000 -0.5302429212
O   O17       1.0  0.62710  0.45490  0.95900  1.0000 -0.5302429212
O   O18       1.0  0.45490  0.95900  0.62710  1.0000 -0.5302429212
