# DDEC6 charges by PACMAN v1.1 (https://github.com/mtap-research/PACMAN-charge/)
data_2014[Dy][nan]3[FSR]1
_chemical_formula_sum              "Dy4 H56 C68 N4 O28"
_cell_length_a       6.3462
_cell_length_b       16.58
_cell_length_c       24.018
_cell_angle_alpha    90
_cell_angle_beta     90.683
_cell_angle_gamma    90

_symmetry_space_group_name_H-M    "P 1"
_symmetry_Int_Tables_number       1

loop_
  _symmetry_equiv_pos_as_xyz
  'x, y, z'

loop_
  _atom_site_type_symbol
  _atom_site_label
  _atom_site_symmetry_multiplicity
  _atom_site_fract_x
  _atom_site_fract_y
  _atom_site_fract_z
  _atom_site_occupancy
  _atom_site_charge
Dy  Dy1       1.0  0.73761  0.93783  0.97679  1.0000 2.0666476094
Dy  Dy2       1.0  0.26239  0.43783  0.52321  1.0000 2.0666476094
Dy  Dy3       1.0  0.26239  0.06217  0.02321  1.0000 2.0666476094
Dy  Dy4       1.0  0.73761  0.56217  0.47679  1.0000 2.0666476094
H   H1        1.0  0.37510  0.20750  0.18660  1.0000 0.1302867949
H   H2        1.0  0.62490  0.70750  0.31340  1.0000 0.1302867949
H   H3        1.0  0.62490  0.79250  0.81340  1.0000 0.1302867949
H   H4        1.0  0.37510  0.29250  0.68660  1.0000 0.1302867949
H   H5        1.0  0.97190  0.15300  0.23420  1.0000 0.1113832105
H   H6        1.0  0.02810  0.65300  0.26580  1.0000 0.1113832105
H   H7        1.0  0.02810  0.84700  0.76580  1.0000 0.1113832105
H   H8        1.0  0.97190  0.34700  0.73420  1.0000 0.1113832105
H   H9        1.0  0.01700  0.08090  0.15360  1.0000 0.1202941785
H   H10       1.0  0.98300  0.58090  0.34640  1.0000 0.1202941785
H   H11       1.0  0.98300  0.91910  0.84640  1.0000 0.1202941785
H   H12       1.0  0.01700  0.41910  0.65360  1.0000 0.1202941785
H   H13       1.0  0.93840  0.28430  0.27120  1.0000 0.1369969004
H   H14       1.0  0.06160  0.78430  0.22880  1.0000 0.1369969004
H   H15       1.0  0.06160  0.71570  0.72880  1.0000 0.1302867949
H   H16       1.0  0.93840  0.21570  0.77120  1.0000 0.1302867949
H   H17       1.0  0.29030  0.29110  0.36010  1.0000 0.1113832105
H   H18       1.0  0.70970  0.79110  0.13990  1.0000 0.1113832105
H   H19       1.0  0.70970  0.70890  0.63990  1.0000 0.1113832105
H   H20       1.0  0.29030  0.20890  0.86010  1.0000 0.1113832105
H   H21       1.0  0.33670  0.20610  0.28440  1.0000 0.1202941785
H   H22       1.0  0.66330  0.70610  0.21560  1.0000 0.1202941785
H   H23       1.0  0.66330  0.79390  0.71560  1.0000 0.1202941785
H   H24       1.0  0.33670  0.29390  0.78440  1.0000 0.1202941785
H   H25       1.0  0.86510  0.77210  0.05440  1.0000 0.0990567956
H   H26       1.0  0.13490  0.27210  0.44560  1.0000 0.0990567956
H   H27       1.0  0.13490  0.22790  0.94560  1.0000 0.0990567956
H   H28       1.0  0.86510  0.72790  0.55440  1.0000 0.0990567956
H   H29       1.0  0.00080  0.66500  0.09950  1.0000 0.1302867949
H   H30       1.0  0.99920  0.16500  0.40050  1.0000 0.1302867949
H   H31       1.0  0.99920  0.33500  0.90050  1.0000 0.1302867949
H   H32       1.0  0.00080  0.83500  0.59950  1.0000 0.1302867949
H   H33       1.0  0.14290  0.61000  0.06010  1.0000 0.1369969004
H   H34       1.0  0.85710  0.11000  0.43990  1.0000 0.1369969004
H   H35       1.0  0.85710  0.39000  0.93990  1.0000 0.1369969004
H   H36       1.0  0.14290  0.89000  0.56010  1.0000 0.1369969004
H   H37       1.0  0.25230  0.67080  0.10340  1.0000 0.1302867949
H   H38       1.0  0.74770  0.17080  0.39660  1.0000 0.1302867949
H   H39       1.0  0.74770  0.32920  0.89660  1.0000 0.1302867949
H   H40       1.0  0.25230  0.82920  0.60340  1.0000 0.1302867949
H   H41       1.0  0.30480  0.77280  0.97380  1.0000 0.1540284508
H   H42       1.0  0.69520  0.27280  0.52620  1.0000 0.1540284508
H   H43       1.0  0.69520  0.22720  0.02620  1.0000 0.1540284508
H   H44       1.0  0.30480  0.72720  0.47380  1.0000 0.1540284508
H   H45       1.0  0.44250  0.73860  0.02480  1.0000 0.1302867949
H   H46       1.0  0.55750  0.23860  0.47520  1.0000 0.1302867949
H   H47       1.0  0.55750  0.26140  0.97520  1.0000 0.1302867949
H   H48       1.0  0.44250  0.76140  0.52480  1.0000 0.1302867949
H   H49       1.0  0.33420  0.67760  0.98150  1.0000 0.1369969004
H   H50       1.0  0.66580  0.17760  0.51850  1.0000 0.1369969004
H   H51       1.0  0.66580  0.32240  0.01850  1.0000 0.1369969004
H   H52       1.0  0.33420  0.82240  0.48150  1.0000 0.1369969004
H   H53       1.0  0.90570  0.41800  0.37300  1.0000 0.3554218912
H   H54       1.0  0.09430  0.91800  0.12700  1.0000 0.3554218912
H   H55       1.0  0.09430  0.58200  0.62700  1.0000 0.3554218912
H   H56       1.0  0.90570  0.08200  0.87300  1.0000 0.3554218912
C   C1        1.0  0.76720  0.05590  0.06780  1.0000 0.6502996736
C   C2        1.0  0.23280  0.55590  0.43220  1.0000 0.6502996736
C   C3        1.0  0.23280  0.94410  0.93220  1.0000 0.6502996736
C   C4        1.0  0.76720  0.44410  0.56780  1.0000 0.6502996736
C   C5        1.0  0.72680  0.10090  0.11880  1.0000 -0.1981035939
C   C6        1.0  0.27320  0.60090  0.38120  1.0000 -0.1981035939
C   C7        1.0  0.27320  0.89910  0.88120  1.0000 -0.1981035939
C   C8        1.0  0.72680  0.39910  0.61880  1.0000 -0.1981035939
C   C9        1.0  0.52890  0.13850  0.12870  1.0000 0.3879449197
C   C10       1.0  0.47110  0.63850  0.37130  1.0000 0.3879449197
C   C11       1.0  0.47110  0.86150  0.87130  1.0000 0.3879449197
C   C12       1.0  0.52890  0.36150  0.62870  1.0000 0.3879449197
C   C13       1.0  0.50610  0.18220  0.17920  1.0000 -0.2777710578
C   C14       1.0  0.49390  0.68220  0.32080  1.0000 -0.2777710578
C   C15       1.0  0.49390  0.81780  0.82080  1.0000 -0.2777710578
C   C16       1.0  0.50610  0.31780  0.67920  1.0000 -0.2777710578
C   C17       1.0  0.66740  0.18900  0.21770  1.0000 0.0990567956
C   C18       1.0  0.33260  0.68900  0.28230  1.0000 0.0990567956
C   C19       1.0  0.33260  0.81100  0.78230  1.0000 0.0990567956
C   C20       1.0  0.66740  0.31100  0.71770  1.0000 0.0990567956
C   C21       1.0  0.86020  0.14970  0.20760  1.0000 -0.1981035939
C   C22       1.0  0.13980  0.64970  0.29240  1.0000 -0.1981035939
C   C23       1.0  0.13980  0.85030  0.79240  1.0000 -0.1981035939
C   C24       1.0  0.86020  0.35030  0.70760  1.0000 -0.1981035939
C   C25       1.0  0.88630  0.10720  0.15960  1.0000 -0.0609496257
C   C26       1.0  0.11370  0.60720  0.34040  1.0000 -0.0609496257
C   C27       1.0  0.11370  0.89280  0.84040  1.0000 -0.0609496257
C   C28       1.0  0.88630  0.39280  0.65960  1.0000 -0.0609496257
C   C29       1.0  0.64070  0.23850  0.26870  1.0000 0.0990567956
C   C30       1.0  0.35930  0.73850  0.23130  1.0000 0.0990567956
C   C31       1.0  0.35930  0.76150  0.73130  1.0000 0.0990567956
C   C32       1.0  0.64070  0.26150  0.76870  1.0000 0.0990567956
C   C33       1.0  0.80510  0.28670  0.28870  1.0000 -0.2777710578
C   C34       1.0  0.19490  0.78670  0.21130  1.0000 -0.2777710578
C   C35       1.0  0.19490  0.71330  0.71130  1.0000 -0.2777710578
C   C36       1.0  0.80510  0.21330  0.78870  1.0000 -0.2777710578
C   C37       1.0  0.77750  0.33760  0.33333  1.0000 0.2875967525
C   C38       1.0  0.22250  0.83760  0.16667  1.0000 0.2875967525
C   C39       1.0  0.22250  0.66240  0.66667  1.0000 0.2875967525
C   C40       1.0  0.77750  0.16240  0.83333  1.0000 0.2875967525
C   C41       1.0  0.58250  0.34040  0.36140  1.0000 -0.1811094007
C   C42       1.0  0.41750  0.84040  0.13860  1.0000 -0.1811094007
C   C43       1.0  0.41750  0.65960  0.63860  1.0000 -0.1811094007
C   C44       1.0  0.58250  0.15960  0.86140  1.0000 -0.1811094007
C   C45       1.0  0.42230  0.29050  0.34180  1.0000 -0.0844307582
C   C46       1.0  0.57770  0.79050  0.15820  1.0000 -0.0844307582
C   C47       1.0  0.57770  0.70950  0.65820  1.0000 -0.0844307582
C   C48       1.0  0.42230  0.20950  0.84180  1.0000 -0.0844307582
C   C49       1.0  0.44910  0.23990  0.29650  1.0000 -0.1859485752
C   C50       1.0  0.55090  0.73990  0.20350  1.0000 -0.1859485752
C   C51       1.0  0.55090  0.76010  0.70350  1.0000 -0.1859485752
C   C52       1.0  0.44910  0.26010  0.79650  1.0000 -0.1859485752
C   C53       1.0  0.54830  0.39560  0.40880  1.0000 0.6502996736
C   C54       1.0  0.45170  0.89560  0.09120  1.0000 0.6502996736
C   C55       1.0  0.45170  0.60440  0.59120  1.0000 0.6502996736
C   C56       1.0  0.54830  0.10440  0.90880  1.0000 0.6502996736
C   C57       1.0  0.98040  0.77710  0.02980  1.0000 0.2773258888
C   C58       1.0  0.01960  0.27710  0.47020  1.0000 0.2773258888
C   C59       1.0  0.01960  0.22290  0.97020  1.0000 0.2773258888
C   C60       1.0  0.98040  0.72290  0.52980  1.0000 0.2773258888
C   C61       1.0  0.13100  0.66280  0.07820  1.0000 -0.343775133
C   C62       1.0  0.86900  0.16280  0.42180  1.0000 -0.343775133
C   C63       1.0  0.86900  0.33720  0.92180  1.0000 -0.343775133
C   C64       1.0  0.13100  0.83720  0.57820  1.0000 -0.343775133
C   C65       1.0  0.31840  0.72910  0.00110  1.0000 -0.3229361645
C   C66       1.0  0.68160  0.22910  0.49890  1.0000 -0.3229361645
C   C67       1.0  0.68160  0.27090  0.99890  1.0000 -0.3229361645
C   C68       1.0  0.31840  0.77090  0.50110  1.0000 -0.3229361645
N   N1        1.0  0.12900  0.72640  0.03560  1.0000 0.0399820709
N   N2        1.0  0.87100  0.22640  0.46440  1.0000 0.0399820709
N   N3        1.0  0.87100  0.27360  0.96440  1.0000 0.0399820709
N   N4        1.0  0.12900  0.77360  0.53560  1.0000 0.0399820709
O   O1        1.0  0.94060  0.01900  0.05970  1.0000 -0.7191164291
O   O2        1.0  0.05940  0.51900  0.44030  1.0000 -0.7191164291
O   O3        1.0  0.05940  0.98100  0.94030  1.0000 -0.7191164291
O   O4        1.0  0.94060  0.48100  0.55970  1.0000 -0.7191164291
O   O5        1.0  0.62720  0.05080  0.02940  1.0000 -0.7327522433
O   O6        1.0  0.37280  0.55080  0.47060  1.0000 -0.7327522433
O   O7        1.0  0.37280  0.94920  0.97060  1.0000 -0.7327522433
O   O8        1.0  0.62720  0.44920  0.52940  1.0000 -0.7327522433
O   O9        1.0  0.39070  0.38320  0.44030  1.0000 -0.6717788375
O   O10       1.0  0.60930  0.88320  0.05970  1.0000 -0.6717788375
O   O11       1.0  0.60930  0.61680  0.55970  1.0000 -0.6717788375
O   O12       1.0  0.39070  0.11680  0.94030  1.0000 -0.6717788375
O   O13       1.0  0.67710  0.45360  0.41530  1.0000 -0.6390422977
O   O14       1.0  0.32290  0.95360  0.08470  1.0000 -0.6390422977
O   O15       1.0  0.32290  0.54640  0.58470  1.0000 -0.6390422977
O   O16       1.0  0.67710  0.04640  0.91530  1.0000 -0.6390422977
O   O17       1.0  0.36610  0.13670  0.09360  1.0000 -0.7022455729
O   O18       1.0  0.63390  0.63670  0.40640  1.0000 -0.7022455729
O   O19       1.0  0.63390  0.86330  0.90640  1.0000 -0.7022455729
O   O20       1.0  0.36610  0.36330  0.59360  1.0000 -0.7022455729
O   O21       1.0  0.94420  0.38490  0.34870  1.0000 -0.4394717015
O   O22       1.0  0.05580  0.88490  0.15130  1.0000 -0.4394717015
O   O23       1.0  0.05580  0.61510  0.65130  1.0000 -0.4394717015
O   O24       1.0  0.94420  0.11510  0.84870  1.0000 -0.4394717015
O   O25       1.0  0.97100  0.83200  0.99550  1.0000 -0.5235488809
O   O26       1.0  0.02900  0.33200  0.50450  1.0000 -0.5235488809
O   O27       1.0  0.02900  0.16800  0.00450  1.0000 -0.5235488809
O   O28       1.0  0.97100  0.66800  0.49550  1.0000 -0.5235488809
