# DDEC6 charges by PACMAN v1.1 (https://github.com/mtap-research/PACMAN-charge/)
data_2014[Mg][nan]3[FSR]8
_chemical_formula_sum              "Mg5 H14 C20 O22"
_cell_length_a       7.3742
_cell_length_b       11.4011
_cell_length_c       11.6706
_cell_angle_alpha    89.666
_cell_angle_beta     103.187
_cell_angle_gamma    105.029

_symmetry_space_group_name_H-M    "P 1"
_symmetry_Int_Tables_number       1

loop_
  _symmetry_equiv_pos_as_xyz
  'x, y, z'

loop_
  _atom_site_type_symbol
  _atom_site_label
  _atom_site_symmetry_multiplicity
  _atom_site_fract_x
  _atom_site_fract_y
  _atom_site_fract_z
  _atom_site_occupancy
  _atom_site_charge
Mg  Mg1       1.0  0.54122  0.85303  0.32564  1.0000 1.3802827351
Mg  Mg2       1.0  0.45878  0.14697  0.67436  1.0000 1.3802827351
Mg  Mg3       1.0  0.68751  0.86803  0.63601  1.0000 1.3802827351
Mg  Mg4       1.0  0.31249  0.13197  0.36399  1.0000 1.3802827351
Mg  Mg5       1.0  0.00000  0.00000  0.50000  1.0000 1.3943457359
H   H1        1.0  0.65990  0.02370  0.47920  1.0000 0.3960821384
H   H2        1.0  0.34010  0.97630  0.52080  1.0000 0.3960821384
H   H3        1.0  0.53200  0.63050  0.29400  1.0000 0.3722388351
H   H4        1.0  0.46800  0.36950  0.70600  1.0000 0.3722388351
H   H5        1.0  0.71100  0.69400  0.27800  1.0000 0.3722388351
H   H6        1.0  0.28900  0.30600  0.72200  1.0000 0.3722388351
H   H7        1.0  0.66800  0.79200  0.84870  1.0000 0.3585407788
H   H8        1.0  0.33200  0.20800  0.15130  1.0000 0.3585407788
H   H9        1.0  0.70800  0.70520  0.78200  1.0000 0.3585407788
H   H10       1.0  0.29200  0.29480  0.21800  1.0000 0.3585407788
H   H11       1.0  0.29930  0.49770  0.47320  1.0000 0.1225706392
H   H12       1.0  0.70070  0.50230  0.52680  1.0000 0.1225706392
H   H13       1.0  0.27490  0.95810  0.96970  1.0000 0.1359673792
H   H14       1.0  0.72510  0.04190  0.03030  1.0000 0.1359673792
C   C1        1.0  0.29840  0.72285  0.49377  1.0000 0.6348024362
C   C2        1.0  0.70160  0.27715  0.50623  1.0000 0.6348024362
C   C3        1.0  0.13950  0.60961  0.49846  1.0000 -0.0183091744
C   C4        1.0  0.86050  0.39039  0.50154  1.0000 -0.0183091744
C   C5        1.0  0.17860  0.49865  0.48403  1.0000 -0.1486828348
C   C6        1.0  0.82140  0.50135  0.51597  1.0000 -0.1486828348
C   C7        1.0  0.95790  0.61106  0.51471  1.0000 -0.0591506123
C   C8        1.0  0.04210  0.38894  0.48529  1.0000 -0.0591506123
C   C9        1.0  0.90720  0.72899  0.52881  1.0000 0.6159165853
C   C10       1.0  0.09280  0.27101  0.47119  1.0000 0.6159165853
C   C11       1.0  0.10060  0.02138  0.77230  1.0000 0.6437858098
C   C12       1.0  0.89940  0.97862  0.22770  1.0000 0.6437858098
C   C13       1.0  0.03870  0.00926  0.88743  1.0000 -0.0527496564
C   C14       1.0  0.96130  0.99074  0.11257  1.0000 -0.0527496564
C   C15       1.0  0.16400  0.97520  0.98202  1.0000 -0.1435064173
C   C16       1.0  0.83600  0.02480  0.01798  1.0000 -0.1435064173
C   C17       1.0  0.12880  0.96601  0.09436  1.0000 -0.0447301141
C   C18       1.0  0.87120  0.03399  0.90564  1.0000 -0.0447301141
C   C19       1.0  0.27840  0.92636  0.18569  1.0000 0.589311754
C   C20       1.0  0.72160  0.07364  0.81431  1.0000 0.589311754
O   O1        1.0  0.32640  0.74754  0.39374  1.0000 -0.6387611276
O   O2        1.0  0.67360  0.25246  0.60626  1.0000 -0.6387611276
O   O3        1.0  0.39710  0.77940  0.58868  1.0000 -0.6387611276
O   O4        1.0  0.60290  0.22060  0.41132  1.0000 -0.6387611276
O   O5        1.0  0.00250  0.82101  0.48906  1.0000 -0.6187677628
O   O6        1.0  0.99750  0.17899  0.51094  1.0000 -0.6187677628
O   O7        1.0  0.77400  0.72651  0.58020  1.0000 -0.6595828927
O   O8        1.0  0.22600  0.27349  0.41980  1.0000 -0.6595828927
O   O9        1.0  0.97798  0.97838  0.67812  1.0000 -0.6699851996
O   O10       1.0  0.02202  0.02162  0.32188  1.0000 -0.6699851996
O   O11       1.0  0.27420  0.07218  0.77918  1.0000 -0.6187677628
O   O12       1.0  0.72580  0.92782  0.22082  1.0000 -0.6187677628
O   O13       1.0  0.32210  0.83233  0.16235  1.0000 -0.559077943
O   O14       1.0  0.67790  0.16767  0.83765  1.0000 -0.559077943
O   O15       1.0  0.36635  0.99009  0.28043  1.0000 -0.6595828927
O   O16       1.0  0.63365  0.00991  0.71957  1.0000 -0.6595828927
O   O17       1.0  0.70107  0.94891  0.47619  1.0000 -1.1310751683
O   O18       1.0  0.29893  0.05109  0.52381  1.0000 -1.1310751683
O   O19       1.0  0.61210  0.69633  0.29865  1.0000 -0.7097041852
O   O20       1.0  0.38790  0.30367  0.70135  1.0000 -0.7097041852
O   O21       1.0  0.71000  0.77614  0.79316  1.0000 -0.686539436
O   O22       1.0  0.29000  0.22386  0.20684  1.0000 -0.686539436
