# DDEC6 charges by PACMAN v1.1 (https://github.com/mtap-research/PACMAN-charge/)
data_2014[Zn][pcu]3[FSR]19
_chemical_formula_sum              "Zn1 H18 C14 S1 N4 O4"
_cell_length_a       9.36996
_cell_length_b       9.36996
_cell_length_c       6.743
_cell_angle_alpha    89.4418
_cell_angle_beta     90.5582
_cell_angle_gamma    94.697

_symmetry_space_group_name_H-M    "P 1"
_symmetry_Int_Tables_number       1

loop_
  _symmetry_equiv_pos_as_xyz
  'x, y, z'

loop_
  _atom_site_type_symbol
  _atom_site_label
  _atom_site_symmetry_multiplicity
  _atom_site_fract_x
  _atom_site_fract_y
  _atom_site_fract_z
  _atom_site_occupancy
  _atom_site_charge
Zn  Zn1       1.0  0.43775  0.43775  0.50000  1.0000 0.6004175764
H   H1        1.0  0.06660  0.23780  0.51270  1.0000 0.1109315153
H   H2        1.0  0.23780  0.06660  0.48730  1.0000 0.1109315153
H   H3        1.0  0.15690  0.26270  0.31850  1.0000 0.1109315153
H   H4        1.0  0.26270  0.15690  0.68150  1.0000 0.1109315153
H   H5        1.0  0.15790  0.61470  0.48890  1.0000 0.1206953224
H   H6        1.0  0.61470  0.15790  0.51110  1.0000 0.1206953224
H   H7        1.0  0.15220  0.52880  0.29060  1.0000 0.1206953224
H   H8        1.0  0.52880  0.15220  0.70940  1.0000 0.1206953224
H   H9        1.0  0.92000  0.50140  0.15780  1.0000 0.15062237
H   H10       1.0  0.50140  0.92000  0.84220  1.0000 0.15062237
H   H11       1.0  0.67520  0.45120  0.19250  1.0000 0.1109315153
H   H12       1.0  0.45120  0.67520  0.80750  1.0000 0.1109315153
H   H13       1.0  0.71000  0.45180  0.75940  1.0000 0.1206953224
H   H14       1.0  0.45180  0.71000  0.24060  1.0000 0.1109315153
H   H15       1.0  0.95370  0.48790  0.74140  1.0000 0.15062237
H   H16       1.0  0.48790  0.95370  0.25860  1.0000 0.15062237
H   H17       1.0  0.27440  0.43040  0.61170  1.0000 0.1682405096
H   H18       1.0  0.43040  0.27440  0.38830  1.0000 0.1682405096
C   C1        1.0  0.16160  0.26560  0.46220  1.0000 -0.0849705193
C   C2        1.0  0.26560  0.16160  0.53780  1.0000 -0.0849705193
C   C3        1.0  0.12750  0.52310  0.42990  1.0000 -0.1384589154
C   C4        1.0  0.52310  0.12750  0.57010  1.0000 -0.1384589154
C   C5        1.0  0.88100  0.48960  0.28370  1.0000 -0.2131779421
C   C6        1.0  0.48960  0.88100  0.71630  1.0000 -0.2131779421
C   C7        1.0  0.73120  0.46300  0.30660  1.0000 0.0931362879
C   C8        1.0  0.46300  0.73120  0.69340  1.0000 0.0931362879
C   C9        1.0  0.75170  0.46150  0.63500  1.0000 0.0703232434
C   C10       1.0  0.46150  0.75170  0.36500  1.0000 0.0703232434
C   C11       1.0  0.89970  0.48330  0.62480  1.0000 -0.2031880248
C   C12       1.0  0.48330  0.89970  0.37520  1.0000 -0.2031880248
C   C13       1.0  0.96740  0.49780  0.44690  1.0000 0.15062237
C   C14       1.0  0.49780  0.96740  0.55310  1.0000 0.15062237
S   S1        1.0  0.37153  0.37153  0.00000  1.0000 1.3678752404
N   N1        1.0  0.66680  0.45400  0.47630  1.0000 -0.2031880248
N   N2        1.0  0.45400  0.66680  0.52370  1.0000 -0.2031880248
N   N3        1.0  0.20710  0.41150  0.52590  1.0000 -0.2546627898
N   N4        1.0  0.41150  0.20710  0.47410  1.0000 -0.2546627898
O   O1        1.0  0.45870  0.42030  0.82780  1.0000 -0.6800329763
O   O2        1.0  0.42030  0.45870  0.17220  1.0000 -0.6800329763
O   O3        1.0  0.22080  0.39080  0.95840  1.0000 -0.6800329763
O   O4        1.0  0.39080  0.22080  0.04160  1.0000 -0.6800329763
