# DDEC6 charges by PACMAN v1.1 (https://github.com/mtap-research/PACMAN-charge/)
data_2014[Cd][dia]3[FSR]1
_chemical_formula_sum              "Cd4 H56 C44 N8 O20"
_cell_length_a       6.1983
_cell_length_b       15.007
_cell_length_c       16.5317
_cell_angle_alpha    90
_cell_angle_beta     90
_cell_angle_gamma    90

_symmetry_space_group_name_H-M    "P 1"
_symmetry_Int_Tables_number       1

loop_
  _symmetry_equiv_pos_as_xyz
  'x, y, z'

loop_
  _atom_site_type_symbol
  _atom_site_label
  _atom_site_symmetry_multiplicity
  _atom_site_fract_x
  _atom_site_fract_y
  _atom_site_fract_z
  _atom_site_occupancy
  _atom_site_charge
Cd  Cd1       1.0  0.09273  0.29166  0.14465  1.0000 0.8469417305
Cd  Cd2       1.0  0.40727  0.70834  0.64465  1.0000 0.8469417305
Cd  Cd3       1.0  0.59273  0.20834  0.85535  1.0000 0.8469417305
Cd  Cd4       1.0  0.90727  0.79166  0.35535  1.0000 0.8469417305
H   H1        1.0  0.54450  0.38710  0.10300  1.0000 0.1108137914
H   H2        1.0  0.95550  0.61290  0.60300  1.0000 0.1108137914
H   H3        1.0  0.04450  0.11290  0.89700  1.0000 0.1108137914
H   H4        1.0  0.45550  0.88710  0.39700  1.0000 0.1108137914
H   H5        1.0  0.77400  0.49790  0.14520  1.0000 0.1400435571
H   H6        1.0  0.72600  0.50210  0.64520  1.0000 0.1400435571
H   H7        1.0  0.27400  0.00210  0.85480  1.0000 0.1400435571
H   H8        1.0  0.22600  0.99790  0.35480  1.0000 0.1400435571
H   H9        1.0  0.09270  0.47390  0.24540  1.0000 0.1004120153
H   H10       1.0  0.40730  0.52610  0.74540  1.0000 0.1004120153
H   H11       1.0  0.59270  0.02610  0.75460  1.0000 0.1004120153
H   H12       1.0  0.90730  0.97390  0.25460  1.0000 0.1004120153
H   H13       1.0  0.30320  0.59140  0.28800  1.0000 0.1400435571
H   H14       1.0  0.19680  0.40860  0.78800  1.0000 0.1400435571
H   H15       1.0  0.80320  0.90860  0.71200  1.0000 0.1400435571
H   H16       1.0  0.69680  0.09140  0.21200  1.0000 0.1400435571
H   H17       1.0  0.08700  0.65600  0.45310  1.0000 0.340624264
H   H18       1.0  0.41300  0.34400  0.95310  1.0000 0.340624264
H   H19       1.0  0.58700  0.84400  0.54690  1.0000 0.340624264
H   H20       1.0  0.91300  0.15600  0.04690  1.0000 0.340624264
H   H21       1.0  0.88140  0.54780  0.46620  1.0000 0.1004120153
H   H22       1.0  0.61860  0.45220  0.96620  1.0000 0.1004120153
H   H23       1.0  0.38140  0.95220  0.53380  1.0000 0.1004120153
H   H24       1.0  0.11860  0.04780  0.03380  1.0000 0.1004120153
H   H25       1.0  0.90210  0.52670  0.37350  1.0000 0.1004120153
H   H26       1.0  0.59790  0.47330  0.87350  1.0000 0.1004120153
H   H27       1.0  0.40210  0.97330  0.62650  1.0000 0.1004120153
H   H28       1.0  0.09790  0.02670  0.12650  1.0000 0.1004120153
H   H29       1.0  0.53540  0.70130  0.31950  1.0000 0.2509086938
H   H30       1.0  0.96460  0.29870  0.81950  1.0000 0.2509086938
H   H31       1.0  0.03540  0.79870  0.68050  1.0000 0.2509086938
H   H32       1.0  0.46460  0.20130  0.18050  1.0000 0.2509086938
H   H33       1.0  0.86320  0.60810  0.25230  1.0000 0.1108137914
H   H34       1.0  0.63680  0.39190  0.75230  1.0000 0.1108137914
H   H35       1.0  0.36320  0.89190  0.74770  1.0000 0.1108137914
H   H36       1.0  0.13680  0.10810  0.24770  1.0000 0.1108137914
H   H37       1.0  0.71890  0.67680  0.20630  1.0000 0.1324922801
H   H38       1.0  0.78110  0.32320  0.70630  1.0000 0.1324922801
H   H39       1.0  0.21890  0.82320  0.79370  1.0000 0.1324922801
H   H40       1.0  0.28110  0.17680  0.29370  1.0000 0.1324922801
H   H41       1.0  0.54820  0.57520  0.39060  1.0000 0.1108137914
H   H42       1.0  0.95180  0.42480  0.89060  1.0000 0.1108137914
H   H43       1.0  0.04820  0.92480  0.60940  1.0000 0.1108137914
H   H44       1.0  0.45180  0.07520  0.10940  1.0000 0.1108137914
H   H45       1.0  0.49980  0.28470  0.31470  1.0000 0.1517506389
H   H46       1.0  0.00020  0.71530  0.81470  1.0000 0.1517506389
H   H47       1.0  0.99980  0.21530  0.68530  1.0000 0.1517506389
H   H48       1.0  0.50020  0.78470  0.18530  1.0000 0.1517506389
H   H49       1.0  0.61940  0.36710  0.35190  1.0000 0.1517506389
H   H50       1.0  0.88060  0.63290  0.85190  1.0000 0.1517506389
H   H51       1.0  0.11940  0.13290  0.64810  1.0000 0.1517506389
H   H52       1.0  0.38060  0.86710  0.14810  1.0000 0.1517506389
H   H53       1.0  0.67350  0.27070  0.38240  1.0000 0.1623132438
H   H54       1.0  0.82650  0.72930  0.88240  1.0000 0.1623132438
H   H55       1.0  0.17350  0.22930  0.61760  1.0000 0.1623132438
H   H56       1.0  0.32650  0.77070  0.11760  1.0000 0.1623132438
C   C1        1.0  0.49660  0.42750  0.14170  1.0000 0.1004120153
C   C2        1.0  0.00340  0.57250  0.64170  1.0000 0.1004120153
C   C3        1.0  0.99660  0.07250  0.85830  1.0000 0.1004120153
C   C4        1.0  0.50340  0.92750  0.35830  1.0000 0.1004120153
C   C5        1.0  0.63530  0.49470  0.16650  1.0000 -0.2091238215
C   C6        1.0  0.86470  0.50530  0.66650  1.0000 -0.2091238215
C   C7        1.0  0.13530  0.00530  0.83350  1.0000 -0.2091238215
C   C8        1.0  0.36470  0.99470  0.33350  1.0000 -0.2091238215
C   C9        1.0  0.23160  0.47920  0.22470  1.0000 0.0778246508
C   C10       1.0  0.26840  0.52080  0.72470  1.0000 0.0778246508
C   C11       1.0  0.73160  0.02080  0.77530  1.0000 0.0778246508
C   C12       1.0  0.76840  0.97920  0.27530  1.0000 0.0778246508
C   C13       1.0  0.56800  0.55710  0.22270  1.0000 0.1517506389
C   C14       1.0  0.93200  0.44290  0.72270  1.0000 0.1517506389
C   C15       1.0  0.06800  0.94290  0.77730  1.0000 0.1517506389
C   C16       1.0  0.43200  0.05710  0.27730  1.0000 0.1517506389
C   C17       1.0  0.35790  0.54990  0.25160  1.0000 -0.2091238215
C   C18       1.0  0.14210  0.45010  0.75160  1.0000 -0.2091238215
C   C19       1.0  0.85790  0.95010  0.74840  1.0000 -0.2091238215
C   C20       1.0  0.64210  0.04990  0.24840  1.0000 -0.2091238215
C   C21       1.0  0.60990  0.67870  0.47220  1.0000 0.5697084278
C   C22       1.0  0.89010  0.32130  0.97220  1.0000 0.5697084278
C   C23       1.0  0.10990  0.82130  0.52780  1.0000 0.5697084278
C   C24       1.0  0.39010  0.17870  0.02780  1.0000 0.5697084278
C   C25       1.0  0.80620  0.29800  0.27280  1.0000 0.6566357822
C   C26       1.0  0.69380  0.70200  0.77280  1.0000 0.6566357822
C   C27       1.0  0.30620  0.20200  0.72720  1.0000 0.6566357822
C   C28       1.0  0.19380  0.79800  0.22720  1.0000 0.6566357822
C   C29       1.0  0.88160  0.57420  0.41260  1.0000 -0.0291834767
C   C30       1.0  0.61840  0.42580  0.91260  1.0000 -0.0291834767
C   C31       1.0  0.38160  0.92580  0.58740  1.0000 -0.0291834767
C   C32       1.0  0.11840  0.07420  0.08740  1.0000 -0.0291834767
C   C33       1.0  0.71810  0.63210  0.24870  1.0000 -0.1594430297
C   C34       1.0  0.78190  0.36790  0.74870  1.0000 -0.1594430297
C   C35       1.0  0.21810  0.86790  0.75130  1.0000 -0.1594430297
C   C36       1.0  0.28190  0.13210  0.25130  1.0000 -0.1594430297
C   C37       1.0  0.66070  0.62050  0.39700  1.0000 -0.0726734228
C   C38       1.0  0.83930  0.37950  0.89700  1.0000 -0.0726734228
C   C39       1.0  0.16070  0.87950  0.60300  1.0000 -0.0726734228
C   C40       1.0  0.33930  0.12050  0.10300  1.0000 -0.0726734228
C   C41       1.0  0.63430  0.30580  0.33620  1.0000 -0.5926908641
C   C42       1.0  0.86570  0.69420  0.83620  1.0000 -0.5926908641
C   C43       1.0  0.13430  0.19420  0.66380  1.0000 -0.5926908641
C   C44       1.0  0.36570  0.80580  0.16380  1.0000 -0.5926908641
N   N1        1.0  0.29800  0.41840  0.17100  1.0000 -0.2403278216
N   N2        1.0  0.20200  0.58160  0.67100  1.0000 -0.2403278216
N   N3        1.0  0.79800  0.08160  0.82900  1.0000 -0.2403278216
N   N4        1.0  0.70200  0.91840  0.32900  1.0000 -0.2403278216
N   N5        1.0  0.66830  0.67630  0.32510  1.0000 -0.3296684414
N   N6        1.0  0.83170  0.32370  0.82510  1.0000 -0.3296684414
N   N7        1.0  0.16830  0.82370  0.67490  1.0000 -0.3296684414
N   N8        1.0  0.33170  0.17630  0.17490  1.0000 -0.3296684414
O   O1        1.0  0.63980  0.76050  0.46530  1.0000 -0.5398818716
O   O2        1.0  0.86020  0.23950  0.96530  1.0000 -0.5398818716
O   O3        1.0  0.13980  0.73950  0.53470  1.0000 -0.5398818716
O   O4        1.0  0.36020  0.26050  0.03470  1.0000 -0.5398818716
O   O5        1.0  0.55020  0.63890  0.53470  1.0000 -0.5398818716
O   O6        1.0  0.94980  0.36110  0.03470  1.0000 -0.5398818716
O   O7        1.0  0.05020  0.86110  0.46530  1.0000 -0.5398818716
O   O8        1.0  0.44980  0.13890  0.96530  1.0000 -0.5398818716
O   O9        1.0  0.05380  0.63580  0.40650  1.0000 -0.4455160686
O   O10       1.0  0.44620  0.36420  0.90650  1.0000 -0.4455160686
O   O11       1.0  0.55380  0.86420  0.59350  1.0000 -0.4455160686
O   O12       1.0  0.94620  0.13580  0.09350  1.0000 -0.4445118695
O   O13       1.0  0.75660  0.27060  0.20370  1.0000 -0.5557112484
O   O14       1.0  0.74340  0.72940  0.70370  1.0000 -0.5557112484
O   O15       1.0  0.25660  0.22940  0.79630  1.0000 -0.5545993238
O   O16       1.0  0.24340  0.77060  0.29630  1.0000 -0.5557112484
O   O17       1.0  0.99480  0.32090  0.28770  1.0000 -0.584180811
O   O18       1.0  0.50520  0.67910  0.78770  1.0000 -0.584180811
O   O19       1.0  0.49480  0.17910  0.71230  1.0000 -0.584180811
O   O20       1.0  0.00520  0.82090  0.21230  1.0000 -0.584180811
