# DDEC6 charges by PACMAN v1.1 (https://github.com/mtap-research/PACMAN-charge/)
data_2014[Zn][dmc]3[FSR]2
_chemical_formula_sum              "Zn4 H12 C12 N16 O8"
_cell_length_a       8.911
_cell_length_b       8.098
_cell_length_c       10.289
_cell_angle_alpha    90
_cell_angle_beta     101.433
_cell_angle_gamma    90

_symmetry_space_group_name_H-M    "P 1"
_symmetry_Int_Tables_number       1

loop_
  _symmetry_equiv_pos_as_xyz
  'x, y, z'

loop_
  _atom_site_type_symbol
  _atom_site_label
  _atom_site_symmetry_multiplicity
  _atom_site_fract_x
  _atom_site_fract_y
  _atom_site_fract_z
  _atom_site_occupancy
  _atom_site_charge
Zn  Zn1       1.0  0.68618  0.94122  0.43864  1.0000 0.6963109996
Zn  Zn2       1.0  0.31382  0.44122  0.06136  1.0000 0.6963109996
Zn  Zn3       1.0  0.31382  0.05878  0.56136  1.0000 0.6963109996
Zn  Zn4       1.0  0.68618  0.55878  0.93864  1.0000 0.6963109996
H   H1        1.0  0.80130  0.76690  0.19850  1.0000 0.1228116926
H   H2        1.0  0.19870  0.26690  0.30150  1.0000 0.1228116926
H   H3        1.0  0.19870  0.23310  0.80150  1.0000 0.1228116926
H   H4        1.0  0.80130  0.73310  0.69850  1.0000 0.1228116926
H   H5        1.0  0.28120  0.66667  0.27880  1.0000 0.3162252035
H   H6        1.0  0.71880  0.16660  0.22120  1.0000 0.3162252035
H   H7        1.0  0.71880  0.33340  0.72120  1.0000 0.3162252035
H   H8        1.0  0.28120  0.83340  0.77880  1.0000 0.3162252035
H   H9        1.0  0.37450  0.77470  0.38110  1.0000 0.2973578002
H   H10       1.0  0.62550  0.27470  0.11890  1.0000 0.2973578002
H   H11       1.0  0.62550  0.22530  0.61890  1.0000 0.2973578002
H   H12       1.0  0.37450  0.72530  0.88110  1.0000 0.2973578002
C   C1        1.0  0.01840  0.90840  0.50770  1.0000 0.4583489325
C   C2        1.0  0.98160  0.40840  0.99230  1.0000 0.4583489325
C   C3        1.0  0.98160  0.09160  0.49230  1.0000 0.4583489325
C   C4        1.0  0.01840  0.59160  0.00770  1.0000 0.4583489325
C   C5        1.0  0.70080  0.73410  0.19650  1.0000 0.1545970763
C   C6        1.0  0.29920  0.23410  0.30350  1.0000 0.1545970763
C   C7        1.0  0.29920  0.26590  0.80350  1.0000 0.1545970763
C   C8        1.0  0.70080  0.76590  0.69650  1.0000 0.1545970763
C   C9        1.0  0.48620  0.70560  0.24550  1.0000 0.4988265659
C   C10       1.0  0.51380  0.20560  0.25450  1.0000 0.4988265659
C   C11       1.0  0.51380  0.29440  0.75450  1.0000 0.4988265659
C   C12       1.0  0.48620  0.79440  0.74550  1.0000 0.4988265659
N   N1        1.0  0.62160  0.77950  0.28770  1.0000 -0.4116584335
N   N2        1.0  0.37840  0.27950  0.21230  1.0000 -0.4116584335
N   N3        1.0  0.37840  0.22050  0.71230  1.0000 -0.4116584335
N   N4        1.0  0.62160  0.72050  0.78770  1.0000 -0.4116584335
N   N5        1.0  0.62310  0.63830  0.10340  1.0000 -0.2085699152
N   N6        1.0  0.37690  0.13830  0.39660  1.0000 -0.2085699152
N   N7        1.0  0.37690  0.36170  0.89660  1.0000 -0.2085699152
N   N8        1.0  0.62310  0.86170  0.60340  1.0000 -0.2085699152
N   N9        1.0  0.48020  0.61850  0.13470  1.0000 -0.3241444055
N   N10       1.0  0.51980  0.11850  0.36530  1.0000 -0.3241444055
N   N11       1.0  0.51980  0.38150  0.86530  1.0000 -0.3241444055
N   N12       1.0  0.48020  0.88150  0.63470  1.0000 -0.3241444055
N   N13       1.0  0.36560  0.71710  0.30980  1.0000 -0.6261324559
N   N14       1.0  0.63440  0.21710  0.19020  1.0000 -0.6261324559
N   N15       1.0  0.63440  0.28290  0.69020  1.0000 -0.6261324559
N   N16       1.0  0.36560  0.78290  0.80980  1.0000 -0.6261324559
O   O1        1.0  0.15820  0.87060  0.54100  1.0000 -0.4937313621
O   O2        1.0  0.84180  0.37060  0.95900  1.0000 -0.4937313621
O   O3        1.0  0.84180  0.12940  0.45900  1.0000 -0.4937313621
O   O4        1.0  0.15820  0.62940  0.04100  1.0000 -0.4937313621
O   O5        1.0  0.90910  0.80980  0.48900  1.0000 -0.4802416984
O   O6        1.0  0.09090  0.30980  0.01100  1.0000 -0.4802416984
O   O7        1.0  0.09090  0.19020  0.51100  1.0000 -0.4802416984
O   O8        1.0  0.90910  0.69020  0.98900  1.0000 -0.4802416984
