# DDEC6 charges by PACMAN v1.1 (https://github.com/mtap-research/PACMAN-charge/)
data_2014[Cd][nan]3[FSR]9
_chemical_formula_sum              "Cd8 H88 C128 N8 O40"
_cell_length_a       15.4086
_cell_length_b       15.4086
_cell_length_c       27.559
_cell_angle_alpha    65.7276
_cell_angle_beta     114.272
_cell_angle_gamma    145.436

_symmetry_space_group_name_H-M    "P 1"
_symmetry_Int_Tables_number       1

loop_
  _symmetry_equiv_pos_as_xyz
  'x, y, z'

loop_
  _atom_site_type_symbol
  _atom_site_label
  _atom_site_symmetry_multiplicity
  _atom_site_fract_x
  _atom_site_fract_y
  _atom_site_fract_z
  _atom_site_occupancy
  _atom_site_charge
Cd  Cd1       1.0  0.15323  0.02481  0.50497  1.0000 1.0198099282
Cd  Cd2       1.0  0.02481  0.15323  0.99503  1.0000 1.0198099282
Cd  Cd3       1.0  0.84677  0.97519  0.49503  1.0000 1.0198099282
Cd  Cd4       1.0  0.97519  0.84677  0.00497  1.0000 1.0198099282
Cd  Cd5       1.0  0.86999  0.64279  0.46611  1.0000 0.8742053178
Cd  Cd6       1.0  0.64279  0.86999  0.03389  1.0000 0.8742053178
Cd  Cd7       1.0  0.13001  0.35721  0.53389  1.0000 0.8742053178
Cd  Cd8       1.0  0.35721  0.13001  0.96611  1.0000 0.8742053178
H   H1        1.0  0.82170  0.78910  0.39220  1.0000 0.3616706174
H   H2        1.0  0.78910  0.82170  0.10780  1.0000 0.3616706174
H   H3        1.0  0.17830  0.21090  0.60780  1.0000 0.3616706174
H   H4        1.0  0.21090  0.17830  0.89220  1.0000 0.3616706174
H   H5        1.0  0.68080  0.63320  0.38820  1.0000 0.3195303943
H   H6        1.0  0.63320  0.68080  0.11180  1.0000 0.3195303943
H   H7        1.0  0.31920  0.36680  0.61180  1.0000 0.3195303943
H   H8        1.0  0.36680  0.31920  0.88820  1.0000 0.3195303943
H   H9        1.0  0.55880  0.39260  0.45740  1.0000 0.3650993448
H   H10       1.0  0.39260  0.55880  0.04260  1.0000 0.3650993448
H   H11       1.0  0.44120  0.60740  0.54260  1.0000 0.3650993448
H   H12       1.0  0.60740  0.44120  0.95740  1.0000 0.3650993448
H   H13       1.0  0.60370  0.33270  0.47930  1.0000 0.3542233524
H   H14       1.0  0.33270  0.60370  0.02070  1.0000 0.3542233524
H   H15       1.0  0.39630  0.66730  0.52070  1.0000 0.3542233524
H   H16       1.0  0.66730  0.39630  0.97930  1.0000 0.3542233524
H   H17       1.0  0.44160  0.15320  0.38710  1.0000 0.1118181471
H   H18       1.0  0.15320  0.44160  0.11290  1.0000 0.1118181471
H   H19       1.0  0.55840  0.84680  0.61290  1.0000 0.1118181471
H   H20       1.0  0.84680  0.55840  0.88710  1.0000 0.1118181471
H   H21       1.0  0.45640  0.14600  0.30950  1.0000 0.1118181471
H   H22       1.0  0.14600  0.45640  0.19050  1.0000 0.1118181471
H   H23       1.0  0.54360  0.85400  0.69050  1.0000 0.1118181471
H   H24       1.0  0.85400  0.54360  0.80950  1.0000 0.1118181471
H   H25       1.0  0.01280  0.86560  0.25960  1.0000 0.1181445786
H   H26       1.0  0.86560  0.01280  0.24040  1.0000 0.1181445786
H   H27       1.0  0.98720  0.13440  0.74040  1.0000 0.1181445786
H   H28       1.0  0.13440  0.98720  0.75960  1.0000 0.1181445786
H   H29       1.0  0.99330  0.86550  0.33810  1.0000 0.1118181471
H   H30       1.0  0.86550  0.99330  0.16190  1.0000 0.1118181471
H   H31       1.0  0.00670  0.13450  0.66190  1.0000 0.1118181471
H   H32       1.0  0.13450  0.00670  0.83810  1.0000 0.1118181471
H   H33       1.0  0.43350  0.04470  0.17210  1.0000 0.1181445786
H   H34       1.0  0.04470  0.43350  0.32790  1.0000 0.1181445786
H   H35       1.0  0.56650  0.95530  0.82790  1.0000 0.1181445786
H   H36       1.0  0.95530  0.56650  0.67210  1.0000 0.1181445786
H   H37       1.0  0.12870  0.03010  0.17830  1.0000 0.1181445786
H   H38       1.0  0.03010  0.12870  0.32170  1.0000 0.1181445786
H   H39       1.0  0.87130  0.96990  0.82170  1.0000 0.1181445786
H   H40       1.0  0.96990  0.87130  0.67830  1.0000 0.1181445786
H   H41       1.0  0.63000  0.18060  0.26060  1.0000 0.1118181471
H   H42       1.0  0.18060  0.63000  0.23940  1.0000 0.1118181471
H   H43       1.0  0.37000  0.81940  0.73940  1.0000 0.1181445786
H   H44       1.0  0.81940  0.37000  0.76060  1.0000 0.1118181471
H   H45       1.0  0.73200  0.12800  0.33410  1.0000 0.1118181471
H   H46       1.0  0.12800  0.73200  0.16590  1.0000 0.1118181471
H   H47       1.0  0.26800  0.87200  0.66590  1.0000 0.1118181471
H   H48       1.0  0.87200  0.26800  0.83410  1.0000 0.1118181471
H   H49       1.0  0.30440  0.70640  0.36790  1.0000 0.1181445786
H   H50       1.0  0.70640  0.30440  0.13210  1.0000 0.1181445786
H   H51       1.0  0.69560  0.29360  0.63210  1.0000 0.1181445786
H   H52       1.0  0.29360  0.69560  0.86790  1.0000 0.1181445786
H   H53       1.0  0.20550  0.76630  0.29640  1.0000 0.1118181471
H   H54       1.0  0.76630  0.20550  0.20360  1.0000 0.1118181471
H   H55       1.0  0.79450  0.23370  0.70360  1.0000 0.1118181471
H   H56       1.0  0.23370  0.79450  0.79640  1.0000 0.1118181471
H   H57       1.0  0.17960  0.79780  0.55300  1.0000 0.1118181471
H   H58       1.0  0.79780  0.17960  0.94700  1.0000 0.1118181471
H   H59       1.0  0.82040  0.20220  0.44700  1.0000 0.1118181471
H   H60       1.0  0.20220  0.82040  0.05300  1.0000 0.1118181471
H   H61       1.0  0.39380  0.87360  0.56960  1.0000 0.1331811515
H   H62       1.0  0.87360  0.39380  0.93040  1.0000 0.1331811515
H   H63       1.0  0.60620  0.12640  0.43040  1.0000 0.1331811515
H   H64       1.0  0.12640  0.60620  0.06960  1.0000 0.1331811515
H   H65       1.0  0.41490  0.81430  0.51400  1.0000 0.1118181471
H   H66       1.0  0.81430  0.41490  0.98600  1.0000 0.1118181471
H   H67       1.0  0.58510  0.18570  0.48600  1.0000 0.1118181471
H   H68       1.0  0.18570  0.58510  0.01400  1.0000 0.1118181471
H   H69       1.0  0.22700  0.68940  0.44220  1.0000 0.1410286492
H   H70       1.0  0.68940  0.22700  0.05780  1.0000 0.1410286492
H   H71       1.0  0.77300  0.31060  0.55780  1.0000 0.1410286492
H   H72       1.0  0.31060  0.77300  0.94220  1.0000 0.1410286492
H   H73       1.0  0.03580  0.56020  0.37770  1.0000 0.1410286492
H   H74       1.0  0.56020  0.03580  0.12230  1.0000 0.1410286492
H   H75       1.0  0.96420  0.43980  0.62230  1.0000 0.1410286492
H   H76       1.0  0.43980  0.96420  0.87770  1.0000 0.1410286492
H   H77       1.0  0.86000  0.47100  0.30260  1.0000 0.1331811515
H   H78       1.0  0.47100  0.86000  0.19740  1.0000 0.1331811515
H   H79       1.0  0.14000  0.52900  0.69740  1.0000 0.1331811515
H   H80       1.0  0.52900  0.14000  0.80260  1.0000 0.1331811515
H   H81       1.0  0.68170  0.44430  0.28830  1.0000 0.1410286492
H   H82       1.0  0.44430  0.68170  0.21170  1.0000 0.1410286492
H   H83       1.0  0.31830  0.55570  0.71170  1.0000 0.1410286492
H   H84       1.0  0.55570  0.31830  0.78830  1.0000 0.1410286492
H   H85       1.0  0.68140  0.50460  0.35310  1.0000 0.092315596
H   H86       1.0  0.50460  0.68140  0.14690  1.0000 0.092315596
H   H87       1.0  0.31860  0.49540  0.64690  1.0000 0.092315596
H   H88       1.0  0.49540  0.31860  0.85310  1.0000 0.092315596
C   C1        1.0  0.21730  0.01130  0.37110  1.0000 -0.0185429427
C   C2        1.0  0.01130  0.21730  0.12890  1.0000 -0.0185429427
C   C3        1.0  0.78270  0.98870  0.62890  1.0000 -0.0185429427
C   C4        1.0  0.98870  0.78270  0.87110  1.0000 -0.0185429427
C   C5        1.0  0.35400  0.09400  0.36170  1.0000 -0.1087236115
C   C6        1.0  0.09400  0.35400  0.13830  1.0000 -0.1087236115
C   C7        1.0  0.64600  0.90600  0.63830  1.0000 -0.1087236115
C   C8        1.0  0.90600  0.64600  0.86170  1.0000 -0.1087236115
C   C9        1.0  0.36300  0.09000  0.31490  1.0000 -0.1491703499
C   C10       1.0  0.09000  0.36300  0.18510  1.0000 -0.1491703499
C   C11       1.0  0.63700  0.91000  0.68510  1.0000 -0.1491703499
C   C12       1.0  0.91000  0.63700  0.81490  1.0000 -0.1491703499
C   C13       1.0  0.23660  0.00520  0.27630  1.0000 0.0784612601
C   C14       1.0  0.00520  0.23660  0.22370  1.0000 0.0784612601
C   C15       1.0  0.76340  0.99480  0.72370  1.0000 0.0784612601
C   C16       1.0  0.99480  0.76340  0.77630  1.0000 0.0784612601
C   C17       1.0  0.09940  0.92280  0.28560  1.0000 -0.1491703499
C   C18       1.0  0.92280  0.09940  0.21440  1.0000 -0.1491703499
C   C19       1.0  0.90060  0.07720  0.71440  1.0000 -0.1491703499
C   C20       1.0  0.07720  0.90060  0.78560  1.0000 -0.1491703499
C   C21       1.0  0.08750  0.92350  0.33240  1.0000 -0.1087236115
C   C22       1.0  0.92350  0.08750  0.16760  1.0000 -0.1087236115
C   C23       1.0  0.91250  0.07650  0.66760  1.0000 -0.1087236115
C   C24       1.0  0.07650  0.91250  0.83240  1.0000 -0.1087236115
C   C25       1.0  0.20970  0.01770  0.42180  1.0000 0.5611523282
C   C26       1.0  0.01770  0.20970  0.07820  1.0000 0.5611523282
C   C27       1.0  0.79030  0.98230  0.57820  1.0000 0.5611523282
C   C28       1.0  0.98230  0.79030  0.92180  1.0000 0.5611523282
C   C29       1.0  0.25390  0.01230  0.22450  1.0000 0.0314823524
C   C30       1.0  0.01230  0.25390  0.27550  1.0000 0.0314823524
C   C31       1.0  0.74610  0.98770  0.77550  1.0000 0.0314823524
C   C32       1.0  0.98770  0.74610  0.72450  1.0000 0.0314823524
C   C33       1.0  0.34240  0.01160  0.22250  1.0000 0.0195118882
C   C34       1.0  0.01160  0.34240  0.27750  1.0000 0.0195118882
C   C35       1.0  0.65760  0.98840  0.77750  1.0000 0.0195118882
C   C36       1.0  0.98840  0.65760  0.72250  1.0000 0.0195118882
C   C37       1.0  0.36970  0.03950  0.17310  1.0000 -0.1491703499
C   C38       1.0  0.03950  0.36970  0.32690  1.0000 -0.1491703499
C   C39       1.0  0.63030  0.96050  0.82690  1.0000 -0.1491703499
C   C40       1.0  0.96050  0.63030  0.67310  1.0000 -0.1491703499
C   C41       1.0  0.30590  0.06050  0.12470  1.0000 -0.0370624322
C   C42       1.0  0.06050  0.30590  0.37530  1.0000 -0.0370624322
C   C43       1.0  0.69410  0.93950  0.87530  1.0000 -0.0370624322
C   C44       1.0  0.93950  0.69410  0.62470  1.0000 -0.0370624322
C   C45       1.0  0.21140  0.05420  0.12680  1.0000 0.0057781492
C   C46       1.0  0.05420  0.21140  0.37320  1.0000 0.0057781492
C   C47       1.0  0.78860  0.94580  0.87320  1.0000 0.0049736779
C   C48       1.0  0.94580  0.78860  0.62680  1.0000 0.0057781492
C   C49       1.0  0.18950  0.03190  0.17690  1.0000 -0.1680506066
C   C50       1.0  0.03190  0.18950  0.32310  1.0000 -0.1680506066
C   C51       1.0  0.81050  0.96810  0.82310  1.0000 -0.1680506066
C   C52       1.0  0.96810  0.81050  0.67690  1.0000 -0.1680506066
C   C53       1.0  0.33830  0.08630  0.07290  1.0000 0.5779386577
C   C54       1.0  0.08630  0.33830  0.42710  1.0000 0.5779386577
C   C55       1.0  0.66170  0.91370  0.92710  1.0000 0.5779386577
C   C56       1.0  0.91370  0.66170  0.57290  1.0000 0.5779386577
C   C57       1.0  0.13720  0.07500  0.07680  1.0000 0.5779386577
C   C58       1.0  0.07500  0.13720  0.42320  1.0000 0.5779386577
C   C59       1.0  0.86280  0.92500  0.92320  1.0000 0.5779386577
C   C60       1.0  0.92500  0.86280  0.57680  1.0000 0.5779386577
C   C61       1.0  0.40770  0.97930  0.27100  1.0000 0.0784612601
C   C62       1.0  0.97930  0.40770  0.22900  1.0000 0.0784612601
C   C63       1.0  0.59230  0.02070  0.72900  1.0000 0.0784612601
C   C64       1.0  0.02070  0.59230  0.77100  1.0000 0.0784612601
C   C65       1.0  0.56410  0.08590  0.28250  1.0000 -0.1680506066
C   C66       1.0  0.08590  0.56410  0.21750  1.0000 -0.1680506066
C   C67       1.0  0.43590  0.91410  0.71750  1.0000 -0.1680506066
C   C68       1.0  0.91410  0.43590  0.78250  1.0000 -0.1680506066
C   C69       1.0  0.62570  0.05390  0.32660  1.0000 -0.1043249402
C   C70       1.0  0.05390  0.62570  0.17340  1.0000 -0.1087236115
C   C71       1.0  0.37430  0.94610  0.67340  1.0000 -0.1087236115
C   C72       1.0  0.94610  0.37430  0.82660  1.0000 -0.1087236115
C   C73       1.0  0.52980  0.91280  0.35940  1.0000 -0.0285932371
C   C74       1.0  0.91280  0.52980  0.14060  1.0000 -0.0285932371
C   C75       1.0  0.47020  0.08720  0.64060  1.0000 -0.0285932371
C   C76       1.0  0.08720  0.47020  0.85940  1.0000 -0.0285932371
C   C77       1.0  0.37100  0.80320  0.34720  1.0000 -0.1087236115
C   C78       1.0  0.80320  0.37100  0.15280  1.0000 -0.1087236115
C   C79       1.0  0.62900  0.19680  0.65280  1.0000 -0.1087236115
C   C80       1.0  0.19680  0.62900  0.84720  1.0000 -0.1087236115
C   C81       1.0  0.31140  0.83860  0.30350  1.0000 -0.1636534441
C   C82       1.0  0.83860  0.31140  0.19650  1.0000 -0.1636534441
C   C83       1.0  0.68860  0.16140  0.69650  1.0000 -0.1636534441
C   C84       1.0  0.16140  0.68860  0.80350  1.0000 -0.1636534441
C   C85       1.0  0.59810  0.88290  0.40690  1.0000 0.5611523282
C   C86       1.0  0.88290  0.59810  0.09310  1.0000 0.5611523282
C   C87       1.0  0.40190  0.11710  0.59310  1.0000 0.5611523282
C   C88       1.0  0.11710  0.40190  0.90690  1.0000 0.5611523282
C   C89       1.0  0.18970  0.77630  0.53020  1.0000 0.092315596
C   C90       1.0  0.77630  0.18970  0.96980  1.0000 0.092315596
C   C91       1.0  0.81030  0.22370  0.46980  1.0000 0.092315596
C   C92       1.0  0.22370  0.81030  0.03020  1.0000 0.092315596
C   C93       1.0  0.31780  0.82120  0.54060  1.0000 -0.1413937989
C   C94       1.0  0.82120  0.31780  0.95940  1.0000 -0.1413937989
C   C95       1.0  0.68220  0.17880  0.45940  1.0000 -0.1413937989
C   C96       1.0  0.17880  0.68220  0.04060  1.0000 -0.1413937989
C   C97       1.0  0.33060  0.78680  0.50750  1.0000 -0.0492555569
C   C98       1.0  0.78680  0.33060  0.99250  1.0000 -0.0492555569
C   C99       1.0  0.66940  0.21320  0.49250  1.0000 -0.0492555569
C   C100      1.0  0.21320  0.66940  0.00750  1.0000 -0.0492555569
C   C101      1.0  0.21880  0.71220  0.46520  1.0000 -0.1680506066
C   C102      1.0  0.71220  0.21880  0.03480  1.0000 -0.1680506066
C   C103      1.0  0.78120  0.28780  0.53480  1.0000 -0.1680506066
C   C104      1.0  0.28780  0.78120  0.96520  1.0000 -0.1680506066
C   C105      1.0  0.09270  0.66990  0.45620  1.0000 0.1703492966
C   C106      1.0  0.66990  0.09270  0.04380  1.0000 0.1703492966
C   C107      1.0  0.90730  0.33010  0.54380  1.0000 0.1703492966
C   C108      1.0  0.33010  0.90730  0.95620  1.0000 0.1703492966
C   C109      1.0  0.96810  0.59470  0.40890  1.0000 0.1860595089
C   C110      1.0  0.59470  0.96810  0.09110  1.0000 0.1860595089
C   C111      1.0  0.03190  0.40530  0.59110  1.0000 0.1860595089
C   C112      1.0  0.40530  0.03190  0.90890  1.0000 0.1860595089
C   C113      1.0  0.96480  0.55120  0.37160  1.0000 -0.1636534441
C   C114      1.0  0.55120  0.96480  0.12840  1.0000 -0.1636534441
C   C115      1.0  0.03520  0.44880  0.62840  1.0000 -0.1636534441
C   C116      1.0  0.44880  0.03520  0.87160  1.0000 -0.1636534441
C   C117      1.0  0.86020  0.49720  0.32770  1.0000 -0.0370624322
C   C118      1.0  0.49720  0.86020  0.17230  1.0000 -0.0370624322
C   C119      1.0  0.13980  0.50280  0.67230  1.0000 -0.0370624322
C   C120      1.0  0.50280  0.13980  0.82770  1.0000 -0.0370624322
C   C121      1.0  0.75400  0.48020  0.31930  1.0000 -0.1413937989
C   C122      1.0  0.48020  0.75400  0.18070  1.0000 -0.1413937989
C   C123      1.0  0.24600  0.51980  0.68070  1.0000 -0.1413937989
C   C124      1.0  0.51980  0.24600  0.81930  1.0000 -0.1413937989
C   C125      1.0  0.75500  0.51760  0.35810  1.0000 0.0469324416
C   C126      1.0  0.51760  0.75500  0.14190  1.0000 0.0469324416
C   C127      1.0  0.24500  0.48240  0.64190  1.0000 0.0469324416
C   C128      1.0  0.48240  0.24500  0.85810  1.0000 0.0469324416
N   N1        1.0  0.07960  0.70300  0.48830  1.0000 -0.2779471982
N   N2        1.0  0.70300  0.07960  0.01170  1.0000 -0.2779471982
N   N3        1.0  0.92040  0.29700  0.51170  1.0000 -0.2779471982
N   N4        1.0  0.29700  0.92040  0.98830  1.0000 -0.2779471982
N   N5        1.0  0.86010  0.57210  0.40250  1.0000 -0.2928359542
N   N6        1.0  0.57210  0.86010  0.09750  1.0000 -0.2928359542
N   N7        1.0  0.13990  0.42790  0.59750  1.0000 -0.2928359542
N   N8        1.0  0.42790  0.13990  0.90250  1.0000 -0.2928359542
O   O1        1.0  0.33080  0.11620  0.45150  1.0000 -0.5571564171
O   O2        1.0  0.11620  0.33080  0.04850  1.0000 -0.5571564171
O   O3        1.0  0.66920  0.88380  0.54850  1.0000 -0.5571564171
O   O4        1.0  0.88380  0.66920  0.95150  1.0000 -0.5571564171
O   O5        1.0  0.07727  0.92133  0.43313  1.0000 -0.5871559117
O   O6        1.0  0.92133  0.07727  0.06687  1.0000 -0.5871559117
O   O7        1.0  0.92273  0.07867  0.56687  1.0000 -0.5871559117
O   O8        1.0  0.07867  0.92273  0.93313  1.0000 -0.5871559117
O   O9        1.0  0.21482  0.21098  0.05677  1.0000 -0.515456717
O   O10       1.0  0.21098  0.21482  0.44323  1.0000 -0.515456717
O   O11       1.0  0.78518  0.78902  0.94323  1.0000 -0.515456717
O   O12       1.0  0.78902  0.78518  0.55677  1.0000 -0.515456717
O   O13       1.0  0.99711  0.95609  0.05874  1.0000 -0.5784004066
O   O14       1.0  0.95609  0.99711  0.44126  1.0000 -0.5784004066
O   O15       1.0  0.00289  0.04391  0.94126  1.0000 -0.5784004066
O   O16       1.0  0.04391  0.00289  0.55874  1.0000 -0.5784004066
O   O17       1.0  0.73968  0.00172  0.42248  1.0000 -0.5731624696
O   O18       1.0  0.00172  0.73968  0.07752  1.0000 -0.5731624696
O   O19       1.0  0.26032  0.99828  0.57752  1.0000 -0.5731624696
O   O20       1.0  0.99828  0.26032  0.92248  1.0000 -0.5731624696
O   O21       1.0  0.51740  0.74800  0.42900  1.0000 -0.515456717
O   O22       1.0  0.74800  0.51740  0.07100  1.0000 -0.515456717
O   O23       1.0  0.48260  0.25200  0.57100  1.0000 -0.515456717
O   O24       1.0  0.25200  0.48260  0.92900  1.0000 -0.515456717
O   O25       1.0  0.25207  0.07093  0.02951  1.0000 -0.5571564171
O   O26       1.0  0.07093  0.25207  0.47049  1.0000 -0.5571564171
O   O27       1.0  0.74793  0.92907  0.97049  1.0000 -0.5571564171
O   O28       1.0  0.92907  0.74793  0.52951  1.0000 -0.5571564171
O   O29       1.0  0.44370  0.11990  0.07247  1.0000 -0.5368334982
O   O30       1.0  0.11990  0.44370  0.42753  1.0000 -0.5368334982
O   O31       1.0  0.55630  0.88010  0.92753  1.0000 -0.5368334982
O   O32       1.0  0.88010  0.55630  0.57247  1.0000 -0.5368334982
O   O33       1.0  0.75480  0.69940  0.40990  1.0000 -0.6268179897
O   O34       1.0  0.69940  0.75480  0.09010  1.0000 -0.6268179897
O   O35       1.0  0.24520  0.30060  0.59010  1.0000 -0.6268179897
O   O36       1.0  0.30060  0.24520  0.90990  1.0000 -0.6268179897
O   O37       1.0  0.62170  0.40070  0.48120  1.0000 -0.6478920761
O   O38       1.0  0.40070  0.62170  0.01880  1.0000 -0.6478920761
O   O39       1.0  0.37830  0.59930  0.51880  1.0000 -0.6478920761
O   O40       1.0  0.59930  0.37830  0.98120  1.0000 -0.6478920761
