# DDEC6 charges by PACMAN v1.1 (https://github.com/mtap-research/PACMAN-charge/)
data_2014[Fe][nan]3[FSR]3
_chemical_formula_sum              "Fe6 H6 C30 O30"
_cell_length_a       15.1849
_cell_length_b       15.1849
_cell_length_c       15.1849
_cell_angle_alpha    117.774
_cell_angle_beta     117.774
_cell_angle_gamma    117.774

_symmetry_space_group_name_H-M    "P 1"
_symmetry_Int_Tables_number       1

loop_
  _symmetry_equiv_pos_as_xyz
  'x, y, z'

loop_
  _atom_site_type_symbol
  _atom_site_label
  _atom_site_symmetry_multiplicity
  _atom_site_fract_x
  _atom_site_fract_y
  _atom_site_fract_z
  _atom_site_occupancy
  _atom_site_charge
Fe  Fe1       1.0  0.11008  0.52826  0.78976  1.0000 0.9760009521
Fe  Fe2       1.0  0.52826  0.78976  0.11008  1.0000 0.9760009521
Fe  Fe3       1.0  0.78976  0.11008  0.52826  1.0000 0.9760009521
Fe  Fe4       1.0  0.88992  0.47174  0.21024  1.0000 0.9760009521
Fe  Fe5       1.0  0.47174  0.21024  0.88992  1.0000 0.9760009521
Fe  Fe6       1.0  0.21024  0.88992  0.47174  1.0000 0.9760009521
H   H1        1.0  0.66350  0.18930  0.63330  1.0000 0.1431876743
H   H2        1.0  0.18930  0.63330  0.66350  1.0000 0.1431876743
H   H3        1.0  0.63330  0.66350  0.18930  1.0000 0.1431876743
H   H4        1.0  0.33650  0.81070  0.36670  1.0000 0.1431876743
H   H5        1.0  0.81070  0.36670  0.33650  1.0000 0.1431876743
H   H6        1.0  0.36670  0.33650  0.81070  1.0000 0.1431876743
C   C1        1.0  0.35145  0.73887  0.17808  1.0000 0.6267300719
C   C2        1.0  0.73887  0.17808  0.35145  1.0000 0.6267300719
C   C3        1.0  0.17808  0.35145  0.73887  1.0000 0.6267300719
C   C4        1.0  0.64855  0.26113  0.82192  1.0000 0.6267300719
C   C5        1.0  0.26113  0.82192  0.64855  1.0000 0.6267300719
C   C6        1.0  0.82192  0.64855  0.26113  1.0000 0.6267300719
C   C7        1.0  0.16909  0.61631  0.08730  1.0000 -0.1178411482
C   C8        1.0  0.61631  0.08730  0.16909  1.0000 -0.1178411482
C   C9        1.0  0.08730  0.16909  0.61631  1.0000 -0.1178411482
C   C10       1.0  0.83091  0.38369  0.91270  1.0000 -0.1178411482
C   C11       1.0  0.38369  0.91270  0.83091  1.0000 -0.1178411482
C   C12       1.0  0.91270  0.83091  0.38369  1.0000 -0.1178411482
C   C13       1.0  0.97406  0.43900  0.87524  1.0000 0.2915795618
C   C14       1.0  0.43900  0.87524  0.97406  1.0000 0.2915795618
C   C15       1.0  0.87524  0.97406  0.43900  1.0000 0.2915795618
C   C16       1.0  0.02594  0.56100  0.12476  1.0000 0.2915795618
C   C17       1.0  0.56100  0.12476  0.02594  1.0000 0.2915795618
C   C18       1.0  0.12476  0.02594  0.56100  1.0000 0.2915795618
C   C19       1.0  0.80662  0.32662  0.79236  1.0000 -0.2106496593
C   C20       1.0  0.32662  0.79236  0.80662  1.0000 -0.2106496593
C   C21       1.0  0.79236  0.80662  0.32662  1.0000 -0.2106496593
C   C22       1.0  0.19338  0.67338  0.20764  1.0000 -0.2106496593
C   C23       1.0  0.67338  0.20764  0.19338  1.0000 -0.2106496593
C   C24       1.0  0.20764  0.19338  0.67338  1.0000 -0.2106496593
C   C25       1.0  0.12209  0.75521  0.86460  1.0000 0.7067896698
C   C26       1.0  0.75521  0.86460  0.12209  1.0000 0.7067896698
C   C27       1.0  0.86460  0.12209  0.75521  1.0000 0.7067896698
C   C28       1.0  0.87791  0.24479  0.13540  1.0000 0.7067896698
C   C29       1.0  0.24479  0.13540  0.87791  1.0000 0.7067896698
C   C30       1.0  0.13540  0.87791  0.24479  1.0000 0.7067896698
O   O1        1.0  0.31977  0.67763  0.05890  1.0000 -0.5752594596
O   O2        1.0  0.67763  0.05890  0.31977  1.0000 -0.5752594596
O   O3        1.0  0.05890  0.31977  0.67763  1.0000 -0.5752594596
O   O4        1.0  0.68023  0.32237  0.94110  1.0000 -0.5719590568
O   O5        1.0  0.32237  0.94110  0.68023  1.0000 -0.5752594596
O   O6        1.0  0.94110  0.68023  0.32237  1.0000 -0.5752594596
O   O7        1.0  0.52284  0.90331  0.37385  1.0000 -0.5719590568
O   O8        1.0  0.90331  0.37385  0.52284  1.0000 -0.5719590568
O   O9        1.0  0.37385  0.52284  0.90331  1.0000 -0.5719590568
O   O10       1.0  0.47716  0.09669  0.62615  1.0000 -0.5719590568
O   O11       1.0  0.09669  0.62615  0.47716  1.0000 -0.5719590568
O   O12       1.0  0.62615  0.47716  0.09669  1.0000 -0.5719590568
O   O13       1.0  0.92517  0.36120  0.73703  1.0000 -0.5864875044
O   O14       1.0  0.36120  0.73703  0.92517  1.0000 -0.5864875044
O   O15       1.0  0.73703  0.92517  0.36120  1.0000 -0.5864875044
O   O16       1.0  0.07483  0.63880  0.26297  1.0000 -0.5864875044
O   O17       1.0  0.63880  0.26297  0.07483  1.0000 -0.5864875044
O   O18       1.0  0.26297  0.07483  0.63880  1.0000 -0.5864875044
O   O19       1.0  0.08740  0.77330  0.79540  1.0000 -0.3186907695
O   O20       1.0  0.77330  0.79540  0.08740  1.0000 -0.3186907695
O   O21       1.0  0.79540  0.08740  0.77330  1.0000 -0.3186907695
O   O22       1.0  0.91260  0.22670  0.20460  1.0000 -0.3186907695
O   O23       1.0  0.22670  0.20460  0.91260  1.0000 -0.3186907695
O   O24       1.0  0.20460  0.91260  0.22670  1.0000 -0.3186907695
O   O25       1.0  0.16645  0.74285  0.93520  1.0000 -0.3639503992
O   O26       1.0  0.74285  0.93520  0.16645  1.0000 -0.3639503992
O   O27       1.0  0.93520  0.16645  0.74285  1.0000 -0.3639503992
O   O28       1.0  0.83355  0.25715  0.06480  1.0000 -0.3639503992
O   O29       1.0  0.25715  0.06480  0.83355  1.0000 -0.3639503992
O   O30       1.0  0.06480  0.83355  0.25715  1.0000 -0.3639503992
