# DDEC6 charges by PACMAN v1.1 (https://github.com/mtap-research/PACMAN-charge/)
data_2014[Cd][nan]3[FSR]6
_chemical_formula_sum              "Cd8 H104 C144 N24 O56"
_cell_length_a       12.468
_cell_length_b       15.427
_cell_length_c       24.641
_cell_angle_alpha    90
_cell_angle_beta     90
_cell_angle_gamma    90

_symmetry_space_group_name_H-M    "P 1"
_symmetry_Int_Tables_number       1

loop_
  _symmetry_equiv_pos_as_xyz
  'x, y, z'

loop_
  _atom_site_type_symbol
  _atom_site_label
  _atom_site_symmetry_multiplicity
  _atom_site_fract_x
  _atom_site_fract_y
  _atom_site_fract_z
  _atom_site_occupancy
  _atom_site_charge
Cd  Cd1       1.0  0.82527  0.57756  0.23603  1.0000 0.9120451385
Cd  Cd2       1.0  0.67473  0.07756  0.26397  1.0000 0.9120451385
Cd  Cd3       1.0  0.67473  0.42244  0.73603  1.0000 0.9120451385
Cd  Cd4       1.0  0.82527  0.92244  0.76397  1.0000 0.9120451385
Cd  Cd5       1.0  0.17473  0.42244  0.76397  1.0000 0.9120451385
Cd  Cd6       1.0  0.32527  0.92244  0.73603  1.0000 0.9120451385
Cd  Cd7       1.0  0.32527  0.57756  0.26397  1.0000 0.9120451385
Cd  Cd8       1.0  0.17473  0.07756  0.23603  1.0000 0.9120451385
H   H1        1.0  0.33590  0.28060  0.17410  1.0000 0.1279911432
H   H2        1.0  0.16410  0.78060  0.32590  1.0000 0.1279911432
H   H3        1.0  0.16410  0.71940  0.67410  1.0000 0.1279911432
H   H4        1.0  0.33590  0.21940  0.82590  1.0000 0.1279911432
H   H5        1.0  0.66410  0.71940  0.82590  1.0000 0.1279911432
H   H6        1.0  0.83590  0.21940  0.67410  1.0000 0.1279911432
H   H7        1.0  0.83590  0.28060  0.32590  1.0000 0.1279911432
H   H8        1.0  0.66410  0.78060  0.17410  1.0000 0.1279911432
H   H9        1.0  0.44820  0.31010  0.10400  1.0000 0.1210448486
H   H10       1.0  0.05180  0.81010  0.39600  1.0000 0.1210448486
H   H11       1.0  0.05180  0.68990  0.60400  1.0000 0.1210448486
H   H12       1.0  0.44820  0.18990  0.89600  1.0000 0.1210448486
H   H13       1.0  0.55180  0.68990  0.89600  1.0000 0.1210448486
H   H14       1.0  0.94820  0.18990  0.60400  1.0000 0.1210448486
H   H15       1.0  0.94820  0.31010  0.39600  1.0000 0.1210448486
H   H16       1.0  0.55180  0.81010  0.10400  1.0000 0.1210448486
H   H17       1.0  0.60760  0.38830  0.11890  1.0000 0.1210448486
H   H18       1.0  0.89240  0.88830  0.38110  1.0000 0.1210448486
H   H19       1.0  0.89240  0.61170  0.61890  1.0000 0.1210448486
H   H20       1.0  0.60760  0.11170  0.88110  1.0000 0.1210448486
H   H21       1.0  0.39240  0.61170  0.88110  1.0000 0.1210448486
H   H22       1.0  0.10760  0.11170  0.61890  1.0000 0.1210448486
H   H23       1.0  0.10760  0.38830  0.38110  1.0000 0.1210448486
H   H24       1.0  0.39240  0.88830  0.11890  1.0000 0.1210448486
H   H25       1.0  0.62310  0.30250  0.41630  1.0000 0.1279911432
H   H26       1.0  0.87690  0.80250  0.08370  1.0000 0.1279911432
H   H27       1.0  0.87690  0.69750  0.91630  1.0000 0.1279911432
H   H28       1.0  0.62310  0.19750  0.58370  1.0000 0.1279911432
H   H29       1.0  0.37690  0.69750  0.58370  1.0000 0.1279911432
H   H30       1.0  0.12310  0.19750  0.91630  1.0000 0.1279911432
H   H31       1.0  0.12310  0.30250  0.08370  1.0000 0.1279911432
H   H32       1.0  0.37690  0.80250  0.41630  1.0000 0.1279911432
H   H33       1.0  0.57120  0.43870  0.44650  1.0000 0.1279911432
H   H34       1.0  0.92880  0.93870  0.05350  1.0000 0.1279911432
H   H35       1.0  0.92880  0.56130  0.94650  1.0000 0.1279911432
H   H36       1.0  0.57120  0.06130  0.55350  1.0000 0.1279911432
H   H37       1.0  0.42880  0.56130  0.55350  1.0000 0.1279911432
H   H38       1.0  0.07120  0.06130  0.94650  1.0000 0.1279911432
H   H39       1.0  0.07120  0.43870  0.05350  1.0000 0.1279911432
H   H40       1.0  0.42880  0.93870  0.44650  1.0000 0.1279911432
H   H41       1.0  0.51010  0.53950  0.38430  1.0000 0.1402804745
H   H42       1.0  0.98990  0.03950  0.11570  1.0000 0.1402804745
H   H43       1.0  0.98990  0.46050  0.88430  1.0000 0.1402804745
H   H44       1.0  0.51010  0.96050  0.61570  1.0000 0.1402804745
H   H45       1.0  0.48990  0.46050  0.61570  1.0000 0.1402804745
H   H46       1.0  0.01010  0.96050  0.88430  1.0000 0.1402804745
H   H47       1.0  0.01010  0.53950  0.11570  1.0000 0.1402804745
H   H48       1.0  0.48990  0.03950  0.38430  1.0000 0.1402804745
H   H49       1.0  0.75500  0.51580  0.35450  1.0000 0.10153525
H   H50       1.0  0.74500  0.01580  0.14550  1.0000 0.10153525
H   H51       1.0  0.74500  0.48420  0.85450  1.0000 0.10153525
H   H52       1.0  0.75500  0.98420  0.64550  1.0000 0.10153525
H   H53       1.0  0.24500  0.48420  0.64550  1.0000 0.10153525
H   H54       1.0  0.25500  0.98420  0.85450  1.0000 0.10153525
H   H55       1.0  0.25500  0.51580  0.14550  1.0000 0.10153525
H   H56       1.0  0.24500  0.01580  0.35450  1.0000 0.10153525
H   H57       1.0  0.81700  0.49510  0.44150  1.0000 0.1279911432
H   H58       1.0  0.68300  0.99510  0.05850  1.0000 0.1279911432
H   H59       1.0  0.68300  0.50490  0.94150  1.0000 0.1279911432
H   H60       1.0  0.81700  0.00490  0.55850  1.0000 0.1279911432
H   H61       1.0  0.18300  0.50490  0.55850  1.0000 0.1279911432
H   H62       1.0  0.31700  0.00490  0.94150  1.0000 0.1279911432
H   H63       1.0  0.31700  0.49510  0.05850  1.0000 0.1279911432
H   H64       1.0  0.18300  0.99510  0.44150  1.0000 0.1279911432
H   H65       1.0  0.09380  0.60360  0.39840  1.0000 0.1480323547
H   H66       1.0  0.40620  0.10360  0.10160  1.0000 0.1480323547
H   H67       1.0  0.40620  0.39640  0.89840  1.0000 0.1480323547
H   H68       1.0  0.09380  0.89640  0.60160  1.0000 0.1480323547
H   H69       1.0  0.90620  0.39640  0.60160  1.0000 0.1480323547
H   H70       1.0  0.59380  0.89640  0.89840  1.0000 0.1480323547
H   H71       1.0  0.59380  0.60360  0.10160  1.0000 0.1480323547
H   H72       1.0  0.90620  0.10360  0.39840  1.0000 0.1480323547
H   H73       1.0  0.02450  0.62540  0.31410  1.0000 0.1081039855
H   H74       1.0  0.47550  0.12540  0.18590  1.0000 0.1081039855
H   H75       1.0  0.47550  0.37460  0.81410  1.0000 0.1081039855
H   H76       1.0  0.02450  0.87460  0.68590  1.0000 0.1081039855
H   H77       1.0  0.97550  0.37460  0.68590  1.0000 0.1081039855
H   H78       1.0  0.52450  0.87460  0.81410  1.0000 0.1081039855
H   H79       1.0  0.52450  0.62540  0.18590  1.0000 0.1081039855
H   H80       1.0  0.97550  0.12540  0.31410  1.0000 0.1081039855
H   H81       1.0  0.07900  0.55460  0.49170  1.0000 0.1402804745
H   H82       1.0  0.42100  0.05460  0.00830  1.0000 0.1402804745
H   H83       1.0  0.42100  0.44540  0.99170  1.0000 0.1402804745
H   H84       1.0  0.07900  0.94540  0.50830  1.0000 0.1402804745
H   H85       1.0  0.92100  0.44540  0.50830  1.0000 0.1402804745
H   H86       1.0  0.57900  0.94540  0.99170  1.0000 0.1402804745
H   H87       1.0  0.57900  0.55460  0.00830  1.0000 0.1402804745
H   H88       1.0  0.92100  0.05460  0.49170  1.0000 0.1402804745
H   H89       1.0  0.66000  0.69030  0.27170  1.0000 0.3597186083
H   H90       1.0  0.84000  0.19030  0.22830  1.0000 0.3597186083
H   H91       1.0  0.84000  0.30970  0.77170  1.0000 0.3597186083
H   H92       1.0  0.66000  0.80970  0.72830  1.0000 0.3597186083
H   H93       1.0  0.34000  0.30970  0.72830  1.0000 0.3597186083
H   H94       1.0  0.16000  0.80970  0.77170  1.0000 0.3597186083
H   H95       1.0  0.16000  0.69030  0.22830  1.0000 0.3597186083
H   H96       1.0  0.34000  0.19030  0.27170  1.0000 0.3597186083
H   H97       1.0  0.62360  0.60200  0.27790  1.0000 0.3597186083
H   H98       1.0  0.87640  0.10200  0.22210  1.0000 0.3597186083
H   H99       1.0  0.87640  0.39800  0.77790  1.0000 0.3597186083
H   H100      1.0  0.62360  0.89800  0.72210  1.0000 0.3597186083
H   H101      1.0  0.37640  0.39800  0.72210  1.0000 0.3597186083
H   H102      1.0  0.12360  0.89800  0.77790  1.0000 0.3597186083
H   H103      1.0  0.12360  0.60200  0.22210  1.0000 0.3597186083
H   H104      1.0  0.37640  0.10200  0.27790  1.0000 0.3597186083
C   C1        1.0  0.40170  0.30680  0.18070  1.0000 -0.0407782541
C   C2        1.0  0.09830  0.80680  0.31930  1.0000 -0.0407782541
C   C3        1.0  0.09830  0.69320  0.68070  1.0000 -0.0407782541
C   C4        1.0  0.40170  0.19320  0.81930  1.0000 -0.0407782541
C   C5        1.0  0.59830  0.69320  0.81930  1.0000 -0.0407782541
C   C6        1.0  0.90170  0.19320  0.68070  1.0000 -0.0407782541
C   C7        1.0  0.90170  0.30680  0.31930  1.0000 -0.0407782541
C   C8        1.0  0.59830  0.80680  0.18070  1.0000 -0.0407782541
C   C9        1.0  0.46700  0.32660  0.13910  1.0000 -0.148882288
C   C10       1.0  0.03300  0.82660  0.36090  1.0000 -0.148882288
C   C11       1.0  0.03300  0.67340  0.63910  1.0000 -0.148882288
C   C12       1.0  0.46700  0.17340  0.86090  1.0000 -0.148882288
C   C13       1.0  0.53300  0.67340  0.86090  1.0000 -0.148882288
C   C14       1.0  0.96700  0.17340  0.63910  1.0000 -0.148882288
C   C15       1.0  0.96700  0.32660  0.36090  1.0000 -0.148882288
C   C16       1.0  0.53300  0.82660  0.13910  1.0000 -0.148882288
C   C17       1.0  0.56410  0.37210  0.14790  1.0000 -0.092392133
C   C18       1.0  0.93590  0.87210  0.35210  1.0000 -0.092392133
C   C19       1.0  0.93590  0.62790  0.64790  1.0000 -0.092392133
C   C20       1.0  0.56410  0.12790  0.85210  1.0000 -0.092392133
C   C21       1.0  0.43590  0.62790  0.85210  1.0000 -0.092392133
C   C22       1.0  0.06410  0.12790  0.64790  1.0000 -0.092392133
C   C23       1.0  0.06410  0.37210  0.35210  1.0000 -0.092392133
C   C24       1.0  0.43590  0.87210  0.14790  1.0000 -0.092392133
C   C25       1.0  0.59220  0.39170  0.20030  1.0000 -0.0528511307
C   C26       1.0  0.90780  0.89170  0.29970  1.0000 -0.0528511307
C   C27       1.0  0.90780  0.60830  0.70030  1.0000 -0.0528511307
C   C28       1.0  0.59220  0.10830  0.79970  1.0000 -0.0528511307
C   C29       1.0  0.40780  0.60830  0.79970  1.0000 -0.0528511307
C   C30       1.0  0.09220  0.10830  0.70030  1.0000 -0.0528511307
C   C31       1.0  0.09220  0.39170  0.29970  1.0000 -0.0528511307
C   C32       1.0  0.40780  0.89170  0.20030  1.0000 -0.0528511307
C   C33       1.0  0.52480  0.36650  0.24280  1.0000 0.0725614014
C   C34       1.0  0.97520  0.86650  0.25720  1.0000 0.0725614014
C   C35       1.0  0.97520  0.63350  0.74280  1.0000 0.0725614014
C   C36       1.0  0.52480  0.13350  0.75720  1.0000 0.0725614014
C   C37       1.0  0.47520  0.63350  0.75720  1.0000 0.0725614014
C   C38       1.0  0.02480  0.13350  0.74280  1.0000 0.0725614014
C   C39       1.0  0.02480  0.36650  0.25720  1.0000 0.0725614014
C   C40       1.0  0.47520  0.86650  0.24280  1.0000 0.0725614014
C   C41       1.0  0.54520  0.38230  0.30130  1.0000 0.0937318532
C   C42       1.0  0.95480  0.88230  0.19870  1.0000 0.0937318532
C   C43       1.0  0.95480  0.61770  0.80130  1.0000 0.0937318532
C   C44       1.0  0.54520  0.11770  0.69870  1.0000 0.0937318532
C   C45       1.0  0.45480  0.61770  0.69870  1.0000 0.0937318532
C   C46       1.0  0.04520  0.11770  0.80130  1.0000 0.0937318532
C   C47       1.0  0.04520  0.38230  0.19870  1.0000 0.0937318532
C   C48       1.0  0.45480  0.88230  0.30130  1.0000 0.0937318532
C   C49       1.0  0.58380  0.32050  0.33790  1.0000 -0.05857488
C   C50       1.0  0.91620  0.82050  0.16210  1.0000 -0.05857488
C   C51       1.0  0.91620  0.67950  0.83790  1.0000 -0.05857488
C   C52       1.0  0.58380  0.17950  0.66210  1.0000 -0.05857488
C   C53       1.0  0.41620  0.67950  0.66210  1.0000 -0.05857488
C   C54       1.0  0.08380  0.17950  0.83790  1.0000 -0.05857488
C   C55       1.0  0.08380  0.32050  0.16210  1.0000 -0.05857488
C   C56       1.0  0.41620  0.82050  0.33790  1.0000 -0.05857488
C   C57       1.0  0.59540  0.34270  0.39190  1.0000 -0.0840432741
C   C58       1.0  0.90460  0.84270  0.10810  1.0000 -0.0840432741
C   C59       1.0  0.90460  0.65730  0.89190  1.0000 -0.0840432741
C   C60       1.0  0.59540  0.15730  0.60810  1.0000 -0.0840432741
C   C61       1.0  0.40460  0.65730  0.60810  1.0000 -0.0840432741
C   C62       1.0  0.09540  0.15730  0.89190  1.0000 -0.0840432741
C   C63       1.0  0.09540  0.34270  0.10810  1.0000 -0.0840432741
C   C64       1.0  0.40460  0.84270  0.39190  1.0000 -0.0840432741
C   C65       1.0  0.56590  0.42440  0.40990  1.0000 -0.148882288
C   C66       1.0  0.93410  0.92440  0.09010  1.0000 -0.148882288
C   C67       1.0  0.93410  0.57560  0.90990  1.0000 -0.148882288
C   C68       1.0  0.56590  0.07560  0.59010  1.0000 -0.148882288
C   C69       1.0  0.43410  0.57560  0.59010  1.0000 -0.148882288
C   C70       1.0  0.06590  0.07560  0.90990  1.0000 -0.148882288
C   C71       1.0  0.06590  0.42440  0.09010  1.0000 -0.148882288
C   C72       1.0  0.43410  0.92440  0.40990  1.0000 -0.148882288
C   C73       1.0  0.52890  0.48410  0.37290  1.0000 -0.0315969628
C   C74       1.0  0.97110  0.98410  0.12710  1.0000 -0.0315969628
C   C75       1.0  0.97110  0.51590  0.87290  1.0000 -0.0315969628
C   C76       1.0  0.52890  0.01590  0.62710  1.0000 -0.0315969628
C   C77       1.0  0.47110  0.51590  0.62710  1.0000 -0.0315969628
C   C78       1.0  0.02890  0.01590  0.87290  1.0000 -0.0315969628
C   C79       1.0  0.02890  0.48410  0.12710  1.0000 -0.0315969628
C   C80       1.0  0.47110  0.98410  0.37290  1.0000 -0.0315969628
C   C81       1.0  0.69140  0.44490  0.21280  1.0000 0.5578118139
C   C82       1.0  0.80860  0.94490  0.28720  1.0000 0.5578118139
C   C83       1.0  0.80860  0.55510  0.71280  1.0000 0.5578118139
C   C84       1.0  0.69140  0.05510  0.78720  1.0000 0.5578118139
C   C85       1.0  0.30860  0.55510  0.78720  1.0000 0.5578118139
C   C86       1.0  0.19140  0.05510  0.71280  1.0000 0.5578118139
C   C87       1.0  0.19140  0.44490  0.28720  1.0000 0.5578118139
C   C88       1.0  0.30860  0.94490  0.21280  1.0000 0.5578118139
C   C89       1.0  0.61720  0.23080  0.31700  1.0000 0.5396631235
C   C90       1.0  0.88280  0.73080  0.18300  1.0000 0.5396631235
C   C91       1.0  0.88280  0.76920  0.81700  1.0000 0.5396631235
C   C92       1.0  0.61720  0.26920  0.68300  1.0000 0.5396631235
C   C93       1.0  0.38280  0.76920  0.68300  1.0000 0.5396631235
C   C94       1.0  0.11720  0.26920  0.81700  1.0000 0.5396631235
C   C95       1.0  0.11720  0.23080  0.18300  1.0000 0.5396631235
C   C96       1.0  0.38280  0.73080  0.31700  1.0000 0.5396631235
C   C97       1.0  0.82390  0.53420  0.36340  1.0000 0.0937318532
C   C98       1.0  0.67610  0.03420  0.13660  1.0000 0.0937318532
C   C99       1.0  0.67610  0.46580  0.86340  1.0000 0.0937318532
C   C100      1.0  0.82390  0.96580  0.63660  1.0000 0.0937318532
C   C101      1.0  0.17610  0.46580  0.63660  1.0000 0.0937318532
C   C102      1.0  0.32390  0.96580  0.86340  1.0000 0.0937318532
C   C103      1.0  0.32390  0.53420  0.13660  1.0000 0.0937318532
C   C104      1.0  0.17610  0.03420  0.36340  1.0000 0.0937318532
C   C105      1.0  0.86110  0.52080  0.41570  1.0000 -0.221829629
C   C106      1.0  0.63890  0.02080  0.08430  1.0000 -0.221829629
C   C107      1.0  0.63890  0.47920  0.91570  1.0000 -0.221829629
C   C108      1.0  0.86110  0.97920  0.58430  1.0000 -0.221829629
C   C109      1.0  0.13890  0.47920  0.58430  1.0000 -0.221829629
C   C110      1.0  0.36110  0.97920  0.91570  1.0000 -0.221829629
C   C111      1.0  0.36110  0.52080  0.08430  1.0000 -0.221829629
C   C112      1.0  0.13890  0.02080  0.41570  1.0000 -0.221829629
C   C113      1.0  0.96440  0.54600  0.42930  1.0000 0.1402804745
C   C114      1.0  0.53560  0.04600  0.07070  1.0000 0.1402804745
C   C115      1.0  0.53560  0.45400  0.92930  1.0000 0.1402804745
C   C116      1.0  0.96440  0.95400  0.57070  1.0000 0.1402804745
C   C117      1.0  0.03560  0.45400  0.57070  1.0000 0.1402804745
C   C118      1.0  0.46440  0.95400  0.92930  1.0000 0.1402804745
C   C119      1.0  0.46440  0.54600  0.07070  1.0000 0.1402804745
C   C120      1.0  0.03560  0.04600  0.42930  1.0000 0.1402804745
C   C121      1.0  0.02450  0.58530  0.39060  1.0000 -0.1906683943
C   C122      1.0  0.47550  0.08530  0.10940  1.0000 -0.1906683943
C   C123      1.0  0.47550  0.41470  0.89060  1.0000 -0.1906683943
C   C124      1.0  0.02450  0.91470  0.60940  1.0000 -0.1906683943
C   C125      1.0  0.97550  0.41470  0.60940  1.0000 -0.1906683943
C   C126      1.0  0.52450  0.91470  0.89060  1.0000 -0.1906683943
C   C127      1.0  0.52450  0.58530  0.10940  1.0000 -0.1906683943
C   C128      1.0  0.97550  0.08530  0.39060  1.0000 -0.1906683943
C   C129      1.0  0.98210  0.59780  0.34000  1.0000 0.10153525
C   C130      1.0  0.51790  0.09780  0.16000  1.0000 0.10153525
C   C131      1.0  0.51790  0.40220  0.84000  1.0000 0.10153525
C   C132      1.0  0.98210  0.90220  0.66000  1.0000 0.10153525
C   C133      1.0  0.01790  0.40220  0.66000  1.0000 0.10153525
C   C134      1.0  0.48210  0.90220  0.84000  1.0000 0.10153525
C   C135      1.0  0.48210  0.59780  0.16000  1.0000 0.10153525
C   C136      1.0  0.01790  0.09780  0.34000  1.0000 0.10153525
C   C137      1.0  0.01600  0.52520  0.48340  1.0000 -0.1105086668
C   C138      1.0  0.48400  0.02520  0.01660  1.0000 -0.1105086668
C   C139      1.0  0.48400  0.47480  0.98340  1.0000 -0.1105086668
C   C140      1.0  0.01600  0.97480  0.51660  1.0000 -0.1105086668
C   C141      1.0  0.98400  0.47480  0.51660  1.0000 -0.1105086668
C   C142      1.0  0.51600  0.97480  0.98340  1.0000 -0.1105086668
C   C143      1.0  0.51600  0.52520  0.01660  1.0000 -0.1105086668
C   C144      1.0  0.98400  0.02520  0.48340  1.0000 -0.1105086668
N   N1        1.0  0.43140  0.32500  0.23210  1.0000 0.2792569646
N   N2        1.0  0.06860  0.82500  0.26790  1.0000 0.2792569646
N   N3        1.0  0.06860  0.67500  0.73210  1.0000 0.2792569646
N   N4        1.0  0.43140  0.17500  0.76790  1.0000 0.2792569646
N   N5        1.0  0.56860  0.67500  0.76790  1.0000 0.2792569646
N   N6        1.0  0.93140  0.17500  0.73210  1.0000 0.2792569646
N   N7        1.0  0.93140  0.32500  0.26790  1.0000 0.2792569646
N   N8        1.0  0.56860  0.82500  0.23210  1.0000 0.2792569646
N   N9        1.0  0.51990  0.46250  0.32080  1.0000 0.2792569646
N   N10       1.0  0.98010  0.96250  0.17920  1.0000 0.2792569646
N   N11       1.0  0.98010  0.53750  0.82080  1.0000 0.2792569646
N   N12       1.0  0.51990  0.03750  0.67920  1.0000 0.2792569646
N   N13       1.0  0.48010  0.53750  0.67920  1.0000 0.2792569646
N   N14       1.0  0.01990  0.03750  0.82080  1.0000 0.2792569646
N   N15       1.0  0.01990  0.46250  0.17920  1.0000 0.2792569646
N   N16       1.0  0.48010  0.96250  0.32080  1.0000 0.2792569646
N   N17       1.0  0.88350  0.57270  0.32532  1.0000 -0.221829629
N   N18       1.0  0.61650  0.07270  0.17468  1.0000 -0.221829629
N   N19       1.0  0.61650  0.42730  0.82532  1.0000 -0.221829629
N   N20       1.0  0.88350  0.92730  0.67468  1.0000 -0.221829629
N   N21       1.0  0.11650  0.42730  0.67468  1.0000 -0.221829629
N   N22       1.0  0.38350  0.92730  0.82532  1.0000 -0.221829629
N   N23       1.0  0.38350  0.57270  0.17468  1.0000 -0.221829629
N   N24       1.0  0.11650  0.07270  0.32532  1.0000 -0.221829629
O   O1        1.0  0.73510  0.48380  0.17381  1.0000 -0.537245311
O   O2        1.0  0.76490  0.98380  0.32619  1.0000 -0.537245311
O   O3        1.0  0.76490  0.51620  0.67381  1.0000 -0.537245311
O   O4        1.0  0.73510  0.01620  0.82619  1.0000 -0.537245311
O   O5        1.0  0.26490  0.51620  0.82619  1.0000 -0.537245311
O   O6        1.0  0.23510  0.01620  0.67381  1.0000 -0.537245311
O   O7        1.0  0.23510  0.48380  0.32619  1.0000 -0.537245311
O   O8        1.0  0.26490  0.98380  0.17381  1.0000 -0.537245311
O   O9        1.0  0.72050  0.45320  0.26063  1.0000 -0.534117741
O   O10       1.0  0.77950  0.95320  0.23937  1.0000 -0.534117741
O   O11       1.0  0.77950  0.54680  0.76063  1.0000 -0.534117741
O   O12       1.0  0.72050  0.04680  0.73937  1.0000 -0.534117741
O   O13       1.0  0.27950  0.54680  0.73937  1.0000 -0.534117741
O   O14       1.0  0.22050  0.04680  0.76063  1.0000 -0.534117741
O   O15       1.0  0.22050  0.45320  0.23937  1.0000 -0.534117741
O   O16       1.0  0.27950  0.95320  0.26063  1.0000 -0.534117741
O   O17       1.0  0.66640  0.18210  0.34820  1.0000 -0.537245311
O   O18       1.0  0.83360  0.68210  0.15180  1.0000 -0.537245311
O   O19       1.0  0.83360  0.81790  0.84820  1.0000 -0.537245311
O   O20       1.0  0.66640  0.31790  0.65180  1.0000 -0.537245311
O   O21       1.0  0.33360  0.81790  0.65180  1.0000 -0.537245311
O   O22       1.0  0.16640  0.31790  0.84820  1.0000 -0.537245311
O   O23       1.0  0.16640  0.18210  0.15180  1.0000 -0.537245311
O   O24       1.0  0.33360  0.68210  0.34820  1.0000 -0.537245311
O   O25       1.0  0.59790  0.21130  0.27020  1.0000 -0.4877670458
O   O26       1.0  0.90210  0.71130  0.22980  1.0000 -0.4877670458
O   O27       1.0  0.90210  0.78870  0.77020  1.0000 -0.4877670458
O   O28       1.0  0.59790  0.28870  0.72980  1.0000 -0.4877670458
O   O29       1.0  0.40210  0.78870  0.72980  1.0000 -0.4877670458
O   O30       1.0  0.09790  0.28870  0.77020  1.0000 -0.4877670458
O   O31       1.0  0.09790  0.21130  0.22980  1.0000 -0.4877670458
O   O32       1.0  0.40210  0.71130  0.27020  1.0000 -0.4877670458
O   O33       1.0  0.36810  0.30480  0.27370  1.0000 -0.4721326506
O   O34       1.0  0.13190  0.80480  0.22630  1.0000 -0.4721326506
O   O35       1.0  0.13190  0.69520  0.77370  1.0000 -0.4721326506
O   O36       1.0  0.36810  0.19520  0.72630  1.0000 -0.4721326506
O   O37       1.0  0.63190  0.69520  0.72630  1.0000 -0.4721326506
O   O38       1.0  0.86810  0.19520  0.77370  1.0000 -0.4721326506
O   O39       1.0  0.86810  0.30480  0.22630  1.0000 -0.4721326506
O   O40       1.0  0.63190  0.80480  0.27370  1.0000 -0.4721326506
O   O41       1.0  0.49280  0.52420  0.28452  1.0000 -0.537245311
O   O42       1.0  0.00720  0.02420  0.21548  1.0000 -0.537245311
O   O43       1.0  0.00720  0.47580  0.78452  1.0000 -0.537245311
O   O44       1.0  0.49280  0.97580  0.71548  1.0000 -0.537245311
O   O45       1.0  0.50720  0.47580  0.71548  1.0000 -0.537245311
O   O46       1.0  0.99280  0.97580  0.78452  1.0000 -0.537245311
O   O47       1.0  0.99280  0.52420  0.21548  1.0000 -0.537245311
O   O48       1.0  0.50720  0.02420  0.28452  1.0000 -0.537245311
O   O49       1.0  0.66667  0.63800  0.26660  1.0000 -0.6730079628
O   O50       1.0  0.83333  0.13800  0.23340  1.0000 -0.6730079628
O   O51       1.0  0.83333  0.36200  0.76660  1.0000 -0.6730079628
O   O52       1.0  0.66667  0.86200  0.73340  1.0000 -0.6730079628
O   O53       1.0  0.33333  0.36200  0.73340  1.0000 -0.6730079628
O   O54       1.0  0.16667  0.86200  0.76660  1.0000 -0.6730079628
O   O55       1.0  0.16667  0.63800  0.23340  1.0000 -0.6730079628
O   O56       1.0  0.33333  0.13800  0.26660  1.0000 -0.6730079628
