# DDEC6 charges by PACMAN v1.1 (https://github.com/mtap-research/PACMAN-charge/)
data_2014[Ce][nan]3[FSR]2
_chemical_formula_sum              "Ce8 H136 C168 N32 O60"
_cell_length_a       16.991
_cell_length_b       11.126
_cell_length_c       27.541
_cell_angle_alpha    90
_cell_angle_beta     99.01
_cell_angle_gamma    90

_symmetry_space_group_name_H-M    "P 1"
_symmetry_Int_Tables_number       1

loop_
  _symmetry_equiv_pos_as_xyz
  'x, y, z'

loop_
  _atom_site_type_symbol
  _atom_site_label
  _atom_site_symmetry_multiplicity
  _atom_site_fract_x
  _atom_site_fract_y
  _atom_site_fract_z
  _atom_site_occupancy
  _atom_site_charge
Ce  Ce1       1.0  0.30960  0.36790  0.74784  1.0000 1.9433467558
Ce  Ce2       1.0  0.19040  0.86790  0.25216  1.0000 1.9433467558
Ce  Ce3       1.0  0.69040  0.63210  0.25216  1.0000 1.9433467558
Ce  Ce4       1.0  0.80960  0.13210  0.74784  1.0000 1.9433467558
Ce  Ce5       1.0  0.02665  0.32611  0.74881  1.0000 1.9856254032
Ce  Ce6       1.0  0.47335  0.82611  0.25119  1.0000 1.9856254032
Ce  Ce7       1.0  0.97335  0.67389  0.25119  1.0000 1.9856254032
Ce  Ce8       1.0  0.52665  0.17389  0.74881  1.0000 1.9856254032
H   H1        1.0  0.25880  0.17960  0.87310  1.0000 0.1282116907
H   H2        1.0  0.24120  0.67960  0.12690  1.0000 0.1282116907
H   H3        1.0  0.74120  0.82040  0.12690  1.0000 0.1282116907
H   H4        1.0  0.75880  0.32040  0.87310  1.0000 0.1282116907
H   H5        1.0  0.24200  0.12390  0.95080  1.0000 0.1205028396
H   H6        1.0  0.25800  0.62390  0.04920  1.0000 0.1205028396
H   H7        1.0  0.75800  0.87610  0.04920  1.0000 0.1205028396
H   H8        1.0  0.74200  0.37610  0.95080  1.0000 0.1205028396
H   H9        1.0  0.45110  0.97350  0.88810  1.0000 0.1033997979
H   H10       1.0  0.04890  0.47350  0.11190  1.0000 0.1033997979
H   H11       1.0  0.54890  0.02650  0.11190  1.0000 0.1033997979
H   H12       1.0  0.95110  0.52650  0.88810  1.0000 0.1033997979
H   H13       1.0  0.44120  0.91650  0.03510  1.0000 0.1282116907
H   H14       1.0  0.05880  0.41650  0.96490  1.0000 0.1282116907
H   H15       1.0  0.55880  0.08350  0.96490  1.0000 0.1282116907
H   H16       1.0  0.94120  0.58350  0.03510  1.0000 0.1282116907
H   H17       1.0  0.21440  0.02510  0.09150  1.0000 0.1085918132
H   H18       1.0  0.28560  0.52510  0.90850  1.0000 0.1085918132
H   H19       1.0  0.78560  0.97490  0.90850  1.0000 0.1085918132
H   H20       1.0  0.71440  0.47490  0.09150  1.0000 0.1085918132
H   H21       1.0  0.43310  0.89030  0.11580  1.0000 0.1205028396
H   H22       1.0  0.06690  0.39030  0.88420  1.0000 0.1205028396
H   H23       1.0  0.56690  0.10970  0.88420  1.0000 0.1205028396
H   H24       1.0  0.93310  0.60970  0.11580  1.0000 0.1205028396
H   H25       1.0  0.38220  0.56730  0.60260  1.0000 0.1085918132
H   H26       1.0  0.11780  0.06730  0.39740  1.0000 0.1085918132
H   H27       1.0  0.61780  0.43270  0.39740  1.0000 0.1085918132
H   H28       1.0  0.88220  0.93270  0.60260  1.0000 0.1085918132
H   H29       1.0  0.58100  0.36830  0.54140  1.0000 0.1205028396
H   H30       1.0  0.91900  0.86830  0.45860  1.0000 0.1205028396
H   H31       1.0  0.41900  0.63170  0.45860  1.0000 0.1205028396
H   H32       1.0  0.08100  0.13170  0.54140  1.0000 0.1205028396
H   H33       1.0  0.56100  0.33510  0.62000  1.0000 0.1282116907
H   H34       1.0  0.93900  0.83510  0.38000  1.0000 0.1282116907
H   H35       1.0  0.43900  0.66490  0.38000  1.0000 0.1282116907
H   H36       1.0  0.06100  0.16490  0.62000  1.0000 0.1282116907
H   H37       1.0  0.10880  0.10110  0.98810  1.0000 0.1282116907
H   H38       1.0  0.39120  0.60110  0.01190  1.0000 0.1282116907
H   H39       1.0  0.89120  0.89890  0.01190  1.0000 0.1282116907
H   H40       1.0  0.60880  0.39890  0.98810  1.0000 0.1282116907
H   H41       1.0  0.11530  0.15300  0.90780  1.0000 0.1085918132
H   H42       1.0  0.38470  0.65300  0.09220  1.0000 0.1085918132
H   H43       1.0  0.88470  0.84700  0.09220  1.0000 0.1085918132
H   H44       1.0  0.61530  0.34700  0.90780  1.0000 0.1085918132
H   H45       1.0  0.89990  0.00460  0.86970  1.0000 0.1085918132
H   H46       1.0  0.60010  0.50460  0.13030  1.0000 0.1085918132
H   H47       1.0  0.10010  0.99540  0.13030  1.0000 0.1085918132
H   H48       1.0  0.39990  0.49540  0.86970  1.0000 0.1085918132
H   H49       1.0  0.03510  0.38020  0.57980  1.0000 0.1205028396
H   H50       1.0  0.46490  0.88020  0.42020  1.0000 0.1205028396
H   H51       1.0  0.96490  0.61980  0.42020  1.0000 0.1205028396
H   H52       1.0  0.53510  0.11980  0.57980  1.0000 0.1205028396
H   H53       1.0  0.04850  0.40760  0.49890  1.0000 0.1282116907
H   H54       1.0  0.45150  0.90760  0.50110  1.0000 0.1282116907
H   H55       1.0  0.95150  0.59240  0.50110  1.0000 0.1282116907
H   H56       1.0  0.54850  0.09240  0.49890  1.0000 0.1282116907
H   H57       1.0  0.26640  0.44400  0.61680  1.0000 0.1033997979
H   H58       1.0  0.23360  0.94400  0.38320  1.0000 0.1033997979
H   H59       1.0  0.73360  0.55600  0.38320  1.0000 0.1033997979
H   H60       1.0  0.76640  0.05600  0.61680  1.0000 0.1033997979
H   H61       1.0  0.29070  0.51470  0.47250  1.0000 0.1282116907
H   H62       1.0  0.20930  0.01470  0.52750  1.0000 0.1282116907
H   H63       1.0  0.70930  0.48530  0.52750  1.0000 0.1282116907
H   H64       1.0  0.79070  0.98530  0.47250  1.0000 0.1282116907
H   H65       1.0  0.29210  0.61950  0.39990  1.0000 0.1205028396
H   H66       1.0  0.20790  0.11950  0.60010  1.0000 0.1205028396
H   H67       1.0  0.70790  0.38050  0.60010  1.0000 0.1205028396
H   H68       1.0  0.79210  0.88050  0.39990  1.0000 0.1205028396
H   H69       1.0  0.06180  0.53350  0.36050  1.0000 0.1085918132
H   H70       1.0  0.43820  0.03350  0.63950  1.0000 0.1085918132
H   H71       1.0  0.93820  0.46650  0.63950  1.0000 0.1085918132
H   H72       1.0  0.56180  0.96650  0.36050  1.0000 0.1085918132
H   H73       1.0  0.04700  0.63360  0.78300  1.0000 0.1033997979
H   H74       1.0  0.45300  0.13360  0.21700  1.0000 0.1033997979
H   H75       1.0  0.95300  0.36640  0.21700  1.0000 0.1033997979
H   H76       1.0  0.54700  0.86640  0.78300  1.0000 0.1033997979
H   H77       1.0  0.05390  0.83030  0.79500  1.0000 0.1282116907
H   H78       1.0  0.44610  0.33030  0.20500  1.0000 0.1282116907
H   H79       1.0  0.94610  0.16970  0.20500  1.0000 0.1282116907
H   H80       1.0  0.55390  0.66970  0.79500  1.0000 0.1282116907
H   H81       1.0  0.98670  0.90470  0.76280  1.0000 0.1399952517
H   H82       1.0  0.51330  0.40470  0.23720  1.0000 0.1399952517
H   H83       1.0  0.01330  0.09530  0.23720  1.0000 0.1399952517
H   H84       1.0  0.48670  0.59530  0.76280  1.0000 0.1399952517
H   H85       1.0  0.07250  0.89970  0.74860  1.0000 0.1399952517
H   H86       1.0  0.42750  0.39970  0.25140  1.0000 0.1399952517
H   H87       1.0  0.92750  0.10030  0.25140  1.0000 0.1399952517
H   H88       1.0  0.57250  0.60030  0.74860  1.0000 0.1399952517
H   H89       1.0  0.91790  0.76350  0.67950  1.0000 0.1205028396
H   H90       1.0  0.58210  0.26350  0.32050  1.0000 0.1205028396
H   H91       1.0  0.08210  0.23650  0.32050  1.0000 0.1205028396
H   H92       1.0  0.41790  0.73650  0.67950  1.0000 0.1205028396
H   H93       1.0  0.98950  0.69370  0.66320  1.0000 0.1399952517
H   H94       1.0  0.51050  0.19370  0.33680  1.0000 0.1399952517
H   H95       1.0  0.01050  0.30630  0.33680  1.0000 0.1399952517
H   H96       1.0  0.48950  0.80630  0.66320  1.0000 0.1399952517
H   H97       1.0  0.99310  0.83400  0.66870  1.0000 0.1282116907
H   H98       1.0  0.50690  0.33400  0.33130  1.0000 0.1282116907
H   H99       1.0  0.00690  0.16600  0.33130  1.0000 0.1282116907
H   H100      1.0  0.49310  0.66600  0.66870  1.0000 0.1282116907
H   H101      1.0  0.28020  0.65210  0.70530  1.0000 0.1085918132
H   H102      1.0  0.21980  0.15210  0.29470  1.0000 0.1085918132
H   H103      1.0  0.71980  0.34790  0.29470  1.0000 0.1085918132
H   H104      1.0  0.78020  0.84790  0.70530  1.0000 0.1085918132
H   H105      1.0  0.34160  0.73130  0.82380  1.0000 0.1399952517
H   H106      1.0  0.15840  0.23130  0.17620  1.0000 0.1399952517
H   H107      1.0  0.65840  0.26870  0.17620  1.0000 0.1399952517
H   H108      1.0  0.84160  0.76870  0.82380  1.0000 0.1399952517
H   H109      1.0  0.29970  0.85710  0.81840  1.0000 0.1282116907
H   H110      1.0  0.20030  0.35710  0.18160  1.0000 0.1282116907
H   H111      1.0  0.70030  0.14290  0.18160  1.0000 0.1282116907
H   H112      1.0  0.79970  0.64290  0.81840  1.0000 0.1282116907
H   H113      1.0  0.38730  0.84340  0.80800  1.0000 0.1205028396
H   H114      1.0  0.11270  0.34340  0.19200  1.0000 0.1205028396
H   H115      1.0  0.61270  0.15660  0.19200  1.0000 0.1205028396
H   H116      1.0  0.88730  0.65660  0.80800  1.0000 0.1205028396
H   H117      1.0  0.33230  0.93750  0.72440  1.0000 0.1399952517
H   H118      1.0  0.16770  0.43750  0.27560  1.0000 0.1399952517
H   H119      1.0  0.66770  0.06250  0.27560  1.0000 0.1399952517
H   H120      1.0  0.83230  0.56250  0.72440  1.0000 0.1399952517
H   H121      1.0  0.24590  0.93370  0.73750  1.0000 0.1399952517
H   H122      1.0  0.25410  0.43370  0.26250  1.0000 0.1399952517
H   H123      1.0  0.75410  0.06630  0.26250  1.0000 0.1399952517
H   H124      1.0  0.74590  0.56630  0.73750  1.0000 0.1399952517
H   H125      1.0  0.26470  0.86830  0.69030  1.0000 0.1282116907
H   H126      1.0  0.23530  0.36830  0.30970  1.0000 0.1282116907
H   H127      1.0  0.73530  0.13170  0.30970  1.0000 0.1282116907
H   H128      1.0  0.76470  0.63170  0.69030  1.0000 0.1282116907
H   H129      1.0  0.16230  0.17190  0.72090  1.0000 0.4180733099
H   H130      1.0  0.33770  0.67190  0.27910  1.0000 0.4180733099
H   H131      1.0  0.83770  0.82810  0.27910  1.0000 0.4180733099
H   H132      1.0  0.66230  0.32810  0.72090  1.0000 0.4180733099
H   H133      1.0  0.17720  0.17420  0.77810  1.0000 0.4180733099
H   H134      1.0  0.32280  0.67420  0.22190  1.0000 0.4180733099
H   H135      1.0  0.82280  0.82580  0.22190  1.0000 0.4180733099
H   H136      1.0  0.67720  0.32580  0.77810  1.0000 0.4180733099
C   C1        1.0  0.37490  0.12500  0.82310  1.0000 0.618408507
C   C2        1.0  0.12510  0.62500  0.17690  1.0000 0.618408507
C   C3        1.0  0.62510  0.87500  0.17690  1.0000 0.618408507
C   C4        1.0  0.87490  0.37500  0.82310  1.0000 0.618408507
C   C5        1.0  0.36020  0.08600  0.87190  1.0000 -0.0980419877
C   C6        1.0  0.13980  0.58600  0.12810  1.0000 -0.0980419877
C   C7        1.0  0.63980  0.91400  0.12810  1.0000 -0.0980419877
C   C8        1.0  0.86020  0.41400  0.87190  1.0000 -0.0980419877
C   C9        1.0  0.29540  0.12800  0.89140  1.0000 -0.0642898261
C   C10       1.0  0.20460  0.62800  0.10860  1.0000 -0.0642898261
C   C11       1.0  0.70460  0.87200  0.10860  1.0000 -0.0642898261
C   C12       1.0  0.79540  0.37200  0.89140  1.0000 -0.0642898261
C   C13       1.0  0.28550  0.09500  0.93760  1.0000 -0.1594181561
C   C14       1.0  0.21450  0.59500  0.06240  1.0000 -0.1594181561
C   C15       1.0  0.71450  0.90500  0.06240  1.0000 -0.1594181561
C   C16       1.0  0.78550  0.40500  0.93760  1.0000 -0.1594181561
C   C17       1.0  0.33870  0.01900  0.96520  1.0000 0.1788290909
C   C18       1.0  0.16130  0.51900  0.03480  1.0000 0.1788290909
C   C19       1.0  0.66130  0.98100  0.03480  1.0000 0.1788290909
C   C20       1.0  0.83870  0.48100  0.96520  1.0000 0.1788290909
C   C21       1.0  0.40880  0.00670  0.90120  1.0000 0.0519816254
C   C22       1.0  0.09120  0.50670  0.09880  1.0000 0.0519816254
C   C23       1.0  0.59120  0.99330  0.09880  1.0000 0.0519816254
C   C24       1.0  0.90880  0.49330  0.90120  1.0000 0.0519816254
C   C25       1.0  0.33350  0.99000  0.01680  1.0000 0.1593177861
C   C26       1.0  0.16650  0.49000  0.98320  1.0000 0.1593177861
C   C27       1.0  0.66650  0.01000  0.98320  1.0000 0.1593177861
C   C28       1.0  0.83350  0.51000  0.01680  1.0000 0.1593177861
C   C29       1.0  0.39530  0.93940  0.04730  1.0000 -0.1386060619
C   C30       1.0  0.10470  0.43940  0.95270  1.0000 -0.1386060619
C   C31       1.0  0.60470  0.06060  0.95270  1.0000 -0.1386060619
C   C32       1.0  0.89530  0.56060  0.04730  1.0000 -0.1386060619
C   C33       1.0  0.26150  0.00400  0.08030  1.0000 0.0616083949
C   C34       1.0  0.23850  0.50400  0.91970  1.0000 0.0616083949
C   C35       1.0  0.73850  0.99600  0.91970  1.0000 0.0616083949
C   C36       1.0  0.76150  0.49600  0.08030  1.0000 0.0616083949
C   C37       1.0  0.32040  0.95330  0.11360  1.0000 -0.0872440112
C   C38       1.0  0.17960  0.45330  0.88640  1.0000 -0.0872440112
C   C39       1.0  0.67960  0.04670  0.88640  1.0000 -0.0872440112
C   C40       1.0  0.82040  0.54670  0.11360  1.0000 -0.0872440112
C   C41       1.0  0.39000  0.92270  0.09490  1.0000 -0.0714718716
C   C42       1.0  0.11000  0.42270  0.90510  1.0000 -0.0714718716
C   C43       1.0  0.61000  0.07730  0.90510  1.0000 -0.0714718716
C   C44       1.0  0.89000  0.57730  0.09490  1.0000 -0.0714718716
C   C45       1.0  0.31200  0.93450  0.16570  1.0000 0.618408507
C   C46       1.0  0.18800  0.43450  0.83430  1.0000 0.618408507
C   C47       1.0  0.68800  0.06550  0.83430  1.0000 0.618408507
C   C48       1.0  0.81200  0.56550  0.16570  1.0000 0.618408507
C   C49       1.0  0.45190  0.41210  0.67100  1.0000 0.618408507
C   C50       1.0  0.04810  0.91210  0.32900  1.0000 0.618408507
C   C51       1.0  0.54810  0.58790  0.32900  1.0000 0.618408507
C   C52       1.0  0.95190  0.08790  0.67100  1.0000 0.618408507
C   C53       1.0  0.46660  0.44200  0.61970  1.0000 -0.0714718716
C   C54       1.0  0.03340  0.94200  0.38030  1.0000 -0.0714718716
C   C55       1.0  0.53340  0.55800  0.38030  1.0000 -0.0714718716
C   C56       1.0  0.96660  0.05800  0.61970  1.0000 -0.0714718716
C   C57       1.0  0.42230  0.52630  0.59000  1.0000 0.0519816254
C   C58       1.0  0.07770  0.02630  0.41000  1.0000 0.0519816254
C   C59       1.0  0.57770  0.47370  0.41000  1.0000 0.0519816254
C   C60       1.0  0.92230  0.97370  0.59000  1.0000 0.0519816254
C   C61       1.0  0.54060  0.40890  0.55380  1.0000 -0.1508019483
C   C62       1.0  0.95940  0.90890  0.44620  1.0000 -0.1508019483
C   C63       1.0  0.45940  0.59110  0.44620  1.0000 -0.1508019483
C   C64       1.0  0.04060  0.09110  0.55380  1.0000 -0.1508019483
C   C65       1.0  0.49450  0.48920  0.52570  1.0000 0.1539882107
C   C66       1.0  0.00550  0.98920  0.47430  1.0000 0.1539882107
C   C67       1.0  0.50550  0.51080  0.47430  1.0000 0.1539882107
C   C68       1.0  0.99450  0.01080  0.52570  1.0000 0.1539882107
C   C69       1.0  0.52750  0.38800  0.60040  1.0000 -0.0780298092
C   C70       1.0  0.97250  0.88800  0.39960  1.0000 -0.0780298092
C   C71       1.0  0.47250  0.61200  0.39960  1.0000 -0.0780298092
C   C72       1.0  0.02750  0.11200  0.60040  1.0000 -0.0780298092
C   C73       1.0  0.00190  0.02000  0.97460  1.0000 0.1708257126
C   C74       1.0  0.49810  0.52000  0.02540  1.0000 0.1708257126
C   C75       1.0  0.99810  0.98000  0.02540  1.0000 0.1708257126
C   C76       1.0  0.50190  0.48000  0.97460  1.0000 0.1708257126
C   C77       1.0  0.06690  0.08200  0.96340  1.0000 -0.1508019483
C   C78       1.0  0.43310  0.58200  0.03660  1.0000 -0.1508019483
C   C79       1.0  0.93310  0.91800  0.03660  1.0000 -0.1508019483
C   C80       1.0  0.56690  0.41800  0.96340  1.0000 -0.1508019483
C   C81       1.0  0.06990  0.11600  0.91590  1.0000 -0.0642898261
C   C82       1.0  0.43010  0.61600  0.08410  1.0000 -0.0642898261
C   C83       1.0  0.93010  0.88400  0.08410  1.0000 -0.0642898261
C   C84       1.0  0.56990  0.38400  0.91590  1.0000 -0.0642898261
C   C85       1.0  0.00370  0.09500  0.87980  1.0000 -0.0980419877
C   C86       1.0  0.49630  0.59500  0.12020  1.0000 -0.0980419877
C   C87       1.0  0.99630  0.90500  0.12020  1.0000 -0.0980419877
C   C88       1.0  0.50370  0.40500  0.87980  1.0000 -0.0980419877
C   C89       1.0  0.94180  0.02700  0.89390  1.0000 0.0742089471
C   C90       1.0  0.55820  0.52700  0.10610  1.0000 0.0742089471
C   C91       1.0  0.05820  0.97300  0.10610  1.0000 0.0742089471
C   C92       1.0  0.44180  0.47300  0.89390  1.0000 0.0742089471
C   C93       1.0  0.00330  0.13600  0.82940  1.0000 0.5990580014
C   C94       1.0  0.49670  0.63600  0.17060  1.0000 0.5990580014
C   C95       1.0  0.99670  0.86400  0.17060  1.0000 0.5990580014
C   C96       1.0  0.50330  0.36400  0.82940  1.0000 0.5990580014
C   C97       1.0  0.14170  0.41280  0.66190  1.0000 0.618408507
C   C98       1.0  0.35830  0.91280  0.33810  1.0000 0.618408507
C   C99       1.0  0.85830  0.58720  0.33810  1.0000 0.618408507
C   C100      1.0  0.64170  0.08720  0.66190  1.0000 0.618408507
C   C101      1.0  0.14770  0.42190  0.60860  1.0000 -0.0780298092
C   C102      1.0  0.35230  0.92190  0.39140  1.0000 -0.0780298092
C   C103      1.0  0.85230  0.57810  0.39140  1.0000 -0.0780298092
C   C104      1.0  0.64770  0.07810  0.60860  1.0000 -0.0780298092
C   C105      1.0  0.08400  0.40330  0.57180  1.0000 -0.0714718716
C   C106      1.0  0.41600  0.90330  0.42820  1.0000 -0.0714718716
C   C107      1.0  0.91600  0.59670  0.42820  1.0000 -0.0714718716
C   C108      1.0  0.58400  0.09670  0.57180  1.0000 -0.0714718716
C   C109      1.0  0.09210  0.41840  0.52350  1.0000 -0.1594181561
C   C110      1.0  0.40790  0.91840  0.47650  1.0000 -0.1594181561
C   C111      1.0  0.90790  0.58160  0.47650  1.0000 -0.1594181561
C   C112      1.0  0.59210  0.08160  0.52350  1.0000 -0.1594181561
C   C113      1.0  0.16470  0.44950  0.51160  1.0000 0.1708257126
C   C114      1.0  0.33530  0.94950  0.48840  1.0000 0.1708257126
C   C115      1.0  0.83530  0.55050  0.48840  1.0000 0.1708257126
C   C116      1.0  0.66470  0.05050  0.51160  1.0000 0.1708257126
C   C117      1.0  0.22090  0.44120  0.59310  1.0000 0.0616083949
C   C118      1.0  0.27910  0.94120  0.40690  1.0000 0.0616083949
C   C119      1.0  0.77910  0.55880  0.40690  1.0000 0.0616083949
C   C120      1.0  0.72090  0.05880  0.59310  1.0000 0.0616083949
C   C121      1.0  0.17270  0.48590  0.46110  1.0000 0.1593177861
C   C122      1.0  0.32730  0.98590  0.53890  1.0000 0.1593177861
C   C123      1.0  0.82730  0.51410  0.53890  1.0000 0.1593177861
C   C124      1.0  0.67270  0.01410  0.46110  1.0000 0.1593177861
C   C125      1.0  0.24390  0.52640  0.45050  1.0000 -0.1508019483
C   C126      1.0  0.25610  0.02640  0.54950  1.0000 -0.1508019483
C   C127      1.0  0.75610  0.47360  0.54950  1.0000 -0.1508019483
C   C128      1.0  0.74390  0.97360  0.45050  1.0000 -0.1508019483
C   C129      1.0  0.24510  0.58500  0.40660  1.0000 -0.0714718716
C   C130      1.0  0.25490  0.08500  0.59340  1.0000 -0.0714718716
C   C131      1.0  0.75490  0.41500  0.59340  1.0000 -0.0714718716
C   C132      1.0  0.74510  0.91500  0.40660  1.0000 -0.0714718716
C   C133      1.0  0.17520  0.59240  0.37210  1.0000 -0.0642898261
C   C134      1.0  0.32480  0.09240  0.62790  1.0000 -0.0642898261
C   C135      1.0  0.82480  0.40760  0.62790  1.0000 -0.0642898261
C   C136      1.0  0.67520  0.90760  0.37210  1.0000 -0.0642898261
C   C137      1.0  0.10760  0.53550  0.38390  1.0000 0.0616083949
C   C138      1.0  0.39240  0.03550  0.61610  1.0000 0.0616083949
C   C139      1.0  0.89240  0.46450  0.61610  1.0000 0.0616083949
C   C140      1.0  0.60760  0.96450  0.38390  1.0000 0.0616083949
C   C141      1.0  0.17350  0.66440  0.32590  1.0000 0.5949895552
C   C142      1.0  0.32650  0.16440  0.67410  1.0000 0.5949895552
C   C143      1.0  0.82650  0.33560  0.67410  1.0000 0.5949895552
C   C144      1.0  0.67350  0.83560  0.32590  1.0000 0.5990580014
C   C145      1.0  0.02100  0.63910  0.75080  1.0000 0.2768980633
C   C146      1.0  0.47900  0.13910  0.24920  1.0000 0.2768980633
C   C147      1.0  0.97900  0.36090  0.24920  1.0000 0.2768980633
C   C148      1.0  0.52100  0.86090  0.75080  1.0000 0.2739535204
C   C149      1.0  0.03280  0.85500  0.76220  1.0000 -0.3475755469
C   C150      1.0  0.46720  0.35500  0.23780  1.0000 -0.3475755469
C   C151      1.0  0.96720  0.14500  0.23780  1.0000 -0.3475755469
C   C152      1.0  0.53280  0.64500  0.76220  1.0000 -0.3475755469
C   C153      1.0  0.97480  0.76100  0.68170  1.0000 -0.3143714422
C   C154      1.0  0.52520  0.26100  0.31830  1.0000 -0.3143714422
C   C155      1.0  0.02520  0.23900  0.31830  1.0000 -0.3143714422
C   C156      1.0  0.47480  0.73900  0.68170  1.0000 -0.3143714422
C   C157      1.0  0.30240  0.66560  0.73790  1.0000 0.2739535204
C   C158      1.0  0.19760  0.16560  0.26210  1.0000 0.2739535204
C   C159      1.0  0.69760  0.33440  0.26210  1.0000 0.2739535204
C   C160      1.0  0.80240  0.83440  0.73790  1.0000 0.2739535204
C   C161      1.0  0.33630  0.80500  0.80540  1.0000 -0.3293230364
C   C162      1.0  0.16370  0.30500  0.19460  1.0000 -0.3293230364
C   C163      1.0  0.66370  0.19500  0.19460  1.0000 -0.3293230364
C   C164      1.0  0.83630  0.69500  0.80540  1.0000 -0.3293230364
C   C165      1.0  0.28540  0.88900  0.72360  1.0000 -0.3475755469
C   C166      1.0  0.21460  0.38900  0.27640  1.0000 -0.3475755469
C   C167      1.0  0.71460  0.11100  0.27640  1.0000 -0.3475755469
C   C168      1.0  0.78540  0.61100  0.72360  1.0000 -0.3475755469
N   N1        1.0  0.40020  0.97350  0.94660  1.0000 -0.2730222547
N   N2        1.0  0.09980  0.47350  0.05340  1.0000 -0.2730222547
N   N3        1.0  0.59980  0.02650  0.05340  1.0000 -0.2730222547
N   N4        1.0  0.90020  0.52650  0.94660  1.0000 -0.2730222547
N   N5        1.0  0.26610  0.02700  0.03320  1.0000 -0.2772017026
N   N6        1.0  0.23390  0.52700  0.96680  1.0000 -0.2772017026
N   N7        1.0  0.73390  0.97300  0.96680  1.0000 -0.2772017026
N   N8        1.0  0.76610  0.47300  0.03320  1.0000 -0.2772017026
N   N9        1.0  0.43450  0.55200  0.54380  1.0000 -0.2886813336
N   N10       1.0  0.06550  0.05200  0.45620  1.0000 -0.2886813336
N   N11       1.0  0.56550  0.44800  0.45620  1.0000 -0.2886813336
N   N12       1.0  0.93450  0.94800  0.54380  1.0000 -0.2886813336
N   N13       1.0  0.93910  0.99300  0.93990  1.0000 -0.2772017026
N   N14       1.0  0.56090  0.49300  0.06010  1.0000 -0.2772017026
N   N15       1.0  0.06090  0.00700  0.06010  1.0000 -0.2772017026
N   N16       1.0  0.43910  0.50700  0.93990  1.0000 -0.2772017026
N   N17       1.0  0.22940  0.45580  0.54590  1.0000 -0.2730222547
N   N18       1.0  0.27060  0.95580  0.45410  1.0000 -0.2730222547
N   N19       1.0  0.77060  0.54420  0.45410  1.0000 -0.2730222547
N   N20       1.0  0.72940  0.04420  0.54590  1.0000 -0.2730222547
N   N21       1.0  0.10600  0.48380  0.42740  1.0000 -0.2886813336
N   N22       1.0  0.39400  0.98380  0.57260  1.0000 -0.2886813336
N   N23       1.0  0.89400  0.51620  0.57260  1.0000 -0.2886813336
N   N24       1.0  0.60600  0.01620  0.42740  1.0000 -0.2886813336
N   N25       1.0  0.01000  0.74840  0.73170  1.0000 0.0194307669
N   N26       1.0  0.49000  0.24840  0.26830  1.0000 0.0194307669
N   N27       1.0  0.99000  0.25160  0.26830  1.0000 0.0194307669
N   N28       1.0  0.51000  0.75160  0.73170  1.0000 0.0194307669
N   N29       1.0  0.30560  0.77810  0.75270  1.0000 0.0148815124
N   N30       1.0  0.19440  0.27810  0.24730  1.0000 0.0148815124
N   N31       1.0  0.69440  0.22190  0.24730  1.0000 0.0148815124
N   N32       1.0  0.80560  0.72190  0.75270  1.0000 0.0194307669
O   O1        1.0  0.31860  0.17930  0.79540  1.0000 -0.6515696847
O   O2        1.0  0.18140  0.67930  0.20460  1.0000 -0.6515696847
O   O3        1.0  0.68140  0.82070  0.20460  1.0000 -0.6515696847
O   O4        1.0  0.81860  0.32070  0.79540  1.0000 -0.6515696847
O   O5        1.0  0.44400  0.10410  0.81200  1.0000 -0.6515696847
O   O6        1.0  0.05600  0.60410  0.18800  1.0000 -0.6515696847
O   O7        1.0  0.55600  0.89590  0.18800  1.0000 -0.6515696847
O   O8        1.0  0.94400  0.39590  0.81200  1.0000 -0.6515696847
O   O9        1.0  0.24540  0.92010  0.17670  1.0000 -0.591458989
O   O10       1.0  0.25460  0.42010  0.82330  1.0000 -0.591458989
O   O11       1.0  0.75460  0.07990  0.82330  1.0000 -0.591458989
O   O12       1.0  0.74540  0.57990  0.17670  1.0000 -0.591458989
O   O13       1.0  0.37590  0.93720  0.19680  1.0000 -0.6587345579
O   O14       1.0  0.12410  0.43720  0.80320  1.0000 -0.6587345579
O   O15       1.0  0.62410  0.06280  0.80320  1.0000 -0.6587345579
O   O16       1.0  0.87590  0.56280  0.19680  1.0000 -0.6587345579
O   O17       1.0  0.38620  0.43890  0.68210  1.0000 -0.6189171502
O   O18       1.0  0.11380  0.93890  0.31790  1.0000 -0.6189171502
O   O19       1.0  0.61380  0.56110  0.31790  1.0000 -0.6189171502
O   O20       1.0  0.88620  0.06110  0.68210  1.0000 -0.6189171502
O   O21       1.0  0.50830  0.35760  0.69910  1.0000 -0.6777948567
O   O22       1.0  0.99170  0.85760  0.30090  1.0000 -0.6777948567
O   O23       1.0  0.49170  0.64240  0.30090  1.0000 -0.6777948567
O   O24       1.0  0.00830  0.14240  0.69910  1.0000 -0.6777948567
O   O25       1.0  0.06550  0.18830  0.81940  1.0000 -0.625758318
O   O26       1.0  0.43450  0.68830  0.18060  1.0000 -0.625758318
O   O27       1.0  0.93450  0.81170  0.18060  1.0000 -0.625758318
O   O28       1.0  0.56550  0.31170  0.81940  1.0000 -0.625758318
O   O29       1.0  0.94100  0.13280  0.79880  1.0000 -0.6587345579
O   O30       1.0  0.55900  0.63280  0.20120  1.0000 -0.6587345579
O   O31       1.0  0.05900  0.86720  0.20120  1.0000 -0.6587345579
O   O32       1.0  0.44100  0.36720  0.79880  1.0000 -0.6587345579
O   O33       1.0  0.19870  0.45070  0.69290  1.0000 -0.6587345579
O   O34       1.0  0.30130  0.95070  0.30710  1.0000 -0.6587345579
O   O35       1.0  0.80130  0.54930  0.30710  1.0000 -0.6587345579
O   O36       1.0  0.69870  0.04930  0.69290  1.0000 -0.6587345579
O   O37       1.0  0.07840  0.37400  0.67290  1.0000 -0.6004903444
O   O38       1.0  0.42160  0.87400  0.32710  1.0000 -0.6004903444
O   O39       1.0  0.92160  0.62600  0.32710  1.0000 -0.6004903444
O   O40       1.0  0.57840  0.12600  0.67290  1.0000 -0.6004903444
O   O41       1.0  0.10870  0.67470  0.29820  1.0000 -0.6587345579
O   O42       1.0  0.39130  0.17470  0.70180  1.0000 -0.6587345579
O   O43       1.0  0.89130  0.32530  0.70180  1.0000 -0.6587345579
O   O44       1.0  0.60870  0.82530  0.29820  1.0000 -0.6587345579
O   O45       1.0  0.23690  0.71390  0.31840  1.0000 -0.6004903444
O   O46       1.0  0.26310  0.21390  0.68160  1.0000 -0.6004903444
O   O47       1.0  0.76310  0.28610  0.68160  1.0000 -0.6004903444
O   O48       1.0  0.73690  0.78610  0.31840  1.0000 -0.6004903444
O   O49       1.0  0.32420  0.58040  0.76110  1.0000 -0.4656274148
O   O50       1.0  0.17580  0.08040  0.23890  1.0000 -0.4656274148
O   O51       1.0  0.67580  0.41960  0.23890  1.0000 -0.4656274148
O   O52       1.0  0.82420  0.91960  0.76110  1.0000 -0.4656274148
O   O53       1.0  0.99990  0.54510  0.72980  1.0000 -0.5002690682
O   O54       1.0  0.50010  0.04510  0.27020  1.0000 -0.5002690682
O   O55       1.0  0.00010  0.45490  0.27020  1.0000 -0.5002690682
O   O56       1.0  0.49990  0.95490  0.72980  1.0000 -0.5002690682
O   O57       1.0  0.16730  0.22490  0.74910  1.0000 -0.839309735
O   O58       1.0  0.33270  0.72490  0.25090  1.0000 -0.839309735
O   O59       1.0  0.83270  0.77510  0.25090  1.0000 -0.839309735
O   O60       1.0  0.66730  0.27510  0.74910  1.0000 -0.839309735
