# DDEC6 charges by PACMAN v1.1 (https://github.com/mtap-research/PACMAN-charge/)
data_2014[Zn][pcu]3[FSR]16
_chemical_formula_sum              "Zn8 H96 C160 N8 O40"
_cell_length_a       14.178
_cell_length_b       14.178
_cell_length_c       25.7508
_cell_angle_alpha    83.3906
_cell_angle_beta     96.6094
_cell_angle_gamma    92.6626

_symmetry_space_group_name_H-M    "P 1"
_symmetry_Int_Tables_number       1

loop_
  _symmetry_equiv_pos_as_xyz
  'x, y, z'

loop_
  _atom_site_type_symbol
  _atom_site_label
  _atom_site_symmetry_multiplicity
  _atom_site_fract_x
  _atom_site_fract_y
  _atom_site_fract_z
  _atom_site_occupancy
  _atom_site_charge
Zn  Zn1       1.0  0.87564  0.81820  0.92056  1.0000 0.9007790212
Zn  Zn2       1.0  0.18180  0.12436  0.42056  1.0000 0.9007790212
Zn  Zn3       1.0  0.84657  0.59187  0.94159  1.0000 0.8089482461
Zn  Zn4       1.0  0.40813  0.15343  0.44159  1.0000 0.8089482461
Zn  Zn5       1.0  0.81820  0.87564  0.57944  1.0000 0.9007790212
Zn  Zn6       1.0  0.12436  0.18180  0.07944  1.0000 0.9007790212
Zn  Zn7       1.0  0.59187  0.84657  0.55841  1.0000 0.8089482461
Zn  Zn8       1.0  0.15343  0.40813  0.05841  1.0000 0.8089482461
H   H1        1.0  0.60491  0.57625  0.86050  1.0000 0.1191648362
H   H2        1.0  0.42375  0.39509  0.36050  1.0000 0.1191648362
H   H3        1.0  0.44607  0.56997  0.82272  1.0000 0.1191648362
H   H4        1.0  0.43003  0.55393  0.32272  1.0000 0.1191648362
H   H5        1.0  0.39429  0.82023  0.87878  1.0000 0.1084268386
H   H6        1.0  0.17977  0.60571  0.37878  1.0000 0.1084268386
H   H7        1.0  0.55007  0.82353  0.92042  1.0000 0.1191648362
H   H8        1.0  0.17647  0.44993  0.42042  1.0000 0.1191648362
H   H9        1.0  0.24324  0.69872  0.90264  1.0000 0.1084268386
H   H10       1.0  0.30128  0.75676  0.40264  1.0000 0.1084268386
H   H11       1.0  0.08821  0.69007  0.92431  1.0000 0.1007827644
H   H12       1.0  0.30993  0.91179  0.42431  1.0000 0.1007827644
H   H13       1.0  0.00618  0.69442  0.76909  1.0000 0.1191648362
H   H14       1.0  0.30558  0.99382  0.26909  1.0000 0.1191648362
H   H15       1.0  0.15992  0.70944  0.74629  1.0000 0.1084268386
H   H16       1.0  0.29056  0.84008  0.24629  1.0000 0.1084268386
H   H17       1.0  0.99873  0.82563  0.07278  1.0000 0.1084268386
H   H18       1.0  0.17437  0.00127  0.57278  1.0000 0.1084268386
H   H19       1.0  0.03337  0.84433  0.15988  1.0000 0.1084268386
H   H20       1.0  0.15567  0.96663  0.65988  1.0000 0.1084268386
H   H21       1.0  0.84835  0.63035  0.18860  1.0000 0.129277734
H   H22       1.0  0.36965  0.15165  0.68860  1.0000 0.129277734
H   H23       1.0  0.80947  0.61487  0.10126  1.0000 0.129277734
H   H24       1.0  0.38513  0.19053  0.60126  1.0000 0.129277734
H   H25       1.0  0.97755  0.72641  0.34617  1.0000 0.129277734
H   H26       1.0  0.27359  0.02245  0.84617  1.0000 0.129277734
H   H27       1.0  0.03855  0.84063  0.39922  1.0000 0.1084268386
H   H28       1.0  0.15937  0.96145  0.89922  1.0000 0.1084268386
H   H29       1.0  0.12156  0.01978  0.27698  1.0000 0.1191648362
H   H30       1.0  0.98022  0.87844  0.77698  1.0000 0.1191648362
H   H31       1.0  0.06293  0.90385  0.22377  1.0000 0.1007827644
H   H32       1.0  0.09615  0.93707  0.72377  1.0000 0.1007827644
H   H33       1.0  0.82680  0.45778  0.85825  1.0000 0.129277734
H   H34       1.0  0.54222  0.17320  0.35825  1.0000 0.129277734
H   H35       1.0  0.80111  0.29815  0.85323  1.0000 0.1385432928
H   H36       1.0  0.70185  0.19889  0.35323  1.0000 0.1385432928
H   H37       1.0  0.83933  0.25185  0.01291  1.0000 0.129277734
H   H38       1.0  0.74815  0.16067  0.51291  1.0000 0.129277734
H   H39       1.0  0.85984  0.41376  0.01309  1.0000 0.1084268386
H   H40       1.0  0.58624  0.14016  0.51309  1.0000 0.1084268386
H   H41       1.0  0.75429  0.14399  0.85675  1.0000 0.1385432928
H   H42       1.0  0.85601  0.24571  0.35675  1.0000 0.1385432928
H   H43       1.0  0.77019  0.98559  0.85659  1.0000 0.129277734
H   H44       1.0  0.01441  0.22981  0.35659  1.0000 0.129277734
H   H45       1.0  0.88542  0.11064  0.00362  1.0000 0.1385432928
H   H46       1.0  0.88936  0.11458  0.50362  1.0000 0.1385432928
H   H47       1.0  0.90384  0.95408  0.99752  1.0000 0.1084268386
H   H48       1.0  0.04592  0.09616  0.49752  1.0000 0.1084268386
H   H49       1.0  0.57625  0.60491  0.63950  1.0000 0.1191648362
H   H50       1.0  0.39509  0.42375  0.13950  1.0000 0.1191648362
H   H51       1.0  0.56997  0.44607  0.67728  1.0000 0.1191648362
H   H52       1.0  0.55393  0.43003  0.17728  1.0000 0.1191648362
H   H53       1.0  0.82023  0.39429  0.62122  1.0000 0.1084268386
H   H54       1.0  0.60571  0.17977  0.12122  1.0000 0.1084268386
H   H55       1.0  0.82353  0.55007  0.57958  1.0000 0.1191648362
H   H56       1.0  0.44993  0.17647  0.07958  1.0000 0.1191648362
H   H57       1.0  0.69872  0.24324  0.59736  1.0000 0.1084268386
H   H58       1.0  0.75676  0.30128  0.09736  1.0000 0.1084268386
H   H59       1.0  0.69007  0.08821  0.57569  1.0000 0.1007827644
H   H60       1.0  0.91179  0.30993  0.07569  1.0000 0.1007827644
H   H61       1.0  0.69442  0.00618  0.73091  1.0000 0.1191648362
H   H62       1.0  0.99382  0.30558  0.23091  1.0000 0.1191648362
H   H63       1.0  0.70944  0.15992  0.75371  1.0000 0.1084268386
H   H64       1.0  0.84008  0.29056  0.25371  1.0000 0.1084268386
H   H65       1.0  0.82563  0.99873  0.42722  1.0000 0.1084268386
H   H66       1.0  0.00127  0.17437  0.92722  1.0000 0.1084268386
H   H67       1.0  0.84433  0.03337  0.34012  1.0000 0.1084268386
H   H68       1.0  0.96663  0.15567  0.84012  1.0000 0.1084268386
H   H69       1.0  0.63035  0.84835  0.31140  1.0000 0.129277734
H   H70       1.0  0.15165  0.36965  0.81140  1.0000 0.129277734
H   H71       1.0  0.61487  0.80947  0.39874  1.0000 0.129277734
H   H72       1.0  0.19053  0.38513  0.89874  1.0000 0.129277734
H   H73       1.0  0.72641  0.97755  0.15383  1.0000 0.129277734
H   H74       1.0  0.02245  0.27359  0.65383  1.0000 0.129277734
H   H75       1.0  0.84063  0.03855  0.10078  1.0000 0.1084268386
H   H76       1.0  0.96145  0.15937  0.60078  1.0000 0.1084268386
H   H77       1.0  0.01978  0.12156  0.22302  1.0000 0.1191648362
H   H78       1.0  0.87844  0.98022  0.72302  1.0000 0.1191648362
H   H79       1.0  0.90385  0.06293  0.27623  1.0000 0.1007827644
H   H80       1.0  0.93707  0.09615  0.77623  1.0000 0.1007827644
H   H81       1.0  0.45778  0.82680  0.64175  1.0000 0.129277734
H   H82       1.0  0.17320  0.54222  0.14175  1.0000 0.129277734
H   H83       1.0  0.29815  0.80111  0.64677  1.0000 0.1385432928
H   H84       1.0  0.19889  0.70185  0.14677  1.0000 0.1385432928
H   H85       1.0  0.25185  0.83933  0.48709  1.0000 0.129277734
H   H86       1.0  0.16067  0.74815  0.98709  1.0000 0.129277734
H   H87       1.0  0.41376  0.85984  0.48691  1.0000 0.1084268386
H   H88       1.0  0.14016  0.58624  0.98691  1.0000 0.1084268386
H   H89       1.0  0.14399  0.75429  0.64325  1.0000 0.1385432928
H   H90       1.0  0.24571  0.85601  0.14325  1.0000 0.1385432928
H   H91       1.0  0.98559  0.77019  0.64341  1.0000 0.129277734
H   H92       1.0  0.22981  0.01441  0.14341  1.0000 0.129277734
H   H93       1.0  0.11064  0.88542  0.49638  1.0000 0.1385432928
H   H94       1.0  0.11458  0.88936  0.99638  1.0000 0.1385432928
H   H95       1.0  0.95408  0.90384  0.50248  1.0000 0.1084268386
H   H96       1.0  0.09616  0.04592  0.00248  1.0000 0.1084268386
C   C1        1.0  0.69891  0.70295  0.91138  1.0000 0.5731827591
C   C2        1.0  0.29705  0.30109  0.41138  1.0000 0.5731827591
C   C3        1.0  0.59380  0.70194  0.89374  1.0000 -0.021537003
C   C4        1.0  0.29806  0.40620  0.39374  1.0000 -0.021537003
C   C5        1.0  0.56252  0.62516  0.86440  1.0000 -0.1200955626
C   C6        1.0  0.37484  0.43748  0.36440  1.0000 -0.1200955626
C   C7        1.0  0.46805  0.62231  0.84110  1.0000 -0.1200955626
C   C8        1.0  0.37769  0.53195  0.34110  1.0000 -0.1200955626
C   C9        1.0  0.40568  0.69638  0.84496  1.0000 0.0026456369
C   C10       1.0  0.30362  0.59432  0.34496  1.0000 0.0026456369
C   C11       1.0  0.43648  0.77124  0.87508  1.0000 -0.1441168736
C   C12       1.0  0.22876  0.56352  0.37508  1.0000 -0.1441168736
C   C13       1.0  0.53008  0.77352  0.89976  1.0000 -0.1200955626
C   C14       1.0  0.22648  0.46992  0.39976  1.0000 -0.1200955626
C   C15       1.0  0.31333  0.68983  0.81071  1.0000 0.3437315299
C   C16       1.0  0.31017  0.68667  0.31071  1.0000 0.3511726334
C   C17       1.0  0.21789  0.70505  0.82227  1.0000 -0.0303295266
C   C18       1.0  0.29495  0.78211  0.32227  1.0000 -0.0303295266
C   C19       1.0  0.19566  0.69870  0.87565  1.0000 -0.1200955626
C   C20       1.0  0.30130  0.80434  0.37565  1.0000 -0.1200955626
C   C21       1.0  0.10275  0.69241  0.88871  1.0000 -0.1200955626
C   C22       1.0  0.30759  0.89725  0.38871  1.0000 -0.1200955626
C   C23       1.0  0.03119  0.68963  0.84882  1.0000 -0.0303295266
C   C24       1.0  0.31037  0.96881  0.34882  1.0000 -0.0303295266
C   C25       1.0  0.05372  0.69590  0.79586  1.0000 -0.0957816026
C   C26       1.0  0.30410  0.94628  0.29586  1.0000 -0.0957816026
C   C27       1.0  0.14606  0.70434  0.78205  1.0000 -0.1200955626
C   C28       1.0  0.29566  0.85394  0.28205  1.0000 -0.1200955626
C   C29       1.0  0.93196  0.67542  0.86170  1.0000 0.5636109237
C   C30       1.0  0.32458  0.06804  0.36170  1.0000 0.5636109237
C   C31       1.0  0.88756  0.70352  0.02132  1.0000 0.5830476557
C   C32       1.0  0.29648  0.11244  0.52132  1.0000 0.5830476557
C   C33       1.0  0.90089  0.71789  0.07768  1.0000 -0.0391316681
C   C34       1.0  0.28211  0.09911  0.57768  1.0000 -0.0391316681
C   C35       1.0  0.96807  0.78671  0.09595  1.0000 -0.1200955626
C   C36       1.0  0.21329  0.03193  0.59595  1.0000 -0.1200955626
C   C37       1.0  0.98917  0.79741  0.14814  1.0000 -0.1304524554
C   C38       1.0  0.20259  0.01083  0.64814  1.0000 -0.1304524554
C   C39       1.0  0.94532  0.73896  0.18352  1.0000 0.0127094344
C   C40       1.0  0.26104  0.05468  0.68352  1.0000 0.0127094344
C   C41       1.0  0.87802  0.67006  0.16530  1.0000 -0.1200955626
C   C42       1.0  0.32994  0.12198  0.66530  1.0000 -0.1200955626
C   C43       1.0  0.85540  0.66022  0.11305  1.0000 -0.0939107712
C   C44       1.0  0.33978  0.14460  0.61305  1.0000 -0.0939107712
C   C45       1.0  0.96539  0.73341  0.24339  1.0000 0.3511726334
C   C46       1.0  0.26659  0.03461  0.74339  1.0000 0.3511726334
C   C47       1.0  0.01423  0.80321  0.27929  1.0000 0.0151546423
C   C48       1.0  0.19679  0.98577  0.77929  1.0000 0.0151546423
C   C49       1.0  0.00716  0.78482  0.33232  1.0000 -0.1304524554
C   C50       1.0  0.21518  0.99284  0.83232  1.0000 -0.1304524554
C   C51       1.0  0.04387  0.85303  0.36405  1.0000 -0.1200955626
C   C52       1.0  0.14697  0.95613  0.86405  1.0000 -0.1200955626
C   C53       1.0  0.08902  0.94024  0.34376  1.0000 -0.021537003
C   C54       1.0  0.05976  0.91098  0.84376  1.0000 -0.021537003
C   C55       1.0  0.09401  0.96029  0.29090  1.0000 -0.1104562213
C   C56       1.0  0.03971  0.90599  0.79090  1.0000 -0.1104562213
C   C57       1.0  0.05787  0.89121  0.25894  1.0000 -0.1304524554
C   C58       1.0  0.10879  0.94213  0.75894  1.0000 -0.1304524554
C   C59       1.0  0.11965  0.01665  0.37716  1.0000 0.444372562
C   C60       1.0  0.98335  0.88035  0.87716  1.0000 0.444372562
C   C61       1.0  0.82997  0.41569  0.88963  1.0000 0.1007827644
C   C62       1.0  0.58431  0.17003  0.38963  1.0000 0.1007827644
C   C63       1.0  0.81512  0.31976  0.88628  1.0000 -0.1884049165
C   C64       1.0  0.68024  0.18488  0.38628  1.0000 -0.1884049165
C   C65       1.0  0.82125  0.25521  0.93285  1.0000 0.1191648362
C   C66       1.0  0.74479  0.17875  0.43285  1.0000 0.1191648362
C   C67       1.0  0.83727  0.29217  0.98096  1.0000 -0.1884049165
C   C68       1.0  0.70783  0.16273  0.48096  1.0000 -0.1884049165
C   C69       1.0  0.85006  0.38978  0.98072  1.0000 0.0824200262
C   C70       1.0  0.61022  0.14994  0.48072  1.0000 0.0824200262
C   C71       1.0  0.81689  0.14573  0.93100  1.0000 0.1084268386
C   C72       1.0  0.85427  0.18311  0.43100  1.0000 0.1084268386
C   C73       1.0  0.78347  0.10627  0.88644  1.0000 -0.1884049165
C   C74       1.0  0.89373  0.21653  0.38644  1.0000 -0.1884049165
C   C75       1.0  0.79368  0.01108  0.88654  1.0000 0.0657611315
C   C76       1.0  0.98892  0.20632  0.38654  1.0000 0.0657611315
C   C77       1.0  0.86161  0.08721  0.97302  1.0000 -0.2158144738
C   C78       1.0  0.91279  0.13839  0.47302  1.0000 -0.2158144738
C   C79       1.0  0.87094  0.99214  0.96920  1.0000 0.1084268386
C   C80       1.0  0.00786  0.12906  0.46920  1.0000 0.1084268386
C   C81       1.0  0.70295  0.69891  0.58862  1.0000 0.5731827591
C   C82       1.0  0.30109  0.29705  0.08862  1.0000 0.5731827591
C   C83       1.0  0.70194  0.59380  0.60626  1.0000 -0.021537003
C   C84       1.0  0.40620  0.29806  0.10626  1.0000 -0.021537003
C   C85       1.0  0.62516  0.56252  0.63560  1.0000 -0.1200955626
C   C86       1.0  0.43748  0.37484  0.13560  1.0000 -0.1200955626
C   C87       1.0  0.62231  0.46805  0.65890  1.0000 -0.1200955626
C   C88       1.0  0.53195  0.37769  0.15890  1.0000 -0.1200955626
C   C89       1.0  0.69638  0.40568  0.65504  1.0000 0.0026456369
C   C90       1.0  0.59432  0.30362  0.15504  1.0000 0.0026456369
C   C91       1.0  0.77124  0.43648  0.62492  1.0000 -0.1441168736
C   C92       1.0  0.56352  0.22876  0.12492  1.0000 -0.1441168736
C   C93       1.0  0.77352  0.53008  0.60024  1.0000 -0.1200955626
C   C94       1.0  0.46992  0.22648  0.10024  1.0000 -0.1200955626
C   C95       1.0  0.68983  0.31333  0.68929  1.0000 0.3437315299
C   C96       1.0  0.68667  0.31017  0.18929  1.0000 0.3437315299
C   C97       1.0  0.70505  0.21789  0.67773  1.0000 -0.0303295266
C   C98       1.0  0.78211  0.29495  0.17773  1.0000 -0.0303295266
C   C99       1.0  0.69870  0.19566  0.62435  1.0000 -0.1200955626
C   C100      1.0  0.80434  0.30130  0.12435  1.0000 -0.1200955626
C   C101      1.0  0.69241  0.10275  0.61129  1.0000 -0.1200955626
C   C102      1.0  0.89725  0.30759  0.11129  1.0000 -0.1200955626
C   C103      1.0  0.68963  0.03119  0.65118  1.0000 -0.0303295266
C   C104      1.0  0.96881  0.31037  0.15118  1.0000 -0.0303295266
C   C105      1.0  0.69590  0.05372  0.70414  1.0000 -0.0957816026
C   C106      1.0  0.94628  0.30410  0.20414  1.0000 -0.0957816026
C   C107      1.0  0.70434  0.14606  0.71795  1.0000 -0.1200955626
C   C108      1.0  0.85394  0.29566  0.21795  1.0000 -0.1200955626
C   C109      1.0  0.67542  0.93196  0.63830  1.0000 0.5636109237
C   C110      1.0  0.06804  0.32458  0.13830  1.0000 0.5636109237
C   C111      1.0  0.70352  0.88756  0.47868  1.0000 0.5830476557
C   C112      1.0  0.11244  0.29648  0.97868  1.0000 0.5830476557
C   C113      1.0  0.71789  0.90089  0.42232  1.0000 -0.0391316681
C   C114      1.0  0.09911  0.28211  0.92232  1.0000 -0.0391316681
C   C115      1.0  0.78671  0.96807  0.40405  1.0000 -0.1200955626
C   C116      1.0  0.03193  0.21329  0.90405  1.0000 -0.1200955626
C   C117      1.0  0.79741  0.98917  0.35186  1.0000 -0.1304524554
C   C118      1.0  0.01083  0.20259  0.85186  1.0000 -0.1304524554
C   C119      1.0  0.73896  0.94532  0.31648  1.0000 0.0127094344
C   C120      1.0  0.05468  0.26104  0.81648  1.0000 0.0127094344
C   C121      1.0  0.67006  0.87802  0.33470  1.0000 -0.1200955626
C   C122      1.0  0.12198  0.32994  0.83470  1.0000 -0.1104562213
C   C123      1.0  0.66022  0.85540  0.38695  1.0000 -0.0939107712
C   C124      1.0  0.14460  0.33978  0.88695  1.0000 -0.0939107712
C   C125      1.0  0.73341  0.96539  0.25661  1.0000 0.355406997
C   C126      1.0  0.03461  0.26659  0.75661  1.0000 0.355406997
C   C127      1.0  0.80321  0.01423  0.22071  1.0000 0.0151546423
C   C128      1.0  0.98577  0.19679  0.72071  1.0000 0.0151546423
C   C129      1.0  0.78482  0.00716  0.16768  1.0000 -0.1304524554
C   C130      1.0  0.99284  0.21518  0.66768  1.0000 -0.1304524554
C   C131      1.0  0.85303  0.04387  0.13595  1.0000 -0.1104562213
C   C132      1.0  0.95613  0.14697  0.63595  1.0000 -0.1104562213
C   C133      1.0  0.94024  0.08902  0.15624  1.0000 -0.021537003
C   C134      1.0  0.91098  0.05976  0.65624  1.0000 -0.021537003
C   C135      1.0  0.96029  0.09401  0.20910  1.0000 -0.1104562213
C   C136      1.0  0.90599  0.03971  0.70910  1.0000 -0.1104562213
C   C137      1.0  0.89121  0.05787  0.24106  1.0000 -0.1304524554
C   C138      1.0  0.94213  0.10879  0.74106  1.0000 -0.1304524554
C   C139      1.0  0.01665  0.11965  0.12284  1.0000 0.444372562
C   C140      1.0  0.88035  0.98335  0.62284  1.0000 0.444372562
C   C141      1.0  0.41569  0.82997  0.61037  1.0000 0.1007827644
C   C142      1.0  0.17003  0.58431  0.11037  1.0000 0.1007827644
C   C143      1.0  0.31976  0.81512  0.61372  1.0000 -0.1884049165
C   C144      1.0  0.18488  0.68024  0.11372  1.0000 -0.1884049165
C   C145      1.0  0.25521  0.82125  0.56715  1.0000 0.1191648362
C   C146      1.0  0.17875  0.74479  0.06715  1.0000 0.1191648362
C   C147      1.0  0.29217  0.83727  0.51904  1.0000 -0.1884049165
C   C148      1.0  0.16273  0.70783  0.01904  1.0000 -0.1884049165
C   C149      1.0  0.38978  0.85006  0.51928  1.0000 0.0824200262
C   C150      1.0  0.14994  0.61022  0.01928  1.0000 0.0824200262
C   C151      1.0  0.14573  0.81689  0.56900  1.0000 0.1084268386
C   C152      1.0  0.18311  0.85427  0.06900  1.0000 0.1084268386
C   C153      1.0  0.10627  0.78347  0.61356  1.0000 -0.1884049165
C   C154      1.0  0.21653  0.89373  0.11356  1.0000 -0.1884049165
C   C155      1.0  0.01108  0.79368  0.61346  1.0000 0.0657611315
C   C156      1.0  0.20632  0.98892  0.11346  1.0000 0.0657611315
C   C157      1.0  0.08721  0.86161  0.52698  1.0000 -0.2158144738
C   C158      1.0  0.13839  0.91279  0.02698  1.0000 -0.2158144738
C   C159      1.0  0.99214  0.87094  0.53080  1.0000 0.1084268386
C   C160      1.0  0.12906  0.00786  0.03080  1.0000 0.1084268386
N   N1        1.0  0.84898  0.45106  0.93588  1.0000 -0.2425377171
N   N2        1.0  0.54894  0.15102  0.43588  1.0000 -0.2425377171
N   N3        1.0  0.83601  0.95315  0.92796  1.0000 -0.1811912793
N   N4        1.0  0.04685  0.16399  0.42796  1.0000 -0.1811912793
N   N5        1.0  0.45106  0.84898  0.56412  1.0000 -0.2425377171
N   N6        1.0  0.15102  0.54894  0.06412  1.0000 -0.2425377171
N   N7        1.0  0.95315  0.83601  0.57204  1.0000 -0.1811912793
N   N8        1.0  0.16399  0.04685  0.07204  1.0000 -0.1811912793
O   O1        1.0  0.74980  0.78074  0.90522  1.0000 -0.5179848041
O   O2        1.0  0.21926  0.25020  0.40522  1.0000 -0.5179848041
O   O3        1.0  0.73027  0.62009  0.92775  1.0000 -0.4936239149
O   O4        1.0  0.37991  0.26973  0.42775  1.0000 -0.4936239149
O   O5        1.0  0.31618  0.65962  0.76849  1.0000 -0.3940663512
O   O6        1.0  0.34038  0.68382  0.26849  1.0000 -0.3940663512
O   O7        1.0  0.91126  0.68964  0.90642  1.0000 -0.5179848041
O   O8        1.0  0.31036  0.08874  0.40642  1.0000 -0.5179848041
O   O9        1.0  0.87019  0.64825  0.82697  1.0000 -0.5023429241
O   O10       1.0  0.35175  0.12981  0.32697  1.0000 -0.5023429241
O   O11       1.0  0.89046  0.78044  0.99027  1.0000 -0.5144258664
O   O12       1.0  0.21956  0.10954  0.49027  1.0000 -0.5179848041
O   O13       1.0  0.87467  0.61997  0.00860  1.0000 -0.5144258664
O   O14       1.0  0.38003  0.12533  0.50860  1.0000 -0.5144258664
O   O15       1.0  0.93933  0.65729  0.26736  1.0000 -0.3970401014
O   O16       1.0  0.34271  0.06067  0.76736  1.0000 -0.3970401014
O   O17       1.0  0.13457  0.10197  0.35425  1.0000 -0.472695234
O   O18       1.0  0.89803  0.86543  0.85425  1.0000 -0.472695234
O   O19       1.0  0.13661  0.99783  0.42606  1.0000 -0.4589902113
O   O20       1.0  0.00217  0.86339  0.92606  1.0000 -0.4589902113
O   O21       1.0  0.78074  0.74980  0.59478  1.0000 -0.5179848041
O   O22       1.0  0.25020  0.21926  0.09478  1.0000 -0.5179848041
O   O23       1.0  0.62009  0.73027  0.57225  1.0000 -0.5023429241
O   O24       1.0  0.26973  0.37991  0.07225  1.0000 -0.4936239149
O   O25       1.0  0.65962  0.31618  0.73151  1.0000 -0.3940663512
O   O26       1.0  0.68382  0.34038  0.23151  1.0000 -0.3940663512
O   O27       1.0  0.68964  0.91126  0.59358  1.0000 -0.5179848041
O   O28       1.0  0.08874  0.31036  0.09358  1.0000 -0.5179848041
O   O29       1.0  0.64825  0.87019  0.67303  1.0000 -0.5023429241
O   O30       1.0  0.12981  0.35175  0.17303  1.0000 -0.5023429241
O   O31       1.0  0.78044  0.89046  0.50973  1.0000 -0.5144258664
O   O32       1.0  0.10954  0.21956  0.00973  1.0000 -0.5179848041
O   O33       1.0  0.61997  0.87467  0.49140  1.0000 -0.5144258664
O   O34       1.0  0.12533  0.38003  0.99140  1.0000 -0.5144258664
O   O35       1.0  0.65729  0.93933  0.23264  1.0000 -0.3970401014
O   O36       1.0  0.06067  0.34271  0.73264  1.0000 -0.3970401014
O   O37       1.0  0.10197  0.13457  0.14575  1.0000 -0.472695234
O   O38       1.0  0.86543  0.89803  0.64575  1.0000 -0.472695234
O   O39       1.0  0.99783  0.13661  0.07394  1.0000 -0.4589902113
O   O40       1.0  0.86339  0.00217  0.57394  1.0000 -0.4589902113
