# DDEC6 charges by PACMAN v1.1 (https://github.com/mtap-research/PACMAN-charge/)
data_2014[Co][nan]3[FSR]11
_chemical_formula_sum              "Co4 H46 C68 S2 N6 O18"
_cell_length_a       11.862
_cell_length_b       12.013
_cell_length_c       13.685
_cell_angle_alpha    102.81
_cell_angle_beta     100.06
_cell_angle_gamma    98.87

_symmetry_space_group_name_H-M    "P 1"
_symmetry_Int_Tables_number       1

loop_
  _symmetry_equiv_pos_as_xyz
  'x, y, z'

loop_
  _atom_site_type_symbol
  _atom_site_label
  _atom_site_symmetry_multiplicity
  _atom_site_fract_x
  _atom_site_fract_y
  _atom_site_fract_z
  _atom_site_occupancy
  _atom_site_charge
Co  Co1       1.0  0.25342  0.97299  0.10743  1.0000 0.8879816041
Co  Co2       1.0  0.74658  0.02701  0.89257  1.0000 0.8879816041
Co  Co3       1.0  0.13028  0.27979  0.18220  1.0000 0.8879816041
Co  Co4       1.0  0.86972  0.72021  0.81780  1.0000 0.8879816041
H   H1        1.0  0.22000  0.49740  0.22950  1.0000 0.2870206341
H   H2        1.0  0.78000  0.50260  0.77050  1.0000 0.2870206341
H   H3        1.0  0.13210  0.50870  0.26880  1.0000 0.2487007186
H   H4        1.0  0.86790  0.49130  0.73120  1.0000 0.2487007186
H   H5        1.0  0.46680  0.89080  0.04190  1.0000 0.1038021413
H   H6        1.0  0.53320  0.10920  0.95810  1.0000 0.1038021413
H   H7        1.0  0.53830  0.72480  0.00140  1.0000 0.1305536307
H   H8        1.0  0.46170  0.27520  0.99860  1.0000 0.1305536307
H   H9        1.0  0.25940  0.55230  0.07130  1.0000 0.1305536307
H   H10       1.0  0.74060  0.44770  0.92870  1.0000 0.1305536307
H   H11       1.0  0.19720  0.72360  0.11190  1.0000 0.1089040717
H   H12       1.0  0.80280  0.27640  0.88810  1.0000 0.1089040717
H   H13       1.0  0.40070  0.44190  0.01650  1.0000 0.1216486114
H   H14       1.0  0.59930  0.55810  0.98350  1.0000 0.1216486114
H   H15       1.0  0.59900  0.52130  0.30660  1.0000 0.1216486114
H   H16       1.0  0.40100  0.47870  0.69340  1.0000 0.1216486114
H   H17       1.0  0.78440  0.48300  0.32330  1.0000 0.1089040717
H   H18       1.0  0.21560  0.51700  0.67670  1.0000 0.1089040717
H   H19       1.0  0.81100  0.29590  0.26600  1.0000 0.1089040717
H   H20       1.0  0.18900  0.70410  0.73400  1.0000 0.1089040717
H   H21       1.0  0.73220  0.02820  0.36690  1.0000 0.1216486114
H   H22       1.0  0.26780  0.97180  0.63310  1.0000 0.1216486114
H   H23       1.0  0.90000  0.98190  0.44730  1.0000 0.1089040717
H   H24       1.0  0.10000  0.01810  0.55270  1.0000 0.1089040717
H   H25       1.0  0.05380  0.96740  0.36510  1.0000 0.1216486114
H   H26       1.0  0.94620  0.03260  0.63490  1.0000 0.1216486114
H   H27       1.0  0.00560  0.35100  0.36220  1.0000 0.1038021413
H   H28       1.0  0.99440  0.64900  0.63780  1.0000 0.1038021413
H   H29       1.0  0.01610  0.35010  0.53090  1.0000 0.1305536307
H   H30       1.0  0.98390  0.64990  0.46910  1.0000 0.1305536307
H   H31       1.0  0.30670  0.22070  0.52720  1.0000 0.1405074105
H   H32       1.0  0.69330  0.77930  0.47280  1.0000 0.1405074105
H   H33       1.0  0.28640  0.22150  0.35850  1.0000 0.1216486114
H   H34       1.0  0.71360  0.77850  0.64150  1.0000 0.1216486114
H   H35       1.0  0.24040  0.25000  0.68530  1.0000 0.1305536307
H   H36       1.0  0.75960  0.75000  0.31470  1.0000 0.1305536307
H   H37       1.0  0.04870  0.34810  0.69330  1.0000 0.1305536307
H   H38       1.0  0.95130  0.65190  0.30670  1.0000 0.1305536307
H   H39       1.0  0.00040  0.40270  0.85830  1.0000 0.1305536307
H   H40       1.0  0.99960  0.59730  0.14170  1.0000 0.1305536307
H   H41       1.0  0.00680  0.38280  0.02140  1.0000 0.1038021413
H   H42       1.0  0.99320  0.61720  0.97860  1.0000 0.1038021413
H   H43       1.0  0.24150  0.19030  0.99840  1.0000 0.1216486114
H   H44       1.0  0.75850  0.80970  0.00160  1.0000 0.1216486114
H   H45       1.0  0.24030  0.20330  0.83350  1.0000 0.1305536307
H   H46       1.0  0.75970  0.79670  0.16650  1.0000 0.1305536307
C   C1        1.0  0.42530  0.82190  0.04910  1.0000 0.0818373572
C   C2        1.0  0.57470  0.17810  0.95090  1.0000 0.0818373572
C   C3        1.0  0.46890  0.72230  0.02440  1.0000 -0.1820239097
C   C4        1.0  0.53110  0.27770  0.97560  1.0000 -0.1820239097
C   C5        1.0  0.40880  0.61760  0.03390  1.0000 0.1724927828
C   C6        1.0  0.59120  0.38240  0.96610  1.0000 0.1724927828
C   C7        1.0  0.30430  0.62050  0.06600  1.0000 -0.1908338909
C   C8        1.0  0.69570  0.37950  0.93400  1.0000 -0.1908338909
C   C9        1.0  0.26710  0.72390  0.08990  1.0000 0.0884859108
C   C10       1.0  0.73290  0.27610  0.91010  1.0000 0.0884859108
C   C11       1.0  0.45040  0.50780  0.01230  1.0000 -0.132580322
C   C12       1.0  0.54960  0.49220  0.98770  1.0000 -0.132580322
C   C13       1.0  0.42660  0.13670  0.18378  1.0000 0.5595514283
C   C14       1.0  0.57340  0.86330  0.81622  1.0000 0.5595514283
C   C15       1.0  0.64040  0.21940  0.22590  1.0000 0.0299451549
C   C16       1.0  0.35960  0.78060  0.77410  1.0000 0.0299451549
C   C17       1.0  0.52740  0.24020  0.22051  1.0000 -0.0488588296
C   C18       1.0  0.47260  0.75980  0.77949  1.0000 -0.0488588296
C   C19       1.0  0.51170  0.35520  0.24880  1.0000 -0.0371814694
C   C20       1.0  0.48830  0.64480  0.75120  1.0000 -0.0371814694
C   C21       1.0  0.39130  0.38360  0.23570  1.0000 0.5595514283
C   C22       1.0  0.60870  0.61640  0.76430  1.0000 0.5595514283
C   C23       1.0  0.60890  0.44490  0.28670  1.0000 -0.1128404334
C   C24       1.0  0.39110  0.55510  0.71330  1.0000 -0.1128404334
C   C25       1.0  0.72000  0.42230  0.29540  1.0000 -0.0893747776
C   C26       1.0  0.28000  0.57770  0.70460  1.0000 -0.0893747776
C   C27       1.0  0.73590  0.31040  0.26300  1.0000 -0.1416781217
C   C28       1.0  0.26410  0.68960  0.73700  1.0000 -0.1416781217
C   C29       1.0  0.79460  0.06530  0.24720  1.0000 0.0299451549
C   C30       1.0  0.20540  0.93470  0.75280  1.0000 0.0299451549
C   C31       1.0  0.79740  0.03060  0.33770  1.0000 -0.1549914822
C   C32       1.0  0.20260  0.96940  0.66230  1.0000 -0.1561727866
C   C33       1.0  0.89640  0.99990  0.38430  1.0000 -0.0976992219
C   C34       1.0  0.10360  0.00010  0.61570  1.0000 -0.0976992219
C   C35       1.0  0.99040  0.99580  0.33730  1.0000 -0.1209222533
C   C36       1.0  0.00960  0.00420  0.66270  1.0000 -0.1209222533
C   C37       1.0  0.99030  0.03410  0.24878  1.0000 -0.0371814694
C   C38       1.0  0.00970  0.96590  0.75122  1.0000 -0.0371814694
C   C39       1.0  0.89430  0.07470  0.20556  1.0000 -0.0893747776
C   C40       1.0  0.10570  0.92530  0.79444  1.0000 -0.0893747776
C   C41       1.0  0.09078  0.02280  0.19680  1.0000 0.5595514283
C   C42       1.0  0.90922  0.97720  0.80320  1.0000 0.5595514283
C   C43       1.0  0.89810  0.12980  0.11670  1.0000 0.5938725576
C   C44       1.0  0.10190  0.87020  0.88330  1.0000 0.5938725576
C   C45       1.0  0.06670  0.32390  0.39560  1.0000 0.0818373572
C   C46       1.0  0.93330  0.67610  0.60440  1.0000 0.0818373572
C   C47       1.0  0.07270  0.32400  0.49760  1.0000 -0.2046124831
C   C48       1.0  0.92730  0.67600  0.50240  1.0000 -0.2046124831
C   C49       1.0  0.16400  0.28490  0.55002  1.0000 0.1521869108
C   C50       1.0  0.83600  0.71510  0.44998  1.0000 0.1521869108
C   C51       1.0  0.24400  0.24720  0.49540  1.0000 -0.1908338909
C   C52       1.0  0.75600  0.75280  0.50460  1.0000 -0.1908338909
C   C53       1.0  0.23160  0.24840  0.39370  1.0000 0.1089040717
C   C54       1.0  0.76840  0.75160  0.60630  1.0000 0.1089040717
C   C55       1.0  0.17780  0.28010  0.65820  1.0000 -0.1416781217
C   C56       1.0  0.82220  0.71990  0.34180  1.0000 -0.1416781217
C   C57       1.0  0.10910  0.31470  0.71950  1.0000 -0.1416781217
C   C58       1.0  0.89090  0.68530  0.28050  1.0000 -0.1416781217
C   C59       1.0  0.11940  0.30530  0.82569  1.0000 0.1642519042
C   C60       1.0  0.88060  0.69470  0.17431  1.0000 0.1642519042
C   C61       1.0  0.05010  0.35870  0.88480  1.0000 -0.2104788765
C   C62       1.0  0.94990  0.64130  0.11520  1.0000 -0.2104788765
C   C63       1.0  0.05480  0.34670  0.98320  1.0000 0.0884859108
C   C64       1.0  0.94520  0.65330  0.01680  1.0000 0.0884859108
C   C65       1.0  0.19240  0.23340  0.96974  1.0000 0.1089040717
C   C66       1.0  0.80760  0.76660  0.03026  1.0000 0.1089040717
C   C67       1.0  0.19220  0.24090  0.87040  1.0000 -0.1908338909
C   C68       1.0  0.80780  0.75910  0.12960  1.0000 -0.1908338909
S   S1        1.0  0.65748  0.07569  0.17563  1.0000 0.0031086302
S   S2        1.0  0.34252  0.92431  0.82437  1.0000 0.0031086302
N   N1        1.0  0.14436  0.28661  0.34280  1.0000 -0.2601528436
N   N2        1.0  0.85564  0.71339  0.65720  1.0000 -0.2601528436
N   N3        1.0  0.32615  0.82512  0.08310  1.0000 -0.2601528436
N   N4        1.0  0.67385  0.17488  0.91690  1.0000 -0.2601528436
N   N5        1.0  0.12486  0.28565  0.02652  1.0000 -0.2344234481
N   N6        1.0  0.87514  0.71435  0.97348  1.0000 -0.2344234481
O   O1        1.0  0.38679  0.09596  0.08828  1.0000 -0.5489559367
O   O2        1.0  0.61321  0.90404  0.91172  1.0000 -0.5489559367
O   O3        1.0  0.38818  0.08860  0.24694  1.0000 -0.5306230679
O   O4        1.0  0.61182  0.91140  0.75306  1.0000 -0.5306230679
O   O5        1.0  0.38129  0.48739  0.25450  1.0000 -0.5384786322
O   O6        1.0  0.61871  0.51261  0.74550  1.0000 -0.5384786322
O   O7        1.0  0.30757  0.29832  0.20359  1.0000 -0.5306230679
O   O8        1.0  0.69243  0.70168  0.79641  1.0000 -0.5306230679
O   O9        1.0  0.15040  0.46737  0.21733  1.0000 -0.6821735993
O   O10       1.0  0.84960  0.53263  0.78267  1.0000 -0.6821735993
O   O11       1.0  0.94748  0.23491  0.13894  1.0000 -0.5597653582
O   O12       1.0  0.05252  0.76509  0.86106  1.0000 -0.5597653582
O   O13       1.0  0.85099  0.06610  0.02981  1.0000 -0.5129097
O   O14       1.0  0.14901  0.93390  0.97019  1.0000 -0.5129097
O   O15       1.0  0.12829  0.09808  0.15271  1.0000 -0.5384786322
O   O16       1.0  0.87171  0.90192  0.84729  1.0000 -0.5384786322
O   O17       1.0  0.13646  0.93506  0.19704  1.0000 -0.5129097
O   O18       1.0  0.86354  0.06494  0.80296  1.0000 -0.5129097
