# DDEC6 charges by PACMAN v1.1 (https://github.com/mtap-research/PACMAN-charge/)
data_2014[Gd][nan]3[FSR]1
_chemical_formula_sum              "Gd4 H56 C68 N4 O28"
_cell_length_a       6.4399
_cell_length_b       17.023
_cell_length_c       23.833
_cell_angle_alpha    90
_cell_angle_beta     90.792
_cell_angle_gamma    90

_symmetry_space_group_name_H-M    "P 1"
_symmetry_Int_Tables_number       1

loop_
  _symmetry_equiv_pos_as_xyz
  'x, y, z'

loop_
  _atom_site_type_symbol
  _atom_site_label
  _atom_site_symmetry_multiplicity
  _atom_site_fract_x
  _atom_site_fract_y
  _atom_site_fract_z
  _atom_site_occupancy
  _atom_site_charge
Gd  Gd1       1.0  0.73703  0.93688  0.97784  1.0000 2.0327156176
Gd  Gd2       1.0  0.26297  0.43688  0.52216  1.0000 2.0327156176
Gd  Gd3       1.0  0.26297  0.06312  0.02216  1.0000 2.0327156176
Gd  Gd4       1.0  0.73703  0.56312  0.47784  1.0000 2.0327156176
H   H1        1.0  0.38770  0.21210  0.18330  1.0000 0.1309104222
H   H2        1.0  0.61230  0.71210  0.31670  1.0000 0.1309104222
H   H3        1.0  0.61230  0.78790  0.81670  1.0000 0.1309104222
H   H4        1.0  0.38770  0.28790  0.68330  1.0000 0.1309104222
H   H5        1.0  0.97800  0.16930  0.22800  1.0000 0.1174584533
H   H6        1.0  0.02200  0.66930  0.27200  1.0000 0.1174584533
H   H7        1.0  0.02200  0.83070  0.77200  1.0000 0.1174584533
H   H8        1.0  0.97800  0.33070  0.72800  1.0000 0.1174584533
H   H9        1.0  0.01550  0.09210  0.15150  1.0000 0.1309104222
H   H10       1.0  0.98450  0.59210  0.34850  1.0000 0.1309104222
H   H11       1.0  0.98450  0.90790  0.84850  1.0000 0.1309104222
H   H12       1.0  0.01550  0.40790  0.65150  1.0000 0.1309104222
H   H13       1.0  0.93340  0.29700  0.26580  1.0000 0.1309104222
H   H14       1.0  0.06660  0.79700  0.23420  1.0000 0.1309104222
H   H15       1.0  0.06660  0.70300  0.73420  1.0000 0.1309104222
H   H16       1.0  0.93340  0.20300  0.76580  1.0000 0.1309104222
H   H17       1.0  0.30060  0.30270  0.35490  1.0000 0.1104317098
H   H18       1.0  0.69940  0.80270  0.14510  1.0000 0.1104317098
H   H19       1.0  0.69940  0.69730  0.64510  1.0000 0.1104317098
H   H20       1.0  0.30060  0.19730  0.85490  1.0000 0.1104317098
H   H21       1.0  0.35180  0.21870  0.27900  1.0000 0.1174584533
H   H22       1.0  0.64820  0.71870  0.22100  1.0000 0.1174584533
H   H23       1.0  0.64820  0.78130  0.72100  1.0000 0.1174584533
H   H24       1.0  0.35180  0.28130  0.77900  1.0000 0.1174584533
H   H25       1.0  0.86470  0.77770  0.05870  1.0000 0.1104317098
H   H26       1.0  0.13530  0.27770  0.44130  1.0000 0.1104317098
H   H27       1.0  0.13530  0.22230  0.94130  1.0000 0.1104317098
H   H28       1.0  0.86470  0.72230  0.55870  1.0000 0.1104317098
H   H29       1.0  0.98030  0.67070  0.10210  1.0000 0.1309104222
H   H30       1.0  0.01970  0.17070  0.39790  1.0000 0.1309104222
H   H31       1.0  0.01970  0.32930  0.89790  1.0000 0.1309104222
H   H32       1.0  0.98030  0.82930  0.60210  1.0000 0.1309104222
H   H33       1.0  0.12360  0.61620  0.06640  1.0000 0.1386505839
H   H34       1.0  0.87640  0.11620  0.43360  1.0000 0.1386505839
H   H35       1.0  0.87640  0.38380  0.93360  1.0000 0.1386505839
H   H36       1.0  0.12360  0.88380  0.56640  1.0000 0.1386505839
H   H37       1.0  0.22210  0.67440  0.11030  1.0000 0.1309104222
H   H38       1.0  0.77790  0.17440  0.38970  1.0000 0.1309104222
H   H39       1.0  0.77790  0.32560  0.88970  1.0000 0.1309104222
H   H40       1.0  0.22210  0.82560  0.61030  1.0000 0.1309104222
H   H41       1.0  0.29020  0.77380  0.97850  1.0000 0.1543181491
H   H42       1.0  0.70980  0.27380  0.52150  1.0000 0.1543181491
H   H43       1.0  0.70980  0.22620  0.02150  1.0000 0.1543181491
H   H44       1.0  0.29020  0.72620  0.47850  1.0000 0.1543181491
H   H45       1.0  0.42490  0.74490  0.02980  1.0000 0.1309104222
H   H46       1.0  0.57510  0.24490  0.47020  1.0000 0.1309104222
H   H47       1.0  0.57510  0.25510  0.97020  1.0000 0.1309104222
H   H48       1.0  0.42490  0.75510  0.52980  1.0000 0.1309104222
H   H49       1.0  0.32890  0.68370  0.98760  1.0000 0.1386505839
H   H50       1.0  0.67110  0.18370  0.51240  1.0000 0.1386505839
H   H51       1.0  0.67110  0.31630  0.01240  1.0000 0.1386505839
H   H52       1.0  0.32890  0.81630  0.48760  1.0000 0.1386505839
H   H53       1.0  0.90700  0.42500  0.36880  1.0000 0.3523739268
H   H54       1.0  0.09300  0.92500  0.13120  1.0000 0.3523739268
H   H55       1.0  0.09300  0.57500  0.63120  1.0000 0.3523739268
H   H56       1.0  0.90700  0.07500  0.86880  1.0000 0.3523739268
C   C1        1.0  0.76710  0.06120  0.06770  1.0000 0.6513901491
C   C2        1.0  0.23290  0.56120  0.43230  1.0000 0.6513901491
C   C3        1.0  0.23290  0.93880  0.93230  1.0000 0.6513901491
C   C4        1.0  0.76710  0.43880  0.56770  1.0000 0.6513901491
C   C5        1.0  0.72950  0.10750  0.11670  1.0000 -0.2151280056
C   C6        1.0  0.27050  0.60750  0.38330  1.0000 -0.2151280056
C   C7        1.0  0.27050  0.89250  0.88330  1.0000 -0.2151280056
C   C8        1.0  0.72950  0.39250  0.61670  1.0000 -0.2145470987
C   C9        1.0  0.53390  0.14570  0.12630  1.0000 0.3867114772
C   C10       1.0  0.46610  0.64570  0.37370  1.0000 0.3867114772
C   C11       1.0  0.46610  0.85430  0.87370  1.0000 0.3867114772
C   C12       1.0  0.53390  0.35430  0.62630  1.0000 0.3867114772
C   C13       1.0  0.51560  0.18940  0.17550  1.0000 -0.2817061181
C   C14       1.0  0.48440  0.68940  0.32450  1.0000 -0.2817061181
C   C15       1.0  0.48440  0.81060  0.82450  1.0000 -0.2817061181
C   C16       1.0  0.51560  0.31060  0.67550  1.0000 -0.2817061181
C   C17       1.0  0.67720  0.20090  0.21340  1.0000 0.1104317098
C   C18       1.0  0.32280  0.70090  0.28660  1.0000 0.1104317098
C   C19       1.0  0.32280  0.79910  0.78660  1.0000 0.1104317098
C   C20       1.0  0.67720  0.29910  0.71340  1.0000 0.1104317098
C   C21       1.0  0.86710  0.16300  0.20300  1.0000 -0.1974964301
C   C22       1.0  0.13290  0.66300  0.29700  1.0000 -0.1974964301
C   C23       1.0  0.13290  0.83700  0.79700  1.0000 -0.1974964301
C   C24       1.0  0.86710  0.33700  0.70300  1.0000 -0.1974964301
C   C25       1.0  0.88960  0.11760  0.15690  1.0000 -0.0613147776
C   C26       1.0  0.11040  0.61760  0.34310  1.0000 -0.0613147776
C   C27       1.0  0.11040  0.88240  0.84310  1.0000 -0.0613147776
C   C28       1.0  0.88960  0.38240  0.65690  1.0000 -0.0613147776
C   C29       1.0  0.64430  0.25150  0.26370  1.0000 0.093915454
C   C30       1.0  0.35570  0.75150  0.23630  1.0000 0.093915454
C   C31       1.0  0.35570  0.74850  0.73630  1.0000 0.093915454
C   C32       1.0  0.64430  0.24850  0.76370  1.0000 0.093915454
C   C33       1.0  0.80520  0.29830  0.28330  1.0000 -0.2646301846
C   C34       1.0  0.19480  0.79830  0.21670  1.0000 -0.2646301846
C   C35       1.0  0.19480  0.70170  0.71670  1.0000 -0.2646301846
C   C36       1.0  0.80520  0.20170  0.78330  1.0000 -0.2646301846
C   C37       1.0  0.77520  0.34750  0.32910  1.0000 0.2729641487
C   C38       1.0  0.22480  0.84750  0.17090  1.0000 0.2729641487
C   C39       1.0  0.22480  0.65250  0.67090  1.0000 0.2729641487
C   C40       1.0  0.77520  0.15250  0.82910  1.0000 0.2729641487
C   C41       1.0  0.58890  0.34950  0.35680  1.0000 -0.1723833765
C   C42       1.0  0.41110  0.84950  0.14320  1.0000 -0.1723833765
C   C43       1.0  0.41110  0.65050  0.64320  1.0000 -0.1723833765
C   C44       1.0  0.58890  0.15050  0.85680  1.0000 -0.1723833765
C   C45       1.0  0.42850  0.30170  0.33720  1.0000 -0.0858698609
C   C46       1.0  0.57150  0.80170  0.16280  1.0000 -0.0858698609
C   C47       1.0  0.57150  0.69830  0.66280  1.0000 -0.0858698609
C   C48       1.0  0.42850  0.19830  0.83720  1.0000 -0.0858698609
C   C49       1.0  0.45850  0.25170  0.29110  1.0000 -0.1828989844
C   C50       1.0  0.54150  0.75170  0.20890  1.0000 -0.1828989844
C   C51       1.0  0.54150  0.74830  0.70890  1.0000 -0.1828989844
C   C52       1.0  0.45850  0.24830  0.79110  1.0000 -0.1828989844
C   C53       1.0  0.55320  0.40040  0.40670  1.0000 0.6513901491
C   C54       1.0  0.44680  0.90040  0.09330  1.0000 0.6513901491
C   C55       1.0  0.44680  0.59960  0.59330  1.0000 0.6513901491
C   C56       1.0  0.55320  0.09960  0.90670  1.0000 0.6513901491
C   C57       1.0  0.97500  0.78100  0.03390  1.0000 0.2203038399
C   C58       1.0  0.02500  0.28100  0.46610  1.0000 0.2203038399
C   C59       1.0  0.02500  0.21900  0.96610  1.0000 0.2119620283
C   C60       1.0  0.97500  0.71900  0.53390  1.0000 0.2119620283
C   C61       1.0  0.11100  0.66710  0.08350  1.0000 -0.3318059977
C   C62       1.0  0.88900  0.16710  0.41650  1.0000 -0.3318059977
C   C63       1.0  0.88900  0.33290  0.91650  1.0000 -0.3318059977
C   C64       1.0  0.11100  0.83290  0.58350  1.0000 -0.3318059977
C   C65       1.0  0.30700  0.73310  0.00610  1.0000 -0.30507964
C   C66       1.0  0.69300  0.23310  0.49390  1.0000 -0.30507964
C   C67       1.0  0.69300  0.26690  0.99390  1.0000 -0.30507964
C   C68       1.0  0.30700  0.76690  0.50610  1.0000 -0.30507964
N   N1        1.0  0.12300  0.72850  0.03970  1.0000 0.0396843607
N   N2        1.0  0.87700  0.22850  0.46030  1.0000 0.0396843607
N   N3        1.0  0.87700  0.27150  0.96030  1.0000 0.0396843607
N   N4        1.0  0.12300  0.77150  0.53970  1.0000 0.0396843607
O   O1        1.0  0.93910  0.02510  0.05970  1.0000 -0.7121295791
O   O2        1.0  0.06090  0.52510  0.44030  1.0000 -0.7121295791
O   O3        1.0  0.06090  0.97490  0.94030  1.0000 -0.7121295791
O   O4        1.0  0.93910  0.47490  0.55970  1.0000 -0.7121295791
O   O5        1.0  0.62450  0.05090  0.03030  1.0000 -0.72616917
O   O6        1.0  0.37550  0.55090  0.46970  1.0000 -0.72616917
O   O7        1.0  0.37550  0.94910  0.96970  1.0000 -0.72616917
O   O8        1.0  0.62450  0.44910  0.53030  1.0000 -0.72616917
O   O9        1.0  0.39710  0.38780  0.43730  1.0000 -0.6621857892
O   O10       1.0  0.60290  0.88780  0.06270  1.0000 -0.6621857892
O   O11       1.0  0.60290  0.61220  0.56270  1.0000 -0.6621857892
O   O12       1.0  0.39710  0.11220  0.93730  1.0000 -0.6621857892
O   O13       1.0  0.68070  0.45760  0.41360  1.0000 -0.6464210163
O   O14       1.0  0.31930  0.95760  0.08640  1.0000 -0.6464210163
O   O15       1.0  0.31930  0.54240  0.58640  1.0000 -0.6464210163
O   O16       1.0  0.68070  0.04240  0.91360  1.0000 -0.6464210163
O   O17       1.0  0.37130  0.13890  0.09230  1.0000 -0.6823410402
O   O18       1.0  0.62870  0.63890  0.40770  1.0000 -0.6823410402
O   O19       1.0  0.62870  0.86110  0.90770  1.0000 -0.6823410402
O   O20       1.0  0.37130  0.36110  0.59230  1.0000 -0.6823410402
O   O21       1.0  0.94230  0.39420  0.34430  1.0000 -0.4472642924
O   O22       1.0  0.05770  0.89420  0.15570  1.0000 -0.4472642924
O   O23       1.0  0.05770  0.60580  0.65570  1.0000 -0.4472642924
O   O24       1.0  0.94230  0.10580  0.84430  1.0000 -0.4472642924
O   O25       1.0  0.96630  0.83360  0.99930  1.0000 -0.5058930676
O   O26       1.0  0.03370  0.33360  0.50070  1.0000 -0.5058930676
O   O27       1.0  0.03370  0.16640  0.00070  1.0000 -0.5058930676
O   O28       1.0  0.96630  0.66640  0.49930  1.0000 -0.5058930676
