# DDEC6 charges by PACMAN v1.1 (https://github.com/mtap-research/PACMAN-charge/)
data_2014[Zn][sra]3[FSR]1
_chemical_formula_sum              "Zn4 H12 C36 O24"
_cell_length_a       9.46
_cell_length_b       15.98
_cell_length_c       14.4428
_cell_angle_alpha    90
_cell_angle_beta     126.915
_cell_angle_gamma    90

_symmetry_space_group_name_H-M    "P 1"
_symmetry_Int_Tables_number       1

loop_
  _symmetry_equiv_pos_as_xyz
  'x, y, z'

loop_
  _atom_site_type_symbol
  _atom_site_label
  _atom_site_symmetry_multiplicity
  _atom_site_fract_x
  _atom_site_fract_y
  _atom_site_fract_z
  _atom_site_occupancy
  _atom_site_charge
Zn  Zn1       1.0  0.69254  0.91881  0.54978  1.0000 0.9745139109
Zn  Zn2       1.0  0.30746  0.41881  0.95022  1.0000 0.9762517738
Zn  Zn3       1.0  0.30746  0.08119  0.45022  1.0000 0.9745139109
Zn  Zn4       1.0  0.69254  0.58119  0.04978  1.0000 0.9762517738
H   H1        1.0  0.20640  0.95620  0.62750  1.0000 0.1400685015
H   H2        1.0  0.79360  0.45620  0.87250  1.0000 0.1400685015
H   H3        1.0  0.79360  0.04380  0.37250  1.0000 0.1400685015
H   H4        1.0  0.20640  0.54380  0.12750  1.0000 0.1400685015
H   H5        1.0  0.65750  0.82760  0.79720  1.0000 0.1400685015
H   H6        1.0  0.34250  0.32760  0.70280  1.0000 0.1400685015
H   H7        1.0  0.34250  0.17240  0.20280  1.0000 0.1400685015
H   H8        1.0  0.65750  0.67240  0.29720  1.0000 0.1400685015
H   H9        1.0  0.28320  0.76730  0.83430  1.0000 0.1334838199
H   H10       1.0  0.71680  0.26730  0.66570  1.0000 0.1334838199
H   H11       1.0  0.71680  0.23270  0.16570  1.0000 0.1334838199
H   H12       1.0  0.28320  0.73270  0.33430  1.0000 0.1334838199
C   C1        1.0  0.27550  0.91240  0.67680  1.0000 -0.0705189014
C   C2        1.0  0.72450  0.41240  0.82320  1.0000 -0.0705189014
C   C3        1.0  0.72450  0.08760  0.32320  1.0000 -0.0705189014
C   C4        1.0  0.27550  0.58760  0.17680  1.0000 -0.0705189014
C   C5        1.0  0.03180  0.87190  0.68620  1.0000 0.5461839067
C   C6        1.0  0.96820  0.37190  0.81380  1.0000 0.5461839067
C   C7        1.0  0.96820  0.12810  0.31380  1.0000 0.5461839067
C   C8        1.0  0.03180  0.62810  0.18620  1.0000 0.5461839067
C   C9        1.0  0.54650  0.83630  0.77940  1.0000 -0.0785800431
C   C10       1.0  0.45350  0.33630  0.72060  1.0000 -0.0785800431
C   C11       1.0  0.45350  0.16370  0.22060  1.0000 -0.0785800431
C   C12       1.0  0.54650  0.66370  0.27940  1.0000 -0.0785800431
C   C13       1.0  0.32440  0.80080  0.80250  1.0000 -0.0785800431
C   C14       1.0  0.67560  0.30080  0.69750  1.0000 -0.0785800431
C   C15       1.0  0.67560  0.19920  0.19750  1.0000 -0.0785800431
C   C16       1.0  0.32440  0.69920  0.30250  1.0000 -0.0785800431
C   C17       1.0  0.21660  0.86260  0.72600  1.0000 -0.0248710939
C   C18       1.0  0.78340  0.36260  0.77400  1.0000 -0.0248710939
C   C19       1.0  0.78340  0.13740  0.27400  1.0000 -0.0248710939
C   C20       1.0  0.21660  0.63740  0.22600  1.0000 -0.0256708989
C   C21       1.0  0.44210  0.89540  0.70290  1.0000 -0.0352675396
C   C22       1.0  0.55790  0.39540  0.79710  1.0000 -0.0352675396
C   C23       1.0  0.55790  0.10460  0.29710  1.0000 -0.0352675396
C   C24       1.0  0.44210  0.60460  0.20290  1.0000 -0.0352675396
C   C25       1.0  0.60630  0.71760  0.91300  1.0000 0.5305459576
C   C26       1.0  0.39370  0.21760  0.58700  1.0000 0.5305459576
C   C27       1.0  0.39370  0.28240  0.08700  1.0000 0.5305459576
C   C28       1.0  0.60630  0.78240  0.41300  1.0000 0.5305459576
C   C29       1.0  0.49330  0.78670  0.83410  1.0000 -0.0080327855
C   C30       1.0  0.50670  0.28670  0.66590  1.0000 -0.0080327855
C   C31       1.0  0.50670  0.21330  0.16590  1.0000 -0.0080327855
C   C32       1.0  0.49330  0.71330  0.33410  1.0000 -0.0080327855
C   C33       1.0  0.49020  0.94180  0.63570  1.0000 0.6037836897
C   C34       1.0  0.50980  0.44180  0.86430  1.0000 0.6037836897
C   C35       1.0  0.50980  0.05820  0.36430  1.0000 0.6037836897
C   C36       1.0  0.49020  0.55820  0.13570  1.0000 0.6037836897
O   O1        1.0  0.64530  0.93190  0.66500  1.0000 -0.4756218863
O   O2        1.0  0.35470  0.43190  0.83500  1.0000 -0.4756218863
O   O3        1.0  0.35470  0.06810  0.33500  1.0000 -0.4749541951
O   O4        1.0  0.64530  0.56810  0.16500  1.0000 -0.4756218863
O   O5        1.0  0.96300  0.81400  0.70750  1.0000 -0.4118884352
O   O6        1.0  0.03700  0.31400  0.79250  1.0000 -0.4118884352
O   O7        1.0  0.03700  0.18600  0.29250  1.0000 -0.4118884352
O   O8        1.0  0.96300  0.68600  0.20750  1.0000 -0.4118884352
O   O9        1.0  0.94590  0.93540  0.62940  1.0000 -0.4458199812
O   O10       1.0  0.05410  0.43540  0.87060  1.0000 -0.4458199812
O   O11       1.0  0.05410  0.06460  0.37060  1.0000 -0.4458199812
O   O12       1.0  0.94590  0.56460  0.12940  1.0000 -0.4449725819
O   O13       1.0  0.54130  0.67260  0.95410  1.0000 -0.505412854
O   O14       1.0  0.45870  0.17260  0.54590  1.0000 -0.5042539907
O   O15       1.0  0.45870  0.32740  0.04590  1.0000 -0.5042539907
O   O16       1.0  0.54130  0.82740  0.45410  1.0000 -0.505412854
O   O17       1.0  0.37100  0.98380  0.54930  1.0000 -0.5174083782
O   O18       1.0  0.62900  0.48380  0.95070  1.0000 -0.5174083782
O   O19       1.0  0.62900  0.01620  0.45070  1.0000 -0.5174083782
O   O20       1.0  0.37100  0.51620  0.04930  1.0000 -0.5174083782
O   O21       1.0  0.75210  0.70320  0.93540  1.0000 -0.4182735307
O   O22       1.0  0.24790  0.20320  0.56460  1.0000 -0.4182735307
O   O23       1.0  0.24790  0.29680  0.06460  1.0000 -0.4182735307
O   O24       1.0  0.75210  0.79680  0.43540  1.0000 -0.4182735307
