# DDEC6 charges by PACMAN v1.1 (https://github.com/mtap-research/PACMAN-charge/)
data_2014[GdCu][nan]3[FSR]1
_chemical_formula_sum              "Gd4 Cu2 H32 C48 N16 O40"
_cell_length_a       6.0407
_cell_length_b       23.58
_cell_length_c       13.341
_cell_angle_alpha    90
_cell_angle_beta     112.797
_cell_angle_gamma    90

_symmetry_space_group_name_H-M    "P 1"
_symmetry_Int_Tables_number       1

loop_
  _symmetry_equiv_pos_as_xyz
  'x, y, z'

loop_
  _atom_site_type_symbol
  _atom_site_label
  _atom_site_symmetry_multiplicity
  _atom_site_fract_x
  _atom_site_fract_y
  _atom_site_fract_z
  _atom_site_occupancy
  _atom_site_charge
Gd  Gd1       1.0  0.90174  0.32861  0.89017  1.0000 1.9343382325
Gd  Gd2       1.0  0.09826  0.82861  0.60983  1.0000 1.9356213615
Gd  Gd3       1.0  0.09826  0.67139  0.10983  1.0000 1.9343382325
Gd  Gd4       1.0  0.90174  0.17139  0.39017  1.0000 1.9343382325
Cu  Cu1       1.0  0.00000  0.50000  0.50000  1.0000 0.7743892476
Cu  Cu2       1.0  0.00000  0.00000  0.00000  1.0000 0.7743892476
H   H1        1.0  0.46760  0.39710  0.84410  1.0000 0.3861976669
H   H2        1.0  0.53240  0.89710  0.65590  1.0000 0.3861976669
H   H3        1.0  0.53240  0.60290  0.15590  1.0000 0.3861976669
H   H4        1.0  0.46760  0.10290  0.34410  1.0000 0.3861976669
H   H5        1.0  0.63740  0.42330  0.81540  1.0000 0.3597556159
H   H6        1.0  0.36260  0.92330  0.68460  1.0000 0.3597556159
H   H7        1.0  0.36260  0.57670  0.18460  1.0000 0.3597556159
H   H8        1.0  0.63740  0.07670  0.31540  1.0000 0.3597556159
H   H9        1.0  0.07030  0.35740  0.10950  1.0000 0.3861976669
H   H10       1.0  0.92970  0.85740  0.39050  1.0000 0.3861976669
H   H11       1.0  0.92970  0.64260  0.89050  1.0000 0.3861976669
H   H12       1.0  0.07030  0.14260  0.60950  1.0000 0.3861976669
H   H13       1.0  0.93760  0.40110  0.04690  1.0000 0.3722616241
H   H14       1.0  0.06240  0.90110  0.45310  1.0000 0.3722616241
H   H15       1.0  0.06240  0.59890  0.95310  1.0000 0.3722616241
H   H16       1.0  0.93760  0.09890  0.54690  1.0000 0.3722616241
H   H17       1.0  0.96700  0.29240  0.57510  1.0000 0.1264140711
H   H18       1.0  0.03300  0.79240  0.92490  1.0000 0.1264140711
H   H19       1.0  0.03300  0.70760  0.42490  1.0000 0.1264140711
H   H20       1.0  0.96700  0.20760  0.07510  1.0000 0.1264140711
H   H21       1.0  0.25770  0.33580  0.72590  1.0000 0.1196821921
H   H22       1.0  0.74230  0.83580  0.77410  1.0000 0.1196821921
H   H23       1.0  0.74230  0.66420  0.27410  1.0000 0.1196821921
H   H24       1.0  0.25770  0.16420  0.22590  1.0000 0.1196821921
H   H25       1.0  0.32820  0.32980  0.37490  1.0000 0.1196821921
H   H26       1.0  0.67180  0.82980  0.12510  1.0000 0.1196821921
H   H27       1.0  0.67180  0.67020  0.62510  1.0000 0.1196821921
H   H28       1.0  0.32820  0.17020  0.87490  1.0000 0.1196821921
H   H29       1.0  0.03480  0.39610  0.35680  1.0000 0.1416264132
H   H30       1.0  0.96520  0.89610  0.14320  1.0000 0.1416264132
H   H31       1.0  0.96520  0.60390  0.64320  1.0000 0.1416264132
H   H32       1.0  0.03480  0.10390  0.85680  1.0000 0.1416264132
C   C1        1.0  0.83220  0.22200  0.73160  1.0000 0.5653940246
C   C2        1.0  0.16780  0.72200  0.76840  1.0000 0.5653940246
C   C3        1.0  0.16780  0.77800  0.26840  1.0000 0.5653940246
C   C4        1.0  0.83220  0.27800  0.23160  1.0000 0.5653940246
C   C5        1.0  0.58570  0.24770  0.67210  1.0000 0.0718739212
C   C6        1.0  0.41430  0.74770  0.82790  1.0000 0.0718739212
C   C7        1.0  0.41430  0.75230  0.32790  1.0000 0.0718739212
C   C8        1.0  0.58570  0.25230  0.17210  1.0000 0.0754348517
C   C9        1.0  0.41650  0.22970  0.57220  1.0000 0.0718739212
C   C10       1.0  0.58350  0.72970  0.92780  1.0000 0.0718739212
C   C11       1.0  0.58350  0.77030  0.42780  1.0000 0.0718739212
C   C12       1.0  0.41650  0.27030  0.07220  1.0000 0.0718739212
C   C13       1.0  0.12670  0.28140  0.59730  1.0000 0.0718739212
C   C14       1.0  0.87330  0.78140  0.90270  1.0000 0.0718739212
C   C15       1.0  0.87330  0.71860  0.40270  1.0000 0.0718739212
C   C16       1.0  0.12670  0.21860  0.09730  1.0000 0.0718739212
C   C17       1.0  0.30120  0.30630  0.69090  1.0000 0.0718739212
C   C18       1.0  0.69880  0.80630  0.80910  1.0000 0.0718739212
C   C19       1.0  0.69880  0.69370  0.30910  1.0000 0.0718739212
C   C20       1.0  0.30120  0.19370  0.19090  1.0000 0.0718739212
C   C21       1.0  0.47410  0.19690  0.48930  1.0000 0.630776386
C   C22       1.0  0.52590  0.69690  0.01070  1.0000 0.630776386
C   C23       1.0  0.52590  0.80310  0.51070  1.0000 0.630776386
C   C24       1.0  0.47410  0.30310  0.98930  1.0000 0.630776386
C   C25       1.0  0.86580  0.40710  0.66667  1.0000 0.6005480245
C   C26       1.0  0.13420  0.90710  0.83340  1.0000 0.6005480245
C   C27       1.0  0.13420  0.59290  0.33340  1.0000 0.6005480245
C   C28       1.0  0.86580  0.09290  0.16660  1.0000 0.6005480245
C   C29       1.0  0.61410  0.40430  0.57960  1.0000 0.0569193114
C   C30       1.0  0.38590  0.90430  0.92040  1.0000 0.0569193114
C   C31       1.0  0.38590  0.59570  0.42040  1.0000 0.0569193114
C   C32       1.0  0.61410  0.09570  0.07960  1.0000 0.0569193114
C   C33       1.0  0.35980  0.35850  0.42630  1.0000 0.0754348517
C   C34       1.0  0.64020  0.85850  0.07370  1.0000 0.0754348517
C   C35       1.0  0.64020  0.64150  0.57370  1.0000 0.0754348517
C   C36       1.0  0.35980  0.14150  0.92630  1.0000 0.0754348517
C   C37       1.0  0.18230  0.39860  0.41510  1.0000 0.0569193114
C   C38       1.0  0.81770  0.89860  0.08490  1.0000 0.0569193114
C   C39       1.0  0.81770  0.60140  0.58490  1.0000 0.0569193114
C   C40       1.0  0.18230  0.10140  0.91510  1.0000 0.0569193114
C   C41       1.0  0.43660  0.44420  0.56880  1.0000 0.0219647915
C   C42       1.0  0.56340  0.94420  0.93120  1.0000 0.0219647915
C   C43       1.0  0.56340  0.55580  0.43120  1.0000 0.0219647915
C   C44       1.0  0.43660  0.05580  0.06880  1.0000 0.0219647915
C   C45       1.0  0.46170  0.49200  0.64510  1.0000 0.5301684246
C   C46       1.0  0.53830  0.99200  0.85490  1.0000 0.5301684246
C   C47       1.0  0.53830  0.50800  0.35490  1.0000 0.5301684246
C   C48       1.0  0.46170  0.00800  0.14510  1.0000 0.5301684246
N   N1        1.0  0.22210  0.44070  0.48720  1.0000 -0.1976147524
N   N2        1.0  0.77790  0.94070  0.01280  1.0000 -0.1976147524
N   N3        1.0  0.77790  0.55930  0.51280  1.0000 -0.1976147524
N   N4        1.0  0.22210  0.05930  0.98720  1.0000 -0.1976147524
N   N5        1.0  0.57300  0.36010  0.50850  1.0000 -0.2291600972
N   N6        1.0  0.42700  0.86010  0.99150  1.0000 -0.2291600972
N   N7        1.0  0.42700  0.63990  0.49150  1.0000 -0.2291600972
N   N8        1.0  0.57300  0.13990  0.00850  1.0000 -0.2291600972
N   N9        1.0  0.52910  0.28780  0.72990  1.0000 -0.3089795976
N   N10       1.0  0.47090  0.78780  0.77010  1.0000 -0.3089795976
N   N11       1.0  0.47090  0.71220  0.27010  1.0000 -0.3089795976
N   N12       1.0  0.52910  0.21220  0.22990  1.0000 -0.3089795976
N   N13       1.0  0.18690  0.24260  0.54070  1.0000 -0.2903442725
N   N14       1.0  0.81310  0.74260  0.95930  1.0000 -0.2903442725
N   N15       1.0  0.81310  0.75740  0.45930  1.0000 -0.2903442725
N   N16       1.0  0.18690  0.25740  0.04070  1.0000 -0.2903442725
O   O1        1.0  0.97480  0.25050  0.80920  1.0000 -0.6564797356
O   O2        1.0  0.02520  0.75050  0.69080  1.0000 -0.6564797356
O   O3        1.0  0.02520  0.74950  0.19080  1.0000 -0.6564797356
O   O4        1.0  0.97480  0.24950  0.30920  1.0000 -0.6564797356
O   O5        1.0  0.86970  0.17420  0.70410  1.0000 -0.5126224502
O   O6        1.0  0.13030  0.67420  0.79590  1.0000 -0.5126224502
O   O7        1.0  0.13030  0.82580  0.29590  1.0000 -0.5126224502
O   O8        1.0  0.86970  0.32580  0.20410  1.0000 -0.5126224502
O   O9        1.0  0.66800  0.20690  0.47760  1.0000 -0.6540958777
O   O10       1.0  0.33200  0.70690  0.02240  1.0000 -0.6540958777
O   O11       1.0  0.33200  0.79310  0.52240  1.0000 -0.6540958777
O   O12       1.0  0.66800  0.29310  0.97760  1.0000 -0.6540958777
O   O13       1.0  0.31230  0.16290  0.43090  1.0000 -0.6141323939
O   O14       1.0  0.68770  0.66290  0.06910  1.0000 -0.6141323939
O   O15       1.0  0.68770  0.83710  0.56910  1.0000 -0.6141323939
O   O16       1.0  0.31230  0.33710  0.93090  1.0000 -0.6141323939
O   O17       1.0  0.90990  0.37470  0.74650  1.0000 -0.6802768752
O   O18       1.0  0.09010  0.87470  0.75350  1.0000 -0.6802768752
O   O19       1.0  0.09010  0.62530  0.25350  1.0000 -0.6802768752
O   O20       1.0  0.90990  0.12530  0.24650  1.0000 -0.6802768752
O   O21       1.0  0.00950  0.43830  0.65050  1.0000 -0.5126224502
O   O22       1.0  0.99050  0.93830  0.84950  1.0000 -0.5126224502
O   O23       1.0  0.99050  0.56170  0.34950  1.0000 -0.5126224502
O   O24       1.0  0.00950  0.06170  0.15050  1.0000 -0.5126224502
O   O25       1.0  0.63880  0.49480  0.73040  1.0000 -0.4714281752
O   O26       1.0  0.36120  0.99480  0.76960  1.0000 -0.4714281752
O   O27       1.0  0.36120  0.50520  0.26960  1.0000 -0.4714281752
O   O28       1.0  0.63880  0.00520  0.23040  1.0000 -0.4714281752
O   O29       1.0  0.29170  0.52900  0.61330  1.0000 -0.503088583
O   O30       1.0  0.70830  0.02900  0.88670  1.0000 -0.503088583
O   O31       1.0  0.70830  0.47100  0.38670  1.0000 -0.503088583
O   O32       1.0  0.29170  0.97100  0.11330  1.0000 -0.503088583
O   O33       1.0  0.61770  0.40030  0.86030  1.0000 -0.7744344517
O   O34       1.0  0.38230  0.90030  0.63970  1.0000 -0.7744344517
O   O35       1.0  0.38230  0.59970  0.13970  1.0000 -0.7744344517
O   O36       1.0  0.61770  0.09970  0.36030  1.0000 -0.7744344517
O   O37       1.0  0.04560  0.37680  0.05240  1.0000 -0.7546311214
O   O38       1.0  0.95440  0.87680  0.44760  1.0000 -0.7551737025
O   O39       1.0  0.95440  0.62320  0.94760  1.0000 -0.7551737025
O   O40       1.0  0.04560  0.12320  0.55240  1.0000 -0.7546311214
