# DDEC6 charges by PACMAN v1.1 (https://github.com/mtap-research/PACMAN-charge/)
data_2014[Cd][rtl]3[FSR]3
_chemical_formula_sum              "Cd4 H32 C48 N8 O16"
_cell_length_a       9.86
_cell_length_b       13.113
_cell_length_c       11.65
_cell_angle_alpha    90
_cell_angle_beta     101.99
_cell_angle_gamma    90

_symmetry_space_group_name_H-M    "P 1"
_symmetry_Int_Tables_number       1

loop_
  _symmetry_equiv_pos_as_xyz
  'x, y, z'

loop_
  _atom_site_type_symbol
  _atom_site_label
  _atom_site_symmetry_multiplicity
  _atom_site_fract_x
  _atom_site_fract_y
  _atom_site_fract_z
  _atom_site_occupancy
  _atom_site_charge
Cd  Cd1       1.0  0.25672  0.50469  0.49402  1.0000 0.9342027766
Cd  Cd2       1.0  0.74328  0.00469  0.00598  1.0000 0.9342027766
Cd  Cd3       1.0  0.74328  0.49531  0.50598  1.0000 0.9342027766
Cd  Cd4       1.0  0.25672  0.99531  0.99402  1.0000 0.9342027766
H   H1        1.0  0.66320  0.62250  0.87550  1.0000 0.1384149579
H   H2        1.0  0.33680  0.12250  0.62450  1.0000 0.1384149579
H   H3        1.0  0.33680  0.37750  0.12450  1.0000 0.1384149579
H   H4        1.0  0.66320  0.87750  0.37550  1.0000 0.1384149579
H   H5        1.0  0.72340  0.76060  0.99740  1.0000 0.1022762259
H   H6        1.0  0.27660  0.26060  0.50260  1.0000 0.1022762259
H   H7        1.0  0.27660  0.23940  0.00260  1.0000 0.1022762259
H   H8        1.0  0.72340  0.73940  0.49740  1.0000 0.1022762259
H   H9        1.0  0.59450  0.95050  0.74080  1.0000 0.1022762259
H   H10       1.0  0.40550  0.45050  0.75920  1.0000 0.1022762259
H   H11       1.0  0.40550  0.04950  0.25920  1.0000 0.1022762259
H   H12       1.0  0.59450  0.54950  0.24080  1.0000 0.1022762259
H   H13       1.0  0.51280  0.81730  0.61270  1.0000 0.1384149579
H   H14       1.0  0.48720  0.31730  0.88730  1.0000 0.1384149579
H   H15       1.0  0.48720  0.18270  0.38730  1.0000 0.1384149579
H   H16       1.0  0.51280  0.68270  0.11270  1.0000 0.1384149579
H   H17       1.0  0.28580  0.82460  0.23620  1.0000 0.1253121657
H   H18       1.0  0.71420  0.32460  0.26380  1.0000 0.1253121657
H   H19       1.0  0.71420  0.17540  0.76380  1.0000 0.1253121657
H   H20       1.0  0.28580  0.67540  0.73620  1.0000 0.1253121657
H   H21       1.0  0.35520  0.68670  0.35690  1.0000 0.1022762259
H   H22       1.0  0.64480  0.18670  0.14310  1.0000 0.1022762259
H   H23       1.0  0.64480  0.31330  0.64310  1.0000 0.1022762259
H   H24       1.0  0.35520  0.81330  0.85690  1.0000 0.1022762259
H   H25       1.0  0.97890  0.63280  0.39120  1.0000 0.1022762259
H   H26       1.0  0.02110  0.13280  0.10880  1.0000 0.1022762259
H   H27       1.0  0.02110  0.36720  0.60880  1.0000 0.1022762259
H   H28       1.0  0.97890  0.86720  0.89120  1.0000 0.1022762259
H   H29       1.0  0.89350  0.75840  0.25700  1.0000 0.1224753273
H   H30       1.0  0.10650  0.25840  0.24300  1.0000 0.1224753273
H   H31       1.0  0.10650  0.24160  0.74300  1.0000 0.1224753273
H   H32       1.0  0.89350  0.74160  0.75700  1.0000 0.1224753273
C   C1        1.0  0.58160  0.70400  0.72880  1.0000 0.0264214196
C   C2        1.0  0.41840  0.20400  0.77120  1.0000 0.0264214196
C   C3        1.0  0.41840  0.29600  0.27120  1.0000 0.0264214196
C   C4        1.0  0.58160  0.79600  0.22880  1.0000 0.0264214196
C   C5        1.0  0.64630  0.68830  0.84620  1.0000 -0.1798689316
C   C6        1.0  0.35370  0.18830  0.65380  1.0000 -0.1798689316
C   C7        1.0  0.35370  0.31170  0.15380  1.0000 -0.1798689316
C   C8        1.0  0.64630  0.81170  0.34620  1.0000 -0.1798689316
C   C9        1.0  0.68480  0.77160  0.91850  1.0000 0.0674097178
C   C10       1.0  0.31520  0.27160  0.58150  1.0000 0.0674097178
C   C11       1.0  0.31520  0.22840  0.08150  1.0000 0.0674097178
C   C12       1.0  0.68480  0.72840  0.41850  1.0000 0.0674097178
C   C13       1.0  0.60660  0.88370  0.76770  1.0000 0.1022762259
C   C14       1.0  0.39340  0.38370  0.73230  1.0000 0.1022762259
C   C15       1.0  0.39340  0.11630  0.23230  1.0000 0.1022762259
C   C16       1.0  0.60660  0.61630  0.26770  1.0000 0.1022762259
C   C17       1.0  0.55880  0.80370  0.68930  1.0000 -0.1798689316
C   C18       1.0  0.44120  0.30370  0.81070  1.0000 -0.1798689316
C   C19       1.0  0.44120  0.19630  0.31070  1.0000 -0.1798689316
C   C20       1.0  0.55880  0.69630  0.18930  1.0000 -0.1798689316
C   C21       1.0  0.53670  0.61520  0.64630  1.0000 0.5466230375
C   C22       1.0  0.46330  0.11520  0.85370  1.0000 0.5466230375
C   C23       1.0  0.46330  0.38480  0.35370  1.0000 0.5466230375
C   C24       1.0  0.53670  0.88480  0.14630  1.0000 0.5466230375
C   C25       1.0  0.08070  0.80470  0.23120  1.0000 0.0264214196
C   C26       1.0  0.91930  0.30470  0.26880  1.0000 0.0264214196
C   C27       1.0  0.91930  0.19530  0.76880  1.0000 0.0264214196
C   C28       1.0  0.08070  0.69530  0.73120  1.0000 0.0264214196
C   C29       1.0  0.22100  0.78450  0.26300  1.0000 -0.1635765719
C   C30       1.0  0.77900  0.28450  0.23700  1.0000 -0.1635765719
C   C31       1.0  0.77900  0.21550  0.73700  1.0000 -0.1635765719
C   C32       1.0  0.22100  0.71550  0.76300  1.0000 -0.1635765719
C   C33       1.0  0.26100  0.70160  0.33600  1.0000 0.0802563944
C   C34       1.0  0.73900  0.20160  0.16400  1.0000 0.0802563944
C   C35       1.0  0.73900  0.29840  0.66400  1.0000 0.0802563944
C   C36       1.0  0.26100  0.79840  0.83600  1.0000 0.0802563944
C   C37       1.0  0.03970  0.66830  0.35460  1.0000 0.0802563944
C   C38       1.0  0.96030  0.16830  0.14540  1.0000 0.0802563944
C   C39       1.0  0.96030  0.33170  0.64540  1.0000 0.0802563944
C   C40       1.0  0.03970  0.83170  0.85460  1.0000 0.0802563944
C   C41       1.0  0.98830  0.74590  0.27740  1.0000 -0.1526616948
C   C42       1.0  0.01170  0.24590  0.22260  1.0000 -0.1526616948
C   C43       1.0  0.01170  0.25410  0.72260  1.0000 -0.1526616948
C   C44       1.0  0.98830  0.75410  0.77740  1.0000 -0.1526616948
C   C45       1.0  0.03040  0.89080  0.14710  1.0000 0.5743961794
C   C46       1.0  0.96960  0.39080  0.35290  1.0000 0.5743961794
C   C47       1.0  0.96960  0.10920  0.85290  1.0000 0.5743961794
C   C48       1.0  0.03040  0.60920  0.64710  1.0000 0.5743961794
N   N1        1.0  0.66830  0.86760  0.87840  1.0000 -0.2300781819
N   N2        1.0  0.33170  0.36760  0.62160  1.0000 -0.2300781819
N   N3        1.0  0.33170  0.13240  0.12160  1.0000 -0.2300781819
N   N4        1.0  0.66830  0.63240  0.37840  1.0000 -0.2300781819
N   N5        1.0  0.17460  0.64230  0.37870  1.0000 -0.2300781819
N   N6        1.0  0.82540  0.14230  0.12130  1.0000 -0.2300781819
N   N7        1.0  0.82540  0.35770  0.62130  1.0000 -0.2300781819
N   N8        1.0  0.17460  0.85770  0.87870  1.0000 -0.2300781819
O   O1        1.0  0.41630  0.62050  0.58740  1.0000 -0.558733544
O   O2        1.0  0.58370  0.12050  0.91260  1.0000 -0.558733544
O   O3        1.0  0.58370  0.37950  0.41260  1.0000 -0.558733544
O   O4        1.0  0.41630  0.87950  0.08740  1.0000 -0.558733544
O   O5        1.0  0.61920  0.54380  0.64730  1.0000 -0.5494436758
O   O6        1.0  0.38080  0.04380  0.85270  1.0000 -0.5494436758
O   O7        1.0  0.38080  0.45620  0.35270  1.0000 -0.5494436758
O   O8        1.0  0.61920  0.95620  0.14730  1.0000 -0.5494436758
O   O9        1.0  0.90360  0.89220  0.10580  1.0000 -0.558733544
O   O10       1.0  0.09640  0.39220  0.39420  1.0000 -0.558733544
O   O11       1.0  0.09640  0.10780  0.89420  1.0000 -0.558733544
O   O12       1.0  0.90360  0.60780  0.60580  1.0000 -0.558733544
O   O13       1.0  0.11790  0.95360  0.12720  1.0000 -0.5689426201
O   O14       1.0  0.88210  0.45360  0.37280  1.0000 -0.5689426201
O   O15       1.0  0.88210  0.04640  0.87280  1.0000 -0.5689426201
O   O16       1.0  0.11790  0.54640  0.62720  1.0000 -0.5689426201
