# DDEC6 charges by PACMAN v1.1 (https://github.com/mtap-research/PACMAN-charge/)
data_2014[Zn][cds]3[FSR]2
_chemical_formula_sum              "Zn6 H56 C80 N12 O28"
_cell_length_a       14.7949
_cell_length_b       14.7949
_cell_length_c       13.4867
_cell_angle_alpha    72.4444
_cell_angle_beta     107.556
_cell_angle_gamma    64.1207

_symmetry_space_group_name_H-M    "P 1"
_symmetry_Int_Tables_number       1

loop_
  _symmetry_equiv_pos_as_xyz
  'x, y, z'

loop_
  _atom_site_type_symbol
  _atom_site_label
  _atom_site_symmetry_multiplicity
  _atom_site_fract_x
  _atom_site_fract_y
  _atom_site_fract_z
  _atom_site_occupancy
  _atom_site_charge
Zn  Zn1       1.0  0.50000  0.50000  0.00000  1.0000 0.8723351292
Zn  Zn2       1.0  0.50000  0.50000  0.50000  1.0000 0.8723351292
Zn  Zn3       1.0  0.63373  0.26345  0.27458  1.0000 0.8511367373
Zn  Zn4       1.0  0.26345  0.63373  0.22542  1.0000 0.8511367373
Zn  Zn5       1.0  0.36627  0.73655  0.72542  1.0000 0.8511367373
Zn  Zn6       1.0  0.73655  0.36627  0.77458  1.0000 0.8511367373
H   H1        1.0  0.44410  0.43370  0.15720  1.0000 0.3727849952
H   H2        1.0  0.43370  0.44410  0.34280  1.0000 0.3727849952
H   H3        1.0  0.55590  0.56630  0.84280  1.0000 0.3727849952
H   H4        1.0  0.56630  0.55590  0.65720  1.0000 0.3727849952
H   H5        1.0  0.03700  0.77800  0.61480  1.0000 0.1393066875
H   H6        1.0  0.77800  0.03700  0.88520  1.0000 0.1393066875
H   H7        1.0  0.96300  0.22200  0.38520  1.0000 0.1393066875
H   H8        1.0  0.22200  0.96300  0.11480  1.0000 0.1393066875
H   H9        1.0  0.85900  0.69920  0.75220  1.0000 0.1300280871
H   H10       1.0  0.69920  0.85900  0.74780  1.0000 0.1300280871
H   H11       1.0  0.14100  0.30080  0.24780  1.0000 0.1300280871
H   H12       1.0  0.30080  0.14100  0.25220  1.0000 0.1300280871
H   H13       1.0  0.00380  0.62520  0.94550  1.0000 0.1231544931
H   H14       1.0  0.62520  0.00380  0.55450  1.0000 0.1231544931
H   H15       1.0  0.99620  0.37480  0.05450  1.0000 0.1231544931
H   H16       1.0  0.37480  0.99620  0.44550  1.0000 0.1231544931
H   H17       1.0  0.35500  0.39400  0.98690  1.0000 0.1137818403
H   H18       1.0  0.39400  0.35500  0.51310  1.0000 0.1137818403
H   H19       1.0  0.64500  0.60600  0.01310  1.0000 0.1137818403
H   H20       1.0  0.60600  0.64500  0.48690  1.0000 0.1137818403
H   H21       1.0  0.33540  0.26760  0.93680  1.0000 0.1231544931
H   H22       1.0  0.26760  0.33540  0.56320  1.0000 0.1231544931
H   H23       1.0  0.66460  0.73240  0.06320  1.0000 0.1231544931
H   H24       1.0  0.73240  0.66460  0.43680  1.0000 0.1231544931
H   H25       1.0  0.57440  0.22500  0.83740  1.0000 0.1300280871
H   H26       1.0  0.22500  0.57440  0.66260  1.0000 0.1300280871
H   H27       1.0  0.42560  0.77500  0.16260  1.0000 0.1300280871
H   H28       1.0  0.77500  0.42560  0.33740  1.0000 0.1300280871
H   H29       1.0  0.58450  0.35590  0.88700  1.0000 0.1137818403
H   H30       1.0  0.35590  0.58450  0.61300  1.0000 0.1137818403
H   H31       1.0  0.41550  0.64410  0.11300  1.0000 0.1137818403
H   H32       1.0  0.64410  0.41550  0.38700  1.0000 0.1137818403
H   H33       1.0  0.49740  0.11320  0.82010  1.0000 0.1137818403
H   H34       1.0  0.11320  0.49740  0.67990  1.0000 0.1137818403
H   H35       1.0  0.50260  0.88680  0.17990  1.0000 0.1137818403
H   H36       1.0  0.88680  0.50260  0.32010  1.0000 0.1137818403
H   H37       1.0  0.32850  0.14490  0.87750  1.0000 0.1137818403
H   H38       1.0  0.14490  0.32850  0.62250  1.0000 0.1137818403
H   H39       1.0  0.67150  0.85510  0.12250  1.0000 0.1137818403
H   H40       1.0  0.85510  0.67150  0.37750  1.0000 0.1137818403
H   H41       1.0  0.25070  0.89450  0.81220  1.0000 0.1137818403
H   H42       1.0  0.89450  0.25070  0.68780  1.0000 0.1137818403
H   H43       1.0  0.74930  0.10550  0.18780  1.0000 0.1137818403
H   H44       1.0  0.10550  0.74930  0.31220  1.0000 0.1137818403
H   H45       1.0  0.25650  0.02710  0.86180  1.0000 0.1300280871
H   H46       1.0  0.02710  0.25650  0.63820  1.0000 0.1300280871
H   H47       1.0  0.74350  0.97290  0.13820  1.0000 0.1300280871
H   H48       1.0  0.97290  0.74350  0.36180  1.0000 0.1300280871
H   H49       1.0  0.49110  0.99470  0.76050  1.0000 0.1231544931
H   H50       1.0  0.99470  0.49110  0.73950  1.0000 0.1231544931
H   H51       1.0  0.50890  0.00530  0.23950  1.0000 0.1231544931
H   H52       1.0  0.00530  0.50890  0.26050  1.0000 0.1231544931
H   H53       1.0  0.48310  0.85890  0.71840  1.0000 0.1137818403
H   H54       1.0  0.85890  0.48310  0.78160  1.0000 0.1137818403
H   H55       1.0  0.51690  0.14110  0.28160  1.0000 0.1137818403
H   H56       1.0  0.14110  0.51690  0.21840  1.0000 0.1137818403
C   C1        1.0  0.10710  0.65790  0.89670  1.0000 0.0072439385
C   C2        1.0  0.65790  0.10710  0.60330  1.0000 0.0072439385
C   C3        1.0  0.89290  0.34210  0.10330  1.0000 0.0072439385
C   C4        1.0  0.34210  0.89290  0.39670  1.0000 0.0072439385
C   C5        1.0  0.11890  0.70050  0.79710  1.0000 -0.0365263878
C   C6        1.0  0.70050  0.11890  0.70290  1.0000 -0.0365263878
C   C7        1.0  0.88110  0.29950  0.20290  1.0000 -0.0365263878
C   C8        1.0  0.29950  0.88110  0.29710  1.0000 -0.0365263878
C   C9        1.0  0.03150  0.74650  0.68170  1.0000 -0.1575879522
C   C10       1.0  0.74650  0.03150  0.81830  1.0000 -0.1575879522
C   C11       1.0  0.96850  0.25350  0.31830  1.0000 -0.1575879522
C   C12       1.0  0.25350  0.96850  0.18170  1.0000 -0.1575879522
C   C13       1.0  0.93680  0.74420  0.66850  1.0000 0.0553565926
C   C14       1.0  0.74420  0.93680  0.83150  1.0000 0.0553565926
C   C15       1.0  0.06320  0.25580  0.33150  1.0000 0.0553565926
C   C16       1.0  0.25580  0.06320  0.16850  1.0000 0.0553565926
C   C17       1.0  0.92380  0.70000  0.76390  1.0000 -0.1527722843
C   C18       1.0  0.70000  0.92380  0.73610  1.0000 -0.1527722843
C   C19       1.0  0.07620  0.30000  0.23610  1.0000 -0.1527722843
C   C20       1.0  0.30000  0.07620  0.26390  1.0000 -0.1527722843
C   C21       1.0  0.01067  0.65607  0.87930  1.0000 -0.1206330408
C   C22       1.0  0.65607  0.01067  0.62070  1.0000 -0.1206330408
C   C23       1.0  0.98933  0.34393  0.12070  1.0000 -0.1206330408
C   C24       1.0  0.34393  0.98933  0.37930  1.0000 -0.1206330408
C   C25       1.0  0.19440  0.61180  0.02490  1.0000 0.5717412762
C   C26       1.0  0.61180  0.19440  0.47510  1.0000 0.5717412762
C   C27       1.0  0.80560  0.38820  0.97510  1.0000 0.5717412762
C   C28       1.0  0.38820  0.80560  0.52490  1.0000 0.5717412762
C   C29       1.0  0.22810  0.69350  0.81350  1.0000 0.5753557614
C   C30       1.0  0.69350  0.22810  0.68650  1.0000 0.5753557614
C   C31       1.0  0.77190  0.30650  0.18650  1.0000 0.5753557614
C   C32       1.0  0.30650  0.77190  0.31350  1.0000 0.5753557614
C   C33       1.0  0.39900  0.36000  0.95550  1.0000 0.0794305194
C   C34       1.0  0.36000  0.39900  0.54450  1.0000 0.0794305194
C   C35       1.0  0.60100  0.64000  0.04450  1.0000 0.0794305194
C   C36       1.0  0.64000  0.60100  0.45550  1.0000 0.0794305194
C   C37       1.0  0.38750  0.28330  0.92670  1.0000 -0.2028336593
C   C38       1.0  0.28330  0.38750  0.57330  1.0000 -0.2028336593
C   C39       1.0  0.61250  0.71670  0.07330  1.0000 -0.2028336593
C   C40       1.0  0.71670  0.61250  0.42670  1.0000 -0.2028336593
C   C41       1.0  0.45410  0.22850  0.88210  1.0000 0.1586014915
C   C42       1.0  0.22850  0.45410  0.61790  1.0000 0.1586014915
C   C43       1.0  0.54590  0.77150  0.11790  1.0000 0.1586014915
C   C44       1.0  0.77150  0.54590  0.38210  1.0000 0.1586014915
C   C45       1.0  0.52850  0.25870  0.86750  1.0000 -0.2073844403
C   C46       1.0  0.25870  0.52850  0.63250  1.0000 -0.2073844403
C   C47       1.0  0.47150  0.74130  0.13250  1.0000 -0.2073844403
C   C48       1.0  0.74130  0.47150  0.36750  1.0000 -0.2073844403
C   C49       1.0  0.53430  0.33750  0.89740  1.0000 0.0996599651
C   C50       1.0  0.33750  0.53430  0.60260  1.0000 0.0996599651
C   C51       1.0  0.46570  0.66250  0.10260  1.0000 0.0996599651
C   C52       1.0  0.66250  0.46570  0.39740  1.0000 0.0996599651
C   C53       1.0  0.44800  0.14540  0.84740  1.0000 -0.1575879522
C   C54       1.0  0.14540  0.44800  0.65260  1.0000 -0.1527722843
C   C55       1.0  0.55200  0.85460  0.15260  1.0000 -0.1575879522
C   C56       1.0  0.85460  0.55200  0.34740  1.0000 -0.1527722843
C   C57       1.0  0.37890  0.11190  0.85120  1.0000 -0.1371372708
C   C58       1.0  0.11190  0.37890  0.64880  1.0000 -0.1371372708
C   C59       1.0  0.62110  0.88810  0.14880  1.0000 -0.1371372708
C   C60       1.0  0.88810  0.62110  0.35120  1.0000 -0.1371372708
C   C61       1.0  0.30080  0.91380  0.80270  1.0000 0.0947605453
C   C62       1.0  0.91380  0.30080  0.69730  1.0000 0.0947605453
C   C63       1.0  0.69920  0.08620  0.19730  1.0000 0.0947605453
C   C64       1.0  0.08620  0.69920  0.30270  1.0000 0.0947605453
C   C65       1.0  0.30330  0.99450  0.83210  1.0000 -0.1901658077
C   C66       1.0  0.99450  0.30330  0.66790  1.0000 -0.1901658077
C   C67       1.0  0.69670  0.00550  0.16790  1.0000 -0.1901658077
C   C68       1.0  0.00550  0.69670  0.33210  1.0000 -0.1901658077
C   C69       1.0  0.37430  0.02730  0.81790  1.0000 0.1586014915
C   C70       1.0  0.02730  0.37430  0.68210  1.0000 0.1586014915
C   C71       1.0  0.62570  0.97270  0.18210  1.0000 0.1586014915
C   C72       1.0  0.97270  0.62570  0.31790  1.0000 0.1586014915
C   C73       1.0  0.44230  0.97490  0.77290  1.0000 -0.1901658077
C   C74       1.0  0.97490  0.44230  0.72710  1.0000 -0.1901658077
C   C75       1.0  0.55770  0.02510  0.22710  1.0000 -0.1901658077
C   C76       1.0  0.02510  0.55770  0.27290  1.0000 -0.1901658077
C   C77       1.0  0.43640  0.89360  0.74720  1.0000 0.0726557176
C   C78       1.0  0.89360  0.43640  0.75280  1.0000 0.0726557176
C   C79       1.0  0.56360  0.10640  0.25280  1.0000 0.0726557176
C   C80       1.0  0.10640  0.56360  0.24720  1.0000 0.0726557176
N   N1        1.0  0.84620  0.78840  0.54770  1.0000 0.4886748276
N   N2        1.0  0.78840  0.84620  0.95230  1.0000 0.4886748276
N   N3        1.0  0.15380  0.21160  0.45230  1.0000 0.4886748276
N   N4        1.0  0.21160  0.15380  0.04770  1.0000 0.4886748276
N   N5        1.0  0.47026  0.38926  0.94090  1.0000 -0.2348639437
N   N6        1.0  0.38926  0.47026  0.55910  1.0000 -0.2348639437
N   N7        1.0  0.52974  0.61074  0.05910  1.0000 -0.2348639437
N   N8        1.0  0.61074  0.52974  0.44090  1.0000 -0.2348639437
N   N9        1.0  0.36649  0.86189  0.76150  1.0000 -0.2501236864
N   N10       1.0  0.86189  0.36649  0.73850  1.0000 -0.2501236864
N   N11       1.0  0.63351  0.13811  0.23850  1.0000 -0.2501236864
N   N12       1.0  0.13811  0.63351  0.26150  1.0000 -0.2501236864
O   O1        1.0  0.18841  0.69021  0.05020  1.0000 -0.5412329727
O   O2        1.0  0.69021  0.18841  0.44980  1.0000 -0.5412329727
O   O3        1.0  0.81159  0.30979  0.94980  1.0000 -0.5412329727
O   O4        1.0  0.30979  0.81159  0.55020  1.0000 -0.5412329727
O   O5        1.0  0.25744  0.50724  0.09720  1.0000 -0.5412329727
O   O6        1.0  0.50724  0.25744  0.40280  1.0000 -0.5412329727
O   O7        1.0  0.74256  0.49276  0.90280  1.0000 -0.5412329727
O   O8        1.0  0.49276  0.74256  0.59720  1.0000 -0.5412329727
O   O9        1.0  0.31323  0.62963  0.91680  1.0000 -0.5223673649
O   O10       1.0  0.62963  0.31323  0.58320  1.0000 -0.5223673649
O   O11       1.0  0.68677  0.37037  0.08320  1.0000 -0.5223673649
O   O12       1.0  0.37037  0.68677  0.41680  1.0000 -0.5223673649
O   O13       1.0  0.22487  0.75087  0.71930  1.0000 -0.5341479547
O   O14       1.0  0.75087  0.22487  0.78070  1.0000 -0.5341479547
O   O15       1.0  0.77513  0.24913  0.28070  1.0000 -0.5341479547
O   O16       1.0  0.24913  0.77513  0.21930  1.0000 -0.5341479547
O   O17       1.0  0.86270  0.81630  0.46530  1.0000 -0.2908262529
O   O18       1.0  0.81630  0.86270  0.03470  1.0000 -0.2908262529
O   O19       1.0  0.13730  0.18370  0.53470  1.0000 -0.2908262529
O   O20       1.0  0.18370  0.13730  0.96530  1.0000 -0.2908262529
O   O21       1.0  0.75840  0.79520  0.53420  1.0000 -0.2987269231
O   O22       1.0  0.79520  0.75840  0.96580  1.0000 -0.2987269231
O   O23       1.0  0.24160  0.20480  0.46580  1.0000 -0.2987269231
O   O24       1.0  0.20480  0.24160  0.03420  1.0000 -0.2987269231
O   O25       1.0  0.50649  0.41789  0.15690  1.0000 -0.8398080536
O   O26       1.0  0.41789  0.50649  0.34310  1.0000 -0.8398080536
O   O27       1.0  0.49351  0.58211  0.84310  1.0000 -0.8398080536
O   O28       1.0  0.58211  0.49351  0.65690  1.0000 -0.8398080536
