# DDEC6 charges by PACMAN v1.1 (https://github.com/mtap-research/PACMAN-charge/)
data_2014[CrMn][nan]3[FSR]1
_chemical_formula_sum              "Mn4 Cr6 C36 O72"
_cell_length_a       18.3355
_cell_length_b       18.3355
_cell_length_c       16.246
_cell_angle_alpha    89.1725
_cell_angle_beta     90.8275
_cell_angle_gamma    27.8807

_symmetry_space_group_name_H-M    "P 1"
_symmetry_Int_Tables_number       1

loop_
  _symmetry_equiv_pos_as_xyz
  'x, y, z'

loop_
  _atom_site_type_symbol
  _atom_site_label
  _atom_site_symmetry_multiplicity
  _atom_site_fract_x
  _atom_site_fract_y
  _atom_site_fract_z
  _atom_site_occupancy
  _atom_site_charge
Mn  Mn1       1.0  0.55052  0.55052  0.75000  1.0000 1.0339411194
Mn  Mn2       1.0  0.44948  0.44948  0.25000  1.0000 1.0385102922
Mn  Mn3       1.0  0.30534  0.30534  0.75000  1.0000 1.0385102922
Mn  Mn4       1.0  0.69466  0.69466  0.25000  1.0000 1.0385102922
Cr  Cr1       1.0  0.61072  0.24360  0.56474  1.0000 1.3640010054
Cr  Cr2       1.0  0.24360  0.61072  0.93526  1.0000 1.3640010054
Cr  Cr3       1.0  0.38928  0.75640  0.43526  1.0000 1.3640010054
Cr  Cr4       1.0  0.75640  0.38928  0.06474  1.0000 1.3640010054
Cr  Cr5       1.0  0.70883  0.70883  0.75000  1.0000 1.316264003
Cr  Cr6       1.0  0.29117  0.29117  0.25000  1.0000 1.316264003
C   C1        1.0  0.97510  0.54670  0.70700  1.0000 0.5208272333
C   C2        1.0  0.54670  0.97510  0.79300  1.0000 0.5208272333
C   C3        1.0  0.02490  0.45330  0.29300  1.0000 0.5208272333
C   C4        1.0  0.45330  0.02490  0.20700  1.0000 0.5208272333
C   C5        1.0  0.54630  0.20530  0.69010  1.0000 0.4983532821
C   C6        1.0  0.20530  0.54630  0.80990  1.0000 0.4983532821
C   C7        1.0  0.45370  0.79470  0.30990  1.0000 0.4983532821
C   C8        1.0  0.79470  0.45370  0.19010  1.0000 0.4983532821
C   C9        1.0  0.44729  0.26809  0.61330  1.0000 0.5077455754
C   C10       1.0  0.26809  0.44729  0.88670  1.0000 0.5077455754
C   C11       1.0  0.55271  0.73191  0.38670  1.0000 0.5077455754
C   C12       1.0  0.73191  0.55271  0.11330  1.0000 0.5077455754
C   C13       1.0  0.47706  0.47866  0.63980  1.0000 0.4983532821
C   C14       1.0  0.47866  0.47706  0.86020  1.0000 0.4983532821
C   C15       1.0  0.52294  0.52134  0.36020  1.0000 0.4983532821
C   C16       1.0  0.52134  0.52294  0.13980  1.0000 0.4983532821
C   C17       1.0  0.65149  0.34309  0.63480  1.0000 0.5077455754
C   C18       1.0  0.34309  0.65149  0.86520  1.0000 0.5077455754
C   C19       1.0  0.34851  0.65691  0.36520  1.0000 0.5077455754
C   C20       1.0  0.65691  0.34851  0.13480  1.0000 0.5077455754
C   C21       1.0  0.66202  0.20342  0.40020  1.0000 0.5077455754
C   C22       1.0  0.20342  0.66202  0.09980  1.0000 0.5077455754
C   C23       1.0  0.33798  0.79658  0.59980  1.0000 0.5077455754
C   C24       1.0  0.79658  0.33798  0.90020  1.0000 0.5077455754
C   C25       1.0  0.80290  0.03710  0.44180  1.0000 0.5077455754
C   C26       1.0  0.03710  0.80290  0.05820  1.0000 0.5077455754
C   C27       1.0  0.19710  0.96290  0.55820  1.0000 0.5077455754
C   C28       1.0  0.96290  0.19710  0.94180  1.0000 0.5077455754
C   C29       1.0  0.67602  0.59202  0.70950  1.0000 0.4983532821
C   C30       1.0  0.59202  0.67602  0.79050  1.0000 0.4983532821
C   C31       1.0  0.32398  0.40798  0.29050  1.0000 0.4983532821
C   C32       1.0  0.40798  0.32398  0.20950  1.0000 0.4983532821
C   C33       1.0  0.02147  0.46187  0.78740  1.0000 0.5077455754
C   C34       1.0  0.46187  0.02147  0.71260  1.0000 0.5077455754
C   C35       1.0  0.97853  0.53813  0.21260  1.0000 0.5077455754
C   C36       1.0  0.53813  0.97853  0.28740  1.0000 0.5077455754
O   O1        1.0  0.83363  0.66183  0.67880  1.0000 -0.5009825533
O   O2        1.0  0.66183  0.83363  0.82120  1.0000 -0.5009825533
O   O3        1.0  0.16637  0.33817  0.32120  1.0000 -0.5009825533
O   O4        1.0  0.33817  0.16637  0.17880  1.0000 -0.5009825533
O   O5        1.0  0.07341  0.49901  0.67690  1.0000 -0.3294949735
O   O6        1.0  0.49901  0.07341  0.82310  1.0000 -0.3294949735
O   O7        1.0  0.92659  0.50099  0.32310  1.0000 -0.3410953438
O   O8        1.0  0.50099  0.92659  0.17690  1.0000 -0.3410953438
O   O9        1.0  0.91499  0.51319  0.81230  1.0000 -0.4894801026
O   O10       1.0  0.51319  0.91499  0.68770  1.0000 -0.4894801026
O   O11       1.0  0.08501  0.48681  0.18770  1.0000 -0.4894801026
O   O12       1.0  0.48681  0.08501  0.31230  1.0000 -0.4894801026
O   O13       1.0  0.73217  0.60237  0.67970  1.0000 -0.4894801026
O   O14       1.0  0.60237  0.73217  0.82030  1.0000 -0.4894801026
O   O15       1.0  0.26783  0.39763  0.32030  1.0000 -0.4894801026
O   O16       1.0  0.39763  0.26783  0.17970  1.0000 -0.4894801026
O   O17       1.0  0.35577  0.29777  0.62170  1.0000 -0.3709812527
O   O18       1.0  0.29777  0.35577  0.87830  1.0000 -0.3709812527
O   O19       1.0  0.64423  0.70223  0.37830  1.0000 -0.3709812527
O   O20       1.0  0.70223  0.64423  0.12170  1.0000 -0.3709812527
O   O21       1.0  0.53009  0.18709  0.75640  1.0000 -0.4001274263
O   O22       1.0  0.18709  0.53009  0.74360  1.0000 -0.4001274263
O   O23       1.0  0.46991  0.81291  0.24360  1.0000 -0.4001274263
O   O24       1.0  0.81291  0.46991  0.25640  1.0000 -0.4001274263
O   O25       1.0  0.47281  0.28041  0.54660  1.0000 -0.4687859123
O   O26       1.0  0.28041  0.47281  0.95340  1.0000 -0.4687859123
O   O27       1.0  0.52719  0.71959  0.45340  1.0000 -0.4687859123
O   O28       1.0  0.71959  0.52719  0.04660  1.0000 -0.4687859123
O   O29       1.0  0.64427  0.17027  0.67610  1.0000 -0.4791033161
O   O30       1.0  0.17027  0.64427  0.82390  1.0000 -0.4791033161
O   O31       1.0  0.35573  0.82973  0.32390  1.0000 -0.4791033161
O   O32       1.0  0.82973  0.35573  0.17610  1.0000 -0.4791033161
O   O33       1.0  0.43401  0.45761  0.60210  1.0000 -0.4894801026
O   O34       1.0  0.45761  0.43401  0.89790  1.0000 -0.4894801026
O   O35       1.0  0.56599  0.54239  0.39790  1.0000 -0.4894801026
O   O36       1.0  0.54239  0.56599  0.10210  1.0000 -0.4894801026
O   O37       1.0  0.73194  0.22414  0.59720  1.0000 -0.4894801026
O   O38       1.0  0.22414  0.73194  0.90280  1.0000 -0.4894801026
O   O39       1.0  0.26806  0.77586  0.40280  1.0000 -0.4894801026
O   O40       1.0  0.77586  0.26806  0.09720  1.0000 -0.4894801026
O   O41       1.0  0.79383  0.03483  0.51960  1.0000 -0.4791033161
O   O42       1.0  0.03483  0.79383  0.98040  1.0000 -0.4791033161
O   O43       1.0  0.20617  0.96517  0.48040  1.0000 -0.4791033161
O   O44       1.0  0.96517  0.20617  0.01960  1.0000 -0.4791033161
O   O45       1.0  0.56763  0.31323  0.44990  1.0000 -0.4894801026
O   O46       1.0  0.31323  0.56763  0.05010  1.0000 -0.4894801026
O   O47       1.0  0.43237  0.68677  0.55010  1.0000 -0.4894801026
O   O48       1.0  0.68677  0.43237  0.94990  1.0000 -0.4894801026
O   O49       1.0  0.70500  0.35140  0.66650  1.0000 -0.3507953112
O   O50       1.0  0.35140  0.70500  0.83350  1.0000 -0.3507953112
O   O51       1.0  0.29500  0.64860  0.33350  1.0000 -0.3507953112
O   O52       1.0  0.64860  0.29500  0.16650  1.0000 -0.3507953112
O   O53       1.0  0.39404  0.59224  0.67740  1.0000 -0.3793288049
O   O54       1.0  0.59224  0.39404  0.82260  1.0000 -0.3793288049
O   O55       1.0  0.60596  0.40776  0.32260  1.0000 -0.3793288049
O   O56       1.0  0.40776  0.60596  0.17740  1.0000 -0.3709812527
O   O57       1.0  0.67656  0.53136  0.67800  1.0000 -0.3410953438
O   O58       1.0  0.53136  0.67656  0.82200  1.0000 -0.3410953438
O   O59       1.0  0.32344  0.46864  0.32200  1.0000 -0.3410953438
O   O60       1.0  0.46864  0.32344  0.17800  1.0000 -0.3410953438
O   O61       1.0  0.65076  0.21736  0.32390  1.0000 -0.3793288049
O   O62       1.0  0.21736  0.65076  0.17610  1.0000 -0.3793288049
O   O63       1.0  0.34924  0.78264  0.67610  1.0000 -0.3793288049
O   O64       1.0  0.78264  0.34924  0.82390  1.0000 -0.3793288049
O   O65       1.0  0.90980  0.92040  0.40180  1.0000 -0.3294949735
O   O66       1.0  0.92040  0.90980  0.09820  1.0000 -0.3294949735
O   O67       1.0  0.09020  0.07960  0.59820  1.0000 -0.3294949735
O   O68       1.0  0.07960  0.09020  0.90180  1.0000 -0.3294949735
O   O69       1.0  0.15121  0.35561  0.81890  1.0000 -0.355575115
O   O70       1.0  0.35561  0.15121  0.68110  1.0000 -0.3507953112
O   O71       1.0  0.84879  0.64439  0.18110  1.0000 -0.355575115
O   O72       1.0  0.64439  0.84879  0.31890  1.0000 -0.355575115
