# DDEC6 charges by PACMAN v1.1 (https://github.com/mtap-research/PACMAN-charge/)
data_2014[Mg][nan]3[FSR]3
_chemical_formula_sum              "Mg4 H32 C52 N4 O20"
_cell_length_a       12.5314
_cell_length_b       12.5314
_cell_length_c       13.5313
_cell_angle_alpha    62.5072
_cell_angle_beta     117.493
_cell_angle_gamma    93.0507

_symmetry_space_group_name_H-M    "P 1"
_symmetry_Int_Tables_number       1

loop_
  _symmetry_equiv_pos_as_xyz
  'x, y, z'

loop_
  _atom_site_type_symbol
  _atom_site_label
  _atom_site_symmetry_multiplicity
  _atom_site_fract_x
  _atom_site_fract_y
  _atom_site_fract_z
  _atom_site_occupancy
  _atom_site_charge
Mg  Mg1       1.0  0.80554  0.80554  0.25000  1.0000 1.3573379373
Mg  Mg2       1.0  0.19446  0.19446  0.75000  1.0000 1.3573379373
Mg  Mg3       1.0  0.50000  0.00000  0.00000  1.0000 1.3573379373
Mg  Mg4       1.0  1.00000  0.50000  0.50000  1.0000 1.3573379373
H   H1        1.0  0.63400  0.22400  0.15900  1.0000 0.0929871952
H   H2        1.0  0.22400  0.63400  0.34100  1.0000 0.0929871952
H   H3        1.0  0.36600  0.77600  0.84100  1.0000 0.0929871952
H   H4        1.0  0.77600  0.36600  0.65900  1.0000 0.0929871952
H   H5        1.0  0.75700  0.33700  0.27500  1.0000 0.1222070871
H   H6        1.0  0.33700  0.75700  0.22500  1.0000 0.1222070871
H   H7        1.0  0.24300  0.66300  0.72500  1.0000 0.1222070871
H   H8        1.0  0.66300  0.24300  0.77500  1.0000 0.1222070871
H   H9        1.0  0.95600  0.02600  0.59300  1.0000 0.131548897
H   H10       1.0  0.02600  0.95600  0.90700  1.0000 0.131548897
H   H11       1.0  0.04400  0.97400  0.40700  1.0000 0.131548897
H   H12       1.0  0.97400  0.04400  0.09300  1.0000 0.131548897
H   H13       1.0  0.84000  0.92000  0.48700  1.0000 0.1222070871
H   H14       1.0  0.92000  0.84000  0.01300  1.0000 0.1222070871
H   H15       1.0  0.16000  0.08000  0.51300  1.0000 0.1222070871
H   H16       1.0  0.08000  0.16000  0.98700  1.0000 0.1222070871
H   H17       1.0  0.47300  0.69500  0.13700  1.0000 0.131548897
H   H18       1.0  0.69500  0.47300  0.36300  1.0000 0.131548897
H   H19       1.0  0.52700  0.30500  0.86300  1.0000 0.131548897
H   H20       1.0  0.30500  0.52700  0.63700  1.0000 0.131548897
H   H21       1.0  0.40900  0.55300  0.08800  1.0000 0.141803603
H   H22       1.0  0.55300  0.40900  0.41200  1.0000 0.141803603
H   H23       1.0  0.59100  0.44700  0.91200  1.0000 0.141803603
H   H24       1.0  0.44700  0.59100  0.58800  1.0000 0.141803603
H   H25       1.0  0.64500  0.59900  0.95300  1.0000 0.141803603
H   H26       1.0  0.59900  0.64500  0.54700  1.0000 0.141803603
H   H27       1.0  0.35500  0.40100  0.04700  1.0000 0.141803603
H   H28       1.0  0.40100  0.35500  0.45300  1.0000 0.141803603
H   H29       1.0  0.69300  0.75300  0.00900  1.0000 0.141803603
H   H30       1.0  0.75300  0.69300  0.49100  1.0000 0.141803603
H   H31       1.0  0.30700  0.24700  0.99100  1.0000 0.141803603
H   H32       1.0  0.24700  0.30700  0.50900  1.0000 0.141803603
C   C1        1.0  0.73581  0.05961  0.32250  1.0000 -0.0259222923
C   C2        1.0  0.05961  0.73581  0.17750  1.0000 -0.0259222923
C   C3        1.0  0.26419  0.94039  0.67750  1.0000 -0.0259222923
C   C4        1.0  0.94039  0.26419  0.82250  1.0000 -0.0259222923
C   C5        1.0  0.70690  0.18670  0.25630  1.0000 -0.0983905935
C   C6        1.0  0.18670  0.70690  0.24370  1.0000 -0.0983905935
C   C7        1.0  0.29310  0.81330  0.74370  1.0000 -0.0983905935
C   C8        1.0  0.81330  0.29310  0.75630  1.0000 -0.0983905935
C   C9        1.0  0.77230  0.25330  0.31560  1.0000 -0.1275238985
C   C10       1.0  0.25330  0.77230  0.18440  1.0000 -0.1275238985
C   C11       1.0  0.22770  0.74670  0.68440  1.0000 -0.1275238985
C   C12       1.0  0.74670  0.22770  0.81560  1.0000 -0.1275238985
C   C13       1.0  0.86437  0.19377  0.44140  1.0000 -0.0231187748
C   C14       1.0  0.19377  0.86437  0.05860  1.0000 -0.0231187748
C   C15       1.0  0.13563  0.80623  0.55860  1.0000 -0.0231187748
C   C16       1.0  0.80623  0.13563  0.94140  1.0000 -0.0231187748
C   C17       1.0  0.89100  0.06600  0.50870  1.0000 -0.0983905935
C   C18       1.0  0.06600  0.89100  0.99130  1.0000 -0.0983905935
C   C19       1.0  0.10900  0.93400  0.49130  1.0000 -0.0983905935
C   C20       1.0  0.93400  0.10900  0.00870  1.0000 -0.0983905935
C   C21       1.0  0.82760  0.00040  0.44920  1.0000 -0.0903310472
C   C22       1.0  0.00040  0.82760  0.05080  1.0000 -0.0903310472
C   C23       1.0  0.17240  0.99960  0.55080  1.0000 -0.0903310472
C   C24       1.0  0.99960  0.17240  0.94920  1.0000 -0.0903310472
C   C25       1.0  0.67539  0.98799  0.25490  1.0000 0.6315080082
C   C26       1.0  0.98799  0.67539  0.24510  1.0000 0.6315080082
C   C27       1.0  0.32461  0.01201  0.74510  1.0000 0.6315080082
C   C28       1.0  0.01201  0.32461  0.75490  1.0000 0.6315080082
C   C29       1.0  0.94167  0.26347  0.50560  1.0000 0.6219018554
C   C30       1.0  0.26347  0.94167  0.99440  1.0000 0.6219018554
C   C31       1.0  0.05833  0.73653  0.49440  1.0000 0.6219018554
C   C32       1.0  0.73653  0.05833  0.00560  1.0000 0.6219018554
C   C33       1.0  0.50200  0.67440  0.10240  1.0000 -0.0451064253
C   C34       1.0  0.67440  0.50200  0.39760  1.0000 -0.0451064253
C   C35       1.0  0.49800  0.32560  0.89760  1.0000 -0.0451064253
C   C36       1.0  0.32560  0.49800  0.60240  1.0000 -0.0451064253
C   C37       1.0  0.46820  0.58160  0.07440  1.0000 -0.1921357917
C   C38       1.0  0.58160  0.46820  0.42560  1.0000 -0.1921357917
C   C39       1.0  0.53180  0.41840  0.92560  1.0000 -0.1921357917
C   C40       1.0  0.41840  0.53180  0.57440  1.0000 -0.1921357917
C   C41       1.0  0.51860  0.54920  0.01700  1.0000 0.0991508892
C   C42       1.0  0.54920  0.51860  0.48300  1.0000 0.0991508892
C   C43       1.0  0.48140  0.45080  0.98300  1.0000 0.0991508892
C   C44       1.0  0.45080  0.48140  0.51700  1.0000 0.0991508892
C   C45       1.0  0.60250  0.61610  0.98890  1.0000 -0.1921357917
C   C46       1.0  0.61610  0.60250  0.51110  1.0000 -0.1921357917
C   C47       1.0  0.39750  0.38390  0.01110  1.0000 -0.1921357917
C   C48       1.0  0.38390  0.39750  0.48890  1.0000 -0.1921357917
C   C49       1.0  0.63530  0.70810  0.01970  1.0000 0.0110131927
C   C50       1.0  0.70810  0.63530  0.48030  1.0000 0.0110131927
C   C51       1.0  0.36470  0.29190  0.98030  1.0000 0.0110131927
C   C52       1.0  0.29190  0.36470  0.51970  1.0000 0.0110131927
N   N1        1.0  0.58603  0.73417  0.07720  1.0000 0.3181038356
N   N2        1.0  0.73417  0.58603  0.42280  1.0000 0.3181038356
N   N3        1.0  0.41397  0.26583  0.92280  1.0000 0.3181038356
N   N4        1.0  0.26583  0.41397  0.57720  1.0000 0.3181038356
O   O1        1.0  0.72465  0.87537  0.31360  1.0000 -0.6678779865
O   O2        1.0  0.87537  0.72465  0.18640  1.0000 -0.6678779865
O   O3        1.0  0.27535  0.12463  0.68640  1.0000 -0.6678779865
O   O4        1.0  0.12463  0.27535  0.81360  1.0000 -0.6678779865
O   O5        1.0  0.58308  0.04370  0.14490  1.0000 -0.6248877192
O   O6        1.0  0.04370  0.58308  0.35510  1.0000 -0.6288495463
O   O7        1.0  0.41692  0.95630  0.85510  1.0000 -0.6288495463
O   O8        1.0  0.95630  0.41692  0.64490  1.0000 -0.6288495463
O   O9        1.0  0.02332  0.20038  0.62010  1.0000 -0.6288495463
O   O10       1.0  0.20038  0.02332  0.87990  1.0000 -0.6288495463
O   O11       1.0  0.97668  0.79962  0.37990  1.0000 -0.6288495463
O   O12       1.0  0.79962  0.97668  0.12010  1.0000 -0.6288495463
O   O13       1.0  0.91842  0.37932  0.43860  1.0000 -0.6437418753
O   O14       1.0  0.37932  0.91842  0.06140  1.0000 -0.6437418753
O   O15       1.0  0.08158  0.62068  0.56140  1.0000 -0.6437418753
O   O16       1.0  0.62068  0.08158  0.93860  1.0000 -0.6437418753
O   O17       1.0  0.62118  0.82068  0.11070  1.0000 -0.6035419846
O   O18       1.0  0.82068  0.62118  0.38930  1.0000 -0.6035419846
O   O19       1.0  0.37882  0.17932  0.88930  1.0000 -0.6035419846
O   O20       1.0  0.17932  0.37882  0.61070  1.0000 -0.6035419846
