# DDEC6 charges by PACMAN v1.1 (https://github.com/mtap-research/PACMAN-charge/)
data_2014[Y][nan]3[FSR]1
_chemical_formula_sum              "Y8 H88 C168 N16 O60"
_cell_length_a       21.1239
_cell_length_b       21.1239
_cell_length_c       21.1239
_cell_angle_alpha    93.5497
_cell_angle_beta     93.5497
_cell_angle_gamma    151.184

_symmetry_space_group_name_H-M    "P 1"
_symmetry_Int_Tables_number       1

loop_
  _symmetry_equiv_pos_as_xyz
  'x, y, z'

loop_
  _atom_site_type_symbol
  _atom_site_label
  _atom_site_symmetry_multiplicity
  _atom_site_fract_x
  _atom_site_fract_y
  _atom_site_fract_z
  _atom_site_occupancy
  _atom_site_charge
Y   Y1        1.0  0.42657  0.85214  0.20767  1.0000 1.632776736
Y   Y2        1.0  0.64447  0.21890  0.79233  1.0000 1.632776736
Y   Y3        1.0  0.78110  0.57343  0.42557  1.0000 1.632776736
Y   Y4        1.0  0.14786  0.35553  0.57443  1.0000 1.632776736
Y   Y5        1.0  0.82343  0.53110  0.92557  1.0000 1.632776736
Y   Y6        1.0  0.60553  0.89786  0.07443  1.0000 1.632776736
Y   Y7        1.0  0.46890  0.39447  0.29233  1.0000 1.632776736
Y   Y8        1.0  0.10214  0.17657  0.70767  1.0000 1.632776736
H   H1        1.0  0.34060  0.61570  0.29070  1.0000 0.1282394274
H   H2        1.0  0.32500  0.04990  0.70930  1.0000 0.1282394274
H   H3        1.0  0.95010  0.65940  0.27510  1.0000 0.1282394274
H   H4        1.0  0.38430  0.67500  0.72490  1.0000 0.1282394274
H   H5        1.0  0.90940  0.70010  0.77510  1.0000 0.1282394274
H   H6        1.0  0.92500  0.13430  0.22490  1.0000 0.1282394274
H   H7        1.0  0.29990  0.07500  0.20930  1.0000 0.1282394274
H   H8        1.0  0.86570  0.09060  0.79070  1.0000 0.1282394274
H   H9        1.0  0.32880  0.49650  0.33550  1.0000 0.1391130655
H   H10       1.0  0.16100  0.99330  0.66450  1.0000 0.1391130655
H   H11       1.0  0.00670  0.67120  0.16770  1.0000 0.1391130655
H   H12       1.0  0.50350  0.83900  0.83230  1.0000 0.1391130655
H   H13       1.0  0.92120  0.75670  0.66770  1.0000 0.1391130655
H   H14       1.0  0.08900  0.25350  0.33230  1.0000 0.1391130655
H   H15       1.0  0.24330  0.91100  0.16450  1.0000 0.1391130655
H   H16       1.0  0.74650  0.07880  0.83550  1.0000 0.1391130655
H   H17       1.0  0.22510  0.56900  0.91930  1.0000 0.1463463592
H   H18       1.0  0.64970  0.30580  0.08070  1.0000 0.1463463592
H   H19       1.0  0.69420  0.77490  0.34390  1.0000 0.1463463592
H   H20       1.0  0.43100  0.35030  0.65610  1.0000 0.1463463592
H   H21       1.0  0.02490  0.44420  0.84390  1.0000 0.1463463592
H   H22       1.0  0.60030  0.18100  0.15610  1.0000 0.1463463592
H   H23       1.0  0.55580  0.39970  0.58070  1.0000 0.1463463592
H   H24       1.0  0.81900  0.97510  0.41930  1.0000 0.1463463592
H   H25       1.0  0.57810  0.96710  0.36600  1.0000 0.1208363368
H   H26       1.0  0.60110  0.21210  0.63400  1.0000 0.1208363368
H   H27       1.0  0.78790  0.42190  0.38900  1.0000 0.1208363368
H   H28       1.0  0.03290  0.39890  0.61100  1.0000 0.1208363368
H   H29       1.0  0.67190  0.53790  0.88900  1.0000 0.1208363368
H   H30       1.0  0.64890  0.78290  0.11100  1.0000 0.1208363368
H   H31       1.0  0.46210  0.35110  0.13400  1.0000 0.1208363368
H   H32       1.0  0.21710  0.32810  0.86600  1.0000 0.1208363368
H   H33       1.0  0.54790  0.90730  0.46500  1.0000 0.1282394274
H   H34       1.0  0.44230  0.08290  0.53500  1.0000 0.1282394274
H   H35       1.0  0.91710  0.45210  0.35940  1.0000 0.1282394274
H   H36       1.0  0.09270  0.55770  0.64060  1.0000 0.1282394274
H   H37       1.0  0.70210  0.66710  0.85940  1.0000 0.1282394274
H   H38       1.0  0.80770  0.84270  0.14060  1.0000 0.1282394274
H   H39       1.0  0.33290  0.19230  0.03500  1.0000 0.1282394274
H   H40       1.0  0.15730  0.29790  0.96500  1.0000 0.1282394274
H   H41       1.0  0.33100  0.68830  0.47290  1.0000 0.1208363368
H   H42       1.0  0.21540  0.85810  0.52710  1.0000 0.1208363368
H   H43       1.0  0.14190  0.66900  0.35730  1.0000 0.1208363368
H   H44       1.0  0.31170  0.78460  0.64270  1.0000 0.1208363368
H   H45       1.0  0.91900  0.89190  0.85730  1.0000 0.1208363368
H   H46       1.0  0.03460  0.06170  0.14270  1.0000 0.1208363368
H   H47       1.0  0.10810  0.96540  0.02710  1.0000 0.1208363368
H   H48       1.0  0.93830  0.08100  0.97290  1.0000 0.1208363368
H   H49       1.0  0.08090  0.45490  0.41900  1.0000 0.1391130655
H   H50       1.0  0.03590  0.66190  0.58100  1.0000 0.1391130655
H   H51       1.0  0.33810  0.91910  0.37400  1.0000 0.1391130655
H   H52       1.0  0.54510  0.96410  0.62600  1.0000 0.1391130655
H   H53       1.0  0.16910  0.08810  0.87400  1.0000 0.1391130655
H   H54       1.0  0.21410  0.29510  0.12600  1.0000 0.1391130655
H   H55       1.0  0.91190  0.78590  0.08100  1.0000 0.1391130655
H   H56       1.0  0.70490  0.83090  0.91900  1.0000 0.1391130655
H   H57       1.0  0.90710  0.31320  0.33030  1.0000 0.1391130655
H   H58       1.0  0.98290  0.57680  0.66970  1.0000 0.1391130655
H   H59       1.0  0.42320  0.09290  0.40610  1.0000 0.1391130655
H   H60       1.0  0.68680  0.01710  0.59390  1.0000 0.1391130655
H   H61       1.0  0.34290  0.17320  0.90610  1.0000 0.1391130655
H   H62       1.0  0.26710  0.43680  0.09390  1.0000 0.1391130655
H   H63       1.0  0.82680  0.73290  0.16970  1.0000 0.1391130655
H   H64       1.0  0.56320  0.65710  0.83030  1.0000 0.1391130655
H   H65       1.0  0.82400  0.27220  0.21380  1.0000 0.1391130655
H   H66       1.0  0.05840  0.61020  0.78620  1.0000 0.1391130655
H   H67       1.0  0.38980  0.17600  0.44820  1.0000 0.1391130655
H   H68       1.0  0.72780  0.94160  0.55180  1.0000 0.1391130655
H   H69       1.0  0.42600  0.13980  0.94820  1.0000 0.1391130655
H   H70       1.0  0.19160  0.47780  0.05180  1.0000 0.1391130655
H   H71       1.0  0.86020  0.80840  0.28620  1.0000 0.1391130655
H   H72       1.0  0.52220  0.57400  0.71380  1.0000 0.1391130655
H   H73       1.0  0.87300  0.35610  0.12290  1.0000 0.1282394274
H   H74       1.0  0.23320  0.75010  0.87710  1.0000 0.1282394274
H   H75       1.0  0.24990  0.12700  0.48310  1.0000 0.1282394274
H   H76       1.0  0.64390  0.76680  0.51690  1.0000 0.1282394274
H   H77       1.0  0.37700  0.99990  0.98310  1.0000 0.1282394274
H   H78       1.0  0.01680  0.39390  0.01690  1.0000 0.1282394274
H   H79       1.0  0.00010  0.98320  0.37710  1.0000 0.1282394274
H   H80       1.0  0.60610  0.62300  0.62290  1.0000 0.1282394274
H   H81       1.0  0.09930  0.57280  0.12230  1.0000 0.1208363368
H   H82       1.0  0.45050  0.97700  0.87770  1.0000 0.1208363368
H   H83       1.0  0.02300  0.90070  0.47350  1.0000 0.1208363368
H   H84       1.0  0.42720  0.54950  0.52650  1.0000 0.1208363368
H   H85       1.0  0.15070  0.77300  0.97350  1.0000 0.1208363368
H   H86       1.0  0.79950  0.17720  0.02650  1.0000 0.1208363368
H   H87       1.0  0.22700  0.20050  0.37770  1.0000 0.1208363368
H   H88       1.0  0.82280  0.84930  0.62230  1.0000 0.1208363368
C   C1        1.0  0.44872  0.70894  0.17646  1.0000 0.5788700271
C   C2        1.0  0.53248  0.27226  0.82354  1.0000 0.5788700271
C   C3        1.0  0.72774  0.55128  0.26022  1.0000 0.5788700271
C   C4        1.0  0.29106  0.46752  0.73978  1.0000 0.5788700271
C   C5        1.0  0.80128  0.47774  0.76022  1.0000 0.5788700271
C   C6        1.0  0.71752  0.04106  0.23978  1.0000 0.5788700271
C   C7        1.0  0.52226  0.28248  0.32354  1.0000 0.5788700271
C   C8        1.0  0.95894  0.19872  0.67646  1.0000 0.5788700271
C   C9        1.0  0.41797  0.63587  0.22004  1.0000 0.0484170701
C   C10       1.0  0.41583  0.19793  0.77996  1.0000 0.0484170701
C   C11       1.0  0.80207  0.58203  0.21790  1.0000 0.0484170701
C   C12       1.0  0.36413  0.58417  0.78210  1.0000 0.0484170701
C   C13       1.0  0.83203  0.55207  0.71790  1.0000 0.0484170701
C   C14       1.0  0.83417  0.11413  0.28210  1.0000 0.0484170701
C   C15       1.0  0.44793  0.16583  0.27996  1.0000 0.0484170701
C   C16       1.0  0.88587  0.16797  0.72004  1.0000 0.0484170701
C   C17       1.0  0.36697  0.59963  0.27320  1.0000 -0.1749120218
C   C18       1.0  0.32643  0.09377  0.72680  1.0000 -0.1749120218
C   C19       1.0  0.90623  0.63303  0.23266  1.0000 -0.1749120218
C   C20       1.0  0.40037  0.67357  0.76734  1.0000 -0.1749120218
C   C21       1.0  0.88303  0.65623  0.73266  1.0000 -0.1749120218
C   C22       1.0  0.92357  0.15037  0.26734  1.0000 -0.1749120218
C   C23       1.0  0.34377  0.07643  0.22680  1.0000 -0.1749120218
C   C24       1.0  0.84963  0.11697  0.77320  1.0000 -0.1749120218
C   C25       1.0  0.35974  0.53290  0.29804  1.0000 -0.1806750077
C   C26       1.0  0.23486  0.06170  0.70196  1.0000 -0.1806750077
C   C27       1.0  0.93830  0.64026  0.17316  1.0000 -0.1806750077
C   C28       1.0  0.46710  0.76514  0.82684  1.0000 -0.1806750077
C   C29       1.0  0.89026  0.68830  0.67316  1.0000 -0.1806750077
C   C30       1.0  0.01514  0.21710  0.32684  1.0000 -0.1806750077
C   C31       1.0  0.31170  0.98486  0.20196  1.0000 -0.1806750077
C   C32       1.0  0.78290  0.10974  0.79804  1.0000 -0.1806750077
C   C33       1.0  0.40559  0.53145  0.25784  1.0000 0.0745579877
C   C34       1.0  0.27361  0.14775  0.74216  1.0000 0.0745579877
C   C35       1.0  0.85225  0.59441  0.12586  1.0000 0.0745579877
C   C36       1.0  0.46855  0.72639  0.87414  1.0000 0.0745579877
C   C37       1.0  0.84441  0.60225  0.62586  1.0000 0.0745579877
C   C38       1.0  0.97639  0.21855  0.37414  1.0000 0.0745579877
C   C39       1.0  0.39775  0.02361  0.24216  1.0000 0.0745579877
C   C40       1.0  0.78145  0.15559  0.75784  1.0000 0.0745579877
C   C41       1.0  0.41704  0.47187  0.25951  1.0000 0.5192437384
C   C42       1.0  0.21236  0.15753  0.74049  1.0000 0.5192437384
C   C43       1.0  0.84247  0.58296  0.05483  1.0000 0.5192437384
C   C44       1.0  0.52813  0.78764  0.94517  1.0000 0.5192437384
C   C45       1.0  0.83296  0.59247  0.55483  1.0000 0.5192437384
C   C46       1.0  0.03764  0.27813  0.44517  1.0000 0.5192437384
C   C47       1.0  0.40753  0.96236  0.24049  1.0000 0.5192437384
C   C48       1.0  0.72187  0.16704  0.75951  1.0000 0.5192437384
C   C49       1.0  0.30872  0.70727  0.04799  1.0000 0.5788700271
C   C50       1.0  0.65928  0.26073  0.95201  1.0000 0.5788700271
C   C51       1.0  0.73927  0.69128  0.39855  1.0000 0.5788700271
C   C52       1.0  0.29273  0.34072  0.60145  1.0000 0.5788700271
C   C53       1.0  0.94128  0.48927  0.89855  1.0000 0.5788700271
C   C54       1.0  0.59072  0.04273  0.10145  1.0000 0.5788700271
C   C55       1.0  0.51073  0.40928  0.45201  1.0000 0.5788700271
C   C56       1.0  0.95727  0.05872  0.54799  1.0000 0.5788700271
C   C57       1.0  0.20991  0.63011  0.98542  1.0000 0.0593045086
C   C58       1.0  0.64469  0.22449  0.01458  1.0000 0.0593045086
C   C59       1.0  0.77551  0.79009  0.42020  1.0000 0.0593045086
C   C60       1.0  0.36989  0.35531  0.57980  1.0000 0.0593045086
C   C61       1.0  0.04009  0.52551  0.92020  1.0000 0.0593045086
C   C62       1.0  0.60531  0.11989  0.07980  1.0000 0.0593045086
C   C63       1.0  0.47449  0.39469  0.51458  1.0000 0.0593045086
C   C64       1.0  0.88011  0.95991  0.48542  1.0000 0.0593045086
C   C65       1.0  0.18027  0.56718  0.92885  1.0000 -0.1806750077
C   C66       1.0  0.63833  0.25142  0.07115  1.0000 -0.1806750077
C   C67       1.0  0.74858  0.81973  0.38691  1.0000 -0.1806750077
C   C68       1.0  0.43282  0.36167  0.61309  1.0000 -0.1806750077
C   C69       1.0  0.06973  0.49858  0.88691  1.0000 -0.1806750077
C   C70       1.0  0.61167  0.18282  0.11309  1.0000 -0.1806750077
C   C71       1.0  0.50142  0.38833  0.57115  1.0000 -0.1806750077
C   C72       1.0  0.81718  0.93027  0.42885  1.0000 -0.1806750077
C   C73       1.0  0.49011  0.87766  0.36877  1.0000 0.1208363368
C   C74       1.0  0.50889  0.12134  0.63123  1.0000 0.1208363368
C   C75       1.0  0.87866  0.50989  0.38755  1.0000 0.1208363368
C   C76       1.0  0.12234  0.49111  0.61245  1.0000 0.1208363368
C   C77       1.0  0.75989  0.62866  0.88755  1.0000 0.1208363368
C   C78       1.0  0.74111  0.87234  0.11245  1.0000 0.1208363368
C   C79       1.0  0.37134  0.25889  0.13123  1.0000 0.1208363368
C   C80       1.0  0.12766  0.24011  0.86877  1.0000 0.1208363368
C   C81       1.0  0.47289  0.84300  0.42829  1.0000 -0.1413399953
C   C82       1.0  0.41471  0.04460  0.57171  1.0000 -0.1413399953
C   C83       1.0  0.95540  0.52711  0.37011  1.0000 -0.1413399953
C   C84       1.0  0.15700  0.58529  0.62989  1.0000 -0.1413399953
C   C85       1.0  0.77711  0.70540  0.87011  1.0000 -0.1413399953
C   C86       1.0  0.83529  0.90700  0.12989  1.0000 -0.1413399953
C   C87       1.0  0.29460  0.16471  0.07171  1.0000 -0.1413399953
C   C88       1.0  0.09300  0.22289  0.92829  1.0000 -0.1413399953
C   C89       1.0  0.34482  0.71360  0.43282  1.0000 -0.0906827955
C   C90       1.0  0.28078  0.91200  0.56718  1.0000 -0.0906827955
C   C91       1.0  0.08800  0.65518  0.36878  1.0000 -0.0906827955
C   C92       1.0  0.28640  0.71922  0.63122  1.0000 -0.0906827955
C   C93       1.0  0.90518  0.83800  0.86878  1.0000 -0.0906827955
C   C94       1.0  0.96922  0.03640  0.13122  1.0000 -0.0906827955
C   C95       1.0  0.16200  0.03078  0.06718  1.0000 -0.0906827955
C   C96       1.0  0.96360  0.09482  0.93282  1.0000 -0.0906827955
C   C97       1.0  0.23653  0.62053  0.37886  1.0000 0.0484170701
C   C98       1.0  0.24167  0.85767  0.62114  1.0000 0.0484170701
C   C99       1.0  0.14233  0.76347  0.38400  1.0000 0.0484170701
C   C100      1.0  0.37947  0.75833  0.61600  1.0000 0.0484170701
C   C101      1.0  0.01347  0.89233  0.88400  1.0000 0.0484170701
C   C102      1.0  0.00833  0.12947  0.11600  1.0000 0.0484170701
C   C103      1.0  0.10767  0.99167  0.12114  1.0000 0.0484170701
C   C104      1.0  0.87053  0.98653  0.87886  1.0000 0.0484170701
C   C105      1.0  0.09900  0.48519  0.38019  1.0000 -0.1413399953
C   C106      1.0  0.10500  0.71881  0.61981  1.0000 -0.1413399953
C   C107      1.0  0.28119  0.90100  0.38619  1.0000 -0.1413399953
C   C108      1.0  0.51481  0.89500  0.61381  1.0000 -0.1413399953
C   C109      1.0  0.15100  0.03119  0.88619  1.0000 -0.1413399953
C   C110      1.0  0.14500  0.26481  0.11381  1.0000 -0.1413399953
C   C111      1.0  0.96881  0.85500  0.11981  1.0000 -0.1413399953
C   C112      1.0  0.73519  0.84900  0.88019  1.0000 -0.1413399953
C   C113      1.0  0.99682  0.40178  0.32800  1.0000 -0.1317031312
C   C114      1.0  0.07378  0.66882  0.67200  1.0000 -0.1317031312
C   C115      1.0  0.33118  0.00318  0.40496  1.0000 -0.1317031312
C   C116      1.0  0.59822  0.92622  0.59504  1.0000 -0.1317031312
C   C117      1.0  0.25318  0.08118  0.90496  1.0000 -0.1317031312
C   C118      1.0  0.17622  0.34822  0.09504  1.0000 -0.1317031312
C   C119      1.0  0.91882  0.82378  0.17200  1.0000 -0.1317031312
C   C120      1.0  0.65178  0.74682  0.82800  1.0000 -0.1317031312
C   C121      1.0  0.01966  0.44278  0.26964  1.0000 0.0484170701
C   C122      1.0  0.17314  0.75002  0.73036  1.0000 0.0484170701
C   C123      1.0  0.24998  0.98034  0.42312  1.0000 0.0484170701
C   C124      1.0  0.55722  0.82686  0.57688  1.0000 0.0484170701
C   C125      1.0  0.23034  0.99998  0.92312  1.0000 0.0484170701
C   C126      1.0  0.07686  0.30722  0.07688  1.0000 0.0484170701
C   C127      1.0  0.00002  0.92314  0.23036  1.0000 0.0484170701
C   C128      1.0  0.69278  0.76966  0.76964  1.0000 0.0484170701
C   C129      1.0  0.91520  0.36151  0.21371  1.0000 -0.0906827955
C   C130      1.0  0.14780  0.70149  0.78629  1.0000 -0.0906827955
C   C131      1.0  0.29851  0.08480  0.44631  1.0000 -0.0906827955
C   C132      1.0  0.63849  0.85220  0.55369  1.0000 -0.0906827955
C   C133      1.0  0.33480  0.04851  0.94631  1.0000 -0.0906827955
C   C134      1.0  0.10220  0.38849  0.05369  1.0000 -0.0906827955
C   C135      1.0  0.95149  0.89780  0.28629  1.0000 -0.0906827955
C   C136      1.0  0.61151  0.66520  0.71371  1.0000 -0.0906827955
C   C137      1.0  0.94350  0.40940  0.15990  1.0000 -0.1317031312
C   C138      1.0  0.24950  0.78360  0.84010  1.0000 -0.1317031312
C   C139      1.0  0.21640  0.05650  0.46590  1.0000 -0.1317031312
C   C140      1.0  0.59060  0.75050  0.53410  1.0000 -0.1317031312
C   C141      1.0  0.30650  0.96640  0.96590  1.0000 -0.1317031312
C   C142      1.0  0.00050  0.34060  0.03410  1.0000 -0.1317031312
C   C143      1.0  0.03360  0.99950  0.34010  1.0000 -0.1317031312
C   C144      1.0  0.65940  0.69350  0.65990  1.0000 -0.1317031312
C   C145      1.0  0.07946  0.53973  0.16019  1.0000 0.1119337573
C   C146      1.0  0.37954  0.91927  0.83981  1.0000 0.1119337573
C   C147      1.0  0.08073  0.92054  0.46027  1.0000 0.1119337573
C   C148      1.0  0.46027  0.62046  0.53973  1.0000 0.1119337573
C   C149      1.0  0.17054  0.83073  0.96027  1.0000 0.1119337573
C   C150      1.0  0.87046  0.21027  0.03973  1.0000 0.1119337573
C   C151      1.0  0.16927  0.12954  0.33981  1.0000 0.1119337573
C   C152      1.0  0.78973  0.82946  0.66019  1.0000 0.1119337573
C   C153      1.0  0.15378  0.57411  0.26529  1.0000 0.1208363368
C   C154      1.0  0.30882  0.88849  0.73471  1.0000 0.1208363368
C   C155      1.0  0.11151  0.84622  0.42033  1.0000 0.1208363368
C   C156      1.0  0.42589  0.69118  0.57967  1.0000 0.1208363368
C   C157      1.0  0.09622  0.86151  0.92033  1.0000 0.1208363368
C   C158      1.0  0.94118  0.17589  0.07967  1.0000 0.1208363368
C   C159      1.0  0.13849  0.05882  0.23471  1.0000 0.1208363368
C   C160      1.0  0.82411  0.90378  0.76529  1.0000 0.1208363368
C   C161      1.0  0.26334  0.66438  0.32132  1.0000 0.1119337573
C   C162      1.0  0.34306  0.94202  0.67868  1.0000 0.1119337573
C   C163      1.0  0.05798  0.73666  0.40104  1.0000 0.1119337573
C   C164      1.0  0.33562  0.65694  0.59896  1.0000 0.1119337573
C   C165      1.0  0.98666  0.80798  0.90104  1.0000 0.1119337573
C   C166      1.0  0.90694  0.08562  0.09896  1.0000 0.1119337573
C   C167      1.0  0.19202  0.09306  0.17868  1.0000 0.1119337573
C   C168      1.0  0.91438  0.01334  0.82132  1.0000 0.1119337573
N   N1        1.0  0.38984  0.79177  0.31661  1.0000 -0.2971730543
N   N2        1.0  0.47516  0.07323  0.68339  1.0000 -0.2971730543
N   N3        1.0  0.92677  0.61016  0.40193  1.0000 -0.2971730543
N   N4        1.0  0.20823  0.52484  0.59807  1.0000 -0.2971730543
N   N5        1.0  0.86016  0.67677  0.90193  1.0000 -0.2971730543
N   N6        1.0  0.77484  0.95823  0.09807  1.0000 -0.2971730543
N   N7        1.0  0.32323  0.22516  0.18339  1.0000 -0.2971730543
N   N8        1.0  0.04177  0.13984  0.81661  1.0000 -0.2971730543
N   N9        1.0  0.18232  0.61959  0.21071  1.0000 -0.2971730543
N   N10       1.0  0.40888  0.97161  0.78929  1.0000 -0.2971730543
N   N11       1.0  0.02839  0.81768  0.43727  1.0000 -0.2971730543
N   N12       1.0  0.38041  0.59112  0.56273  1.0000 -0.2971730543
N   N13       1.0  0.06768  0.77839  0.93727  1.0000 -0.2971730543
N   N14       1.0  0.84112  0.13041  0.06273  1.0000 -0.2971730543
N   N15       1.0  0.22161  0.15888  0.28929  1.0000 -0.2971730543
N   N16       1.0  0.86959  0.93232  0.71071  1.0000 -0.2971730543
O   O1        1.0  0.50603  0.74095  0.13238  1.0000 -0.5672512523
O   O2        1.0  0.60857  0.37365  0.86762  1.0000 -0.5672512523
O   O3        1.0  0.62635  0.49397  0.23492  1.0000 -0.5672512523
O   O4        1.0  0.25905  0.39143  0.76508  1.0000 -0.5672512523
O   O5        1.0  0.74397  0.37635  0.73492  1.0000 -0.5672512523
O   O6        1.0  0.64143  0.00905  0.26508  1.0000 -0.5672512523
O   O7        1.0  0.62365  0.35857  0.36762  1.0000 -0.5672512523
O   O8        1.0  0.99095  0.25603  0.63238  1.0000 -0.5672512523
O   O9        1.0  0.41598  0.73695  0.18833  1.0000 -0.623270103
O   O10       1.0  0.54862  0.22765  0.81167  1.0000 -0.623270103
O   O11       1.0  0.77235  0.58402  0.32097  1.0000 -0.623270103
O   O12       1.0  0.26305  0.45138  0.67903  1.0000 -0.623270103
O   O13       1.0  0.83402  0.52235  0.82097  1.0000 -0.623270103
O   O14       1.0  0.70138  0.01305  0.17903  1.0000 -0.623270103
O   O15       1.0  0.47765  0.29862  0.31167  1.0000 -0.623270103
O   O16       1.0  0.98695  0.16598  0.68833  1.0000 -0.623270103
O   O17       1.0  0.44534  0.59695  0.20989  1.0000 -0.1092792737
O   O18       1.0  0.38706  0.23545  0.79011  1.0000 -0.1092792737
O   O19       1.0  0.76455  0.55466  0.15161  1.0000 -0.1092792737
O   O20       1.0  0.40305  0.61294  0.84839  1.0000 -0.1092792737
O   O21       1.0  0.80466  0.51455  0.65161  1.0000 -0.1092792737
O   O22       1.0  0.86294  0.15305  0.34839  1.0000 -0.1092792737
O   O23       1.0  0.48545  0.13706  0.29011  1.0000 -0.1092792737
O   O24       1.0  0.84695  0.19534  0.70989  1.0000 -0.1092792737
O   O25       1.0  0.46716  0.48304  0.22000  1.0000 -0.5643047537
O   O26       1.0  0.26304  0.24716  0.78000  1.0000 -0.5643047537
O   O27       1.0  0.75284  0.53284  0.01588  1.0000 -0.5643047537
O   O28       1.0  0.51696  0.73696  0.98412  1.0000 -0.5643047537
O   O29       1.0  0.78284  0.50284  0.51588  1.0000 -0.5643047537
O   O30       1.0  0.98696  0.26696  0.48412  1.0000 -0.5643047537
O   O31       1.0  0.49716  0.01304  0.28000  1.0000 -0.5643047537
O   O32       1.0  0.73304  0.21716  0.72000  1.0000 -0.5643047537
O   O33       1.0  0.37396  0.41051  0.30407  1.0000 -0.5672512523
O   O34       1.0  0.10644  0.06989  0.69593  1.0000 -0.5672512523
O   O35       1.0  0.93011  0.62604  0.03655  1.0000 -0.5672512523
O   O36       1.0  0.58949  0.89356  0.96345  1.0000 -0.5672512523
O   O37       1.0  0.87604  0.68011  0.53655  1.0000 -0.5672512523
O   O38       1.0  0.14356  0.33949  0.46345  1.0000 -0.5672512523
O   O39       1.0  0.31989  0.85644  0.19593  1.0000 -0.5672512523
O   O40       1.0  0.66051  0.12396  0.80407  1.0000 -0.5643047537
O   O41       1.0  0.30972  0.74500  0.09692  1.0000 -0.5751981449
O   O42       1.0  0.64808  0.21280  0.90308  1.0000 -0.5751981449
O   O43       1.0  0.78720  0.69028  0.43528  1.0000 -0.5751981449
O   O44       1.0  0.25500  0.35192  0.56472  1.0000 -0.5751981449
O   O45       1.0  0.94028  0.53720  0.93528  1.0000 -0.5751981449
O   O46       1.0  0.60192  0.00500  0.06472  1.0000 -0.5751981449
O   O47       1.0  0.46280  0.39808  0.40308  1.0000 -0.5751981449
O   O48       1.0  0.99500  0.05972  0.59692  1.0000 -0.5751981449
O   O49       1.0  0.38373  0.72610  0.04523  1.0000 -0.5855542434
O   O50       1.0  0.68087  0.33850  0.95477  1.0000 -0.5855542434
O   O51       1.0  0.66150  0.61627  0.34237  1.0000 -0.5855542434
O   O52       1.0  0.27390  0.31913  0.65763  1.0000 -0.5855542434
O   O53       1.0  0.86627  0.41150  0.84237  1.0000 -0.5855542434
O   O54       1.0  0.56913  0.02390  0.15763  1.0000 -0.5855542434
O   O55       1.0  0.58850  0.43087  0.45477  1.0000 -0.5855542434
O   O56       1.0  0.97610  0.13373  0.54523  1.0000 -0.5855542434
O   O57       1.0  0.12500  0.60653  0.98153  1.0000 -0.1092792737
O   O58       1.0  0.62500  0.14347  0.01847  1.0000 -0.1092792737
O   O59       1.0  0.85653  0.87500  0.48153  1.0000 -0.1092792737
O   O60       1.0  0.39347  0.37500  0.51847  1.0000 -0.1092792737
