# DDEC6 charges by PACMAN v1.1 (https://github.com/mtap-research/PACMAN-charge/)
data_2014[Ga][bpq]3[FSR]1
_chemical_formula_sum              "Ga8 H40 C64 O40"
_cell_length_a       6.6716
_cell_length_b       15.1165
_cell_length_c       19.219
_cell_angle_alpha    90
_cell_angle_beta     95.948
_cell_angle_gamma    90

_symmetry_space_group_name_H-M    "P 1"
_symmetry_Int_Tables_number       1

loop_
  _symmetry_equiv_pos_as_xyz
  'x, y, z'

loop_
  _atom_site_type_symbol
  _atom_site_label
  _atom_site_symmetry_multiplicity
  _atom_site_fract_x
  _atom_site_fract_y
  _atom_site_fract_z
  _atom_site_occupancy
  _atom_site_charge
Ga  Ga1       1.0  0.98220  0.25000  0.49630  1.0000 1.4294556934
Ga  Ga2       1.0  0.51780  0.75000  0.50370  1.0000 1.4294556934
Ga  Ga3       1.0  0.01780  0.75000  0.50370  1.0000 1.4294556934
Ga  Ga4       1.0  0.48220  0.25000  0.49630  1.0000 1.4294556934
Ga  Ga5       1.0  0.00000  0.50000  0.00000  1.0000 1.4358436424
Ga  Ga6       1.0  0.50000  0.00000  0.00000  1.0000 1.4294556934
Ga  Ga7       1.0  0.50000  0.50000  0.00000  1.0000 1.4183877069
Ga  Ga8       1.0  0.00000  0.00000  0.00000  1.0000 1.4183877069
H   H1        1.0  0.92950  0.09130  0.78790  1.0000 0.1221331316
H   H2        1.0  0.57050  0.59130  0.21210  1.0000 0.1221331316
H   H3        1.0  0.07050  0.90870  0.21210  1.0000 0.1221331316
H   H4        1.0  0.42950  0.40870  0.78790  1.0000 0.1221331316
H   H5        1.0  0.94100  0.11860  0.66790  1.0000 0.1283246768
H   H6        1.0  0.55900  0.61860  0.33210  1.0000 0.1283246768
H   H7        1.0  0.05900  0.88140  0.33210  1.0000 0.1283246768
H   H8        1.0  0.44100  0.38140  0.66790  1.0000 0.1283246768
H   H9        1.0  0.54630  0.15340  0.70390  1.0000 0.1221331316
H   H10       1.0  0.95370  0.65340  0.29610  1.0000 0.1221331316
H   H11       1.0  0.45370  0.84660  0.29610  1.0000 0.1221331316
H   H12       1.0  0.04630  0.34660  0.70390  1.0000 0.1221331316
H   H13       1.0  0.53680  0.12620  0.82410  1.0000 0.1283246768
H   H14       1.0  0.96320  0.62620  0.17590  1.0000 0.1283246768
H   H15       1.0  0.46320  0.87380  0.17590  1.0000 0.1283246768
H   H16       1.0  0.03680  0.37380  0.82410  1.0000 0.1283246768
H   H17       1.0  0.43110  0.31520  0.28030  1.0000 0.1221331316
H   H18       1.0  0.06890  0.81520  0.71970  1.0000 0.1221331316
H   H19       1.0  0.56890  0.68480  0.71970  1.0000 0.1221331316
H   H20       1.0  0.93110  0.18480  0.28030  1.0000 0.1221331316
H   H21       1.0  0.45660  0.34510  0.15940  1.0000 0.1283246768
H   H22       1.0  0.04340  0.84510  0.84060  1.0000 0.1283246768
H   H23       1.0  0.54340  0.65490  0.84060  1.0000 0.1283246768
H   H24       1.0  0.95660  0.15490  0.15940  1.0000 0.1283246768
H   H25       1.0  0.03630  0.42880  0.21200  1.0000 0.1221331316
H   H26       1.0  0.46370  0.92880  0.78800  1.0000 0.1221331316
H   H27       1.0  0.96370  0.57120  0.78800  1.0000 0.1221331316
H   H28       1.0  0.53630  0.07120  0.21200  1.0000 0.1221331316
H   H29       1.0  0.01390  0.39950  0.33300  1.0000 0.1283246768
H   H30       1.0  0.48610  0.89950  0.66700  1.0000 0.1283246768
H   H31       1.0  0.98610  0.60050  0.66700  1.0000 0.1283246768
H   H32       1.0  0.51390  0.10050  0.33300  1.0000 0.1283246768
H   H33       1.0  0.21900  0.37370  0.49500  1.0000 0.423724545
H   H34       1.0  0.28100  0.87370  0.50500  1.0000 0.423724545
H   H35       1.0  0.78100  0.62630  0.50500  1.0000 0.423724545
H   H36       1.0  0.71900  0.12630  0.49500  1.0000 0.4253174323
H   H37       1.0  0.73200  0.61460  0.99500  1.0000 0.423724545
H   H38       1.0  0.76800  0.11460  0.00500  1.0000 0.423724545
H   H39       1.0  0.26800  0.38540  0.00500  1.0000 0.423724545
H   H40       1.0  0.23200  0.88540  0.99500  1.0000 0.423724545
C   C1        1.0  0.23070  0.10630  0.81820  1.0000 -0.018093607
C   C2        1.0  0.26930  0.60630  0.18180  1.0000 -0.018093607
C   C3        1.0  0.76930  0.89370  0.18180  1.0000 -0.018093607
C   C4        1.0  0.73070  0.39370  0.81820  1.0000 -0.018093607
C   C5        1.0  0.05940  0.10450  0.77080  1.0000 -0.1020667924
C   C6        1.0  0.44060  0.60450  0.22920  1.0000 -0.1020667924
C   C7        1.0  0.94060  0.89550  0.22920  1.0000 -0.1020667924
C   C8        1.0  0.55940  0.39550  0.77080  1.0000 -0.1020667924
C   C9        1.0  0.06600  0.12010  0.69970  1.0000 -0.1020667924
C   C10       1.0  0.43400  0.62010  0.30030  1.0000 -0.1020667924
C   C11       1.0  0.93400  0.87990  0.30030  1.0000 -0.1020667924
C   C12       1.0  0.56600  0.37990  0.69970  1.0000 -0.1020667924
C   C13       1.0  0.24830  0.13820  0.67490  1.0000 -0.018093607
C   C14       1.0  0.25170  0.63820  0.32510  1.0000 -0.018093607
C   C15       1.0  0.75170  0.86180  0.32510  1.0000 -0.018093607
C   C16       1.0  0.74830  0.36180  0.67490  1.0000 -0.018093607
C   C17       1.0  0.41770  0.14000  0.72150  1.0000 -0.1020667924
C   C18       1.0  0.08230  0.64000  0.27850  1.0000 -0.1020667924
C   C19       1.0  0.58230  0.86000  0.27850  1.0000 -0.1020667924
C   C20       1.0  0.91770  0.36000  0.72150  1.0000 -0.1020667924
C   C21       1.0  0.41150  0.12450  0.79250  1.0000 -0.1020667924
C   C22       1.0  0.08850  0.62450  0.20750  1.0000 -0.1020667924
C   C23       1.0  0.58850  0.87550  0.20750  1.0000 -0.1020667924
C   C24       1.0  0.91150  0.37550  0.79250  1.0000 -0.1020667924
C   C25       1.0  0.21800  0.08780  0.89390  1.0000 0.6060761172
C   C26       1.0  0.28200  0.58780  0.10610  1.0000 0.6060761172
C   C27       1.0  0.78200  0.91220  0.10610  1.0000 0.6060761172
C   C28       1.0  0.71800  0.41220  0.89390  1.0000 0.6060761172
C   C29       1.0  0.26690  0.15730  0.60040  1.0000 0.6060761172
C   C30       1.0  0.23310  0.65730  0.39960  1.0000 0.6060761172
C   C31       1.0  0.73310  0.84270  0.39960  1.0000 0.6060761172
C   C32       1.0  0.76690  0.34270  0.60040  1.0000 0.6060761172
C   C33       1.0  0.71860  0.35480  0.31750  1.0000 -0.018093607
C   C34       1.0  0.78140  0.85480  0.68250  1.0000 -0.018093607
C   C35       1.0  0.28140  0.64520  0.68250  1.0000 -0.018093607
C   C36       1.0  0.21860  0.14520  0.31750  1.0000 -0.018093607
C   C37       1.0  0.55710  0.33900  0.26610  1.0000 -0.1020667924
C   C38       1.0  0.94290  0.83900  0.73390  1.0000 -0.1020667924
C   C39       1.0  0.44290  0.66100  0.73390  1.0000 -0.1020667924
C   C40       1.0  0.05710  0.16100  0.26610  1.0000 -0.1020667924
C   C41       1.0  0.57110  0.35600  0.19480  1.0000 -0.106336784
C   C42       1.0  0.92890  0.85600  0.80520  1.0000 -0.106336784
C   C43       1.0  0.42890  0.64400  0.80520  1.0000 -0.106336784
C   C44       1.0  0.07110  0.14400  0.19480  1.0000 -0.106336784
C   C45       1.0  0.75090  0.38930  0.17600  1.0000 -0.0263562952
C   C46       1.0  0.74910  0.88930  0.82400  1.0000 -0.0263562952
C   C47       1.0  0.24910  0.61070  0.82400  1.0000 -0.0263562952
C   C48       1.0  0.25090  0.11070  0.17600  1.0000 -0.0263562952
C   C49       1.0  0.91100  0.40490  0.22660  1.0000 -0.1020667924
C   C50       1.0  0.58900  0.90490  0.77340  1.0000 -0.1020667924
C   C51       1.0  0.08900  0.59510  0.77340  1.0000 -0.1020667924
C   C52       1.0  0.41100  0.09510  0.22660  1.0000 -0.1020667924
C   C53       1.0  0.89860  0.38820  0.29790  1.0000 -0.1020667924
C   C54       1.0  0.60140  0.88820  0.70210  1.0000 -0.1020667924
C   C55       1.0  0.10140  0.61180  0.70210  1.0000 -0.1020667924
C   C56       1.0  0.39860  0.11180  0.29790  1.0000 -0.1020667924
C   C57       1.0  0.70370  0.33500  0.39300  1.0000 0.6017408404
C   C58       1.0  0.79630  0.83500  0.60700  1.0000 0.6017408404
C   C59       1.0  0.29630  0.66500  0.60700  1.0000 0.6017408404
C   C60       1.0  0.20370  0.16500  0.39300  1.0000 0.6017408404
C   C61       1.0  0.76990  0.40850  0.10120  1.0000 0.6017408404
C   C62       1.0  0.73010  0.90850  0.89880  1.0000 0.6017408404
C   C63       1.0  0.23010  0.59150  0.89880  1.0000 0.6017408404
C   C64       1.0  0.26990  0.09150  0.10120  1.0000 0.6017408404
O   O1        1.0  0.24150  0.31470  0.49960  1.0000 -0.8773763669
O   O2        1.0  0.25850  0.81470  0.50040  1.0000 -0.8773763669
O   O3        1.0  0.75850  0.68530  0.50040  1.0000 -0.8773763669
O   O4        1.0  0.74150  0.18530  0.49960  1.0000 -0.8773763669
O   O5        1.0  0.74910  0.55530  0.00090  1.0000 -0.8497917693
O   O6        1.0  0.75090  0.05530  0.99910  1.0000 -0.8497917693
O   O7        1.0  0.25090  0.44470  0.99910  1.0000 -0.8497917693
O   O8        1.0  0.24910  0.94470  0.00090  1.0000 -0.8497917693
O   O9        1.0  0.04660  0.07770  0.91570  1.0000 -0.5493929651
O   O10       1.0  0.45340  0.57770  0.08430  1.0000 -0.5493929651
O   O11       1.0  0.95340  0.92230  0.08430  1.0000 -0.5493929651
O   O12       1.0  0.54660  0.42230  0.91570  1.0000 -0.5493929651
O   O13       1.0  0.38250  0.08210  0.93180  1.0000 -0.5493929651
O   O14       1.0  0.11750  0.58210  0.06820  1.0000 -0.5493929651
O   O15       1.0  0.61750  0.91790  0.06820  1.0000 -0.5493929651
O   O16       1.0  0.88250  0.41790  0.93180  1.0000 -0.5493929651
O   O17       1.0  0.11300  0.14850  0.55590  1.0000 -0.570811395
O   O18       1.0  0.38700  0.64850  0.44410  1.0000 -0.570811395
O   O19       1.0  0.88700  0.85150  0.44410  1.0000 -0.570811395
O   O20       1.0  0.61300  0.35150  0.55590  1.0000 -0.570811395
O   O21       1.0  0.43970  0.18360  0.58670  1.0000 -0.5493929651
O   O22       1.0  0.06030  0.68360  0.41330  1.0000 -0.5493929651
O   O23       1.0  0.56030  0.81640  0.41330  1.0000 -0.5493929651
O   O24       1.0  0.93970  0.31640  0.58670  1.0000 -0.5493929651
O   O25       1.0  0.53680  0.30030  0.40800  1.0000 -0.5556325209
O   O26       1.0  0.96320  0.80030  0.59200  1.0000 -0.5493929651
O   O27       1.0  0.46320  0.69970  0.59200  1.0000 -0.5556325209
O   O28       1.0  0.03680  0.19970  0.40800  1.0000 -0.5556325209
O   O29       1.0  0.86010  0.35180  0.43570  1.0000 -0.5783004057
O   O30       1.0  0.63990  0.85180  0.56430  1.0000 -0.5783004057
O   O31       1.0  0.13990  0.64820  0.56430  1.0000 -0.5783004057
O   O32       1.0  0.36010  0.14820  0.43570  1.0000 -0.5783004057
O   O33       1.0  0.61200  0.39930  0.05680  1.0000 -0.5893610757
O   O34       1.0  0.88800  0.89930  0.94320  1.0000 -0.5893610757
O   O35       1.0  0.38800  0.60070  0.94320  1.0000 -0.5893610757
O   O36       1.0  0.11200  0.10070  0.05680  1.0000 -0.5893610757
O   O37       1.0  0.94800  0.43140  0.08850  1.0000 -0.5493929651
O   O38       1.0  0.55200  0.93140  0.91150  1.0000 -0.5493929651
O   O39       1.0  0.05200  0.56860  0.91150  1.0000 -0.5556325209
O   O40       1.0  0.44800  0.06860  0.08850  1.0000 -0.5493929651
