# DDEC6 charges by PACMAN v1.1 (https://github.com/mtap-research/PACMAN-charge/)
data_2014[Cu][dia]3[FSR]1
_chemical_formula_sum              "Cu4 H48 C72 N24 O16"
_cell_length_a       9.936
_cell_length_b       12.3348
_cell_length_c       17.8259
_cell_angle_alpha    90
_cell_angle_beta     90
_cell_angle_gamma    90

_symmetry_space_group_name_H-M    "P 1"
_symmetry_Int_Tables_number       1

loop_
  _symmetry_equiv_pos_as_xyz
  'x, y, z'

loop_
  _atom_site_type_symbol
  _atom_site_label
  _atom_site_symmetry_multiplicity
  _atom_site_fract_x
  _atom_site_fract_y
  _atom_site_fract_z
  _atom_site_occupancy
  _atom_site_charge
Cu  Cu1       1.0  0.00000  0.25000  0.66184  1.0000 0.7507428595
Cu  Cu2       1.0  0.50000  0.75000  0.16184  1.0000 0.7507428595
Cu  Cu3       1.0  0.50000  0.25000  0.83816  1.0000 0.7507428595
Cu  Cu4       1.0  0.00000  0.75000  0.33816  1.0000 0.7507428595
H   H1        1.0  0.89120  0.99910  0.48870  1.0000 0.1299007626
H   H2        1.0  0.10880  0.50090  0.48870  1.0000 0.1299007626
H   H3        1.0  0.60880  0.49910  0.98870  1.0000 0.1299007626
H   H4        1.0  0.39120  0.00090  0.98870  1.0000 0.1299007626
H   H5        1.0  0.78030  0.92350  0.38730  1.0000 0.1299007626
H   H6        1.0  0.21970  0.57650  0.38730  1.0000 0.1299007626
H   H7        1.0  0.71970  0.42350  0.88730  1.0000 0.1299007626
H   H8        1.0  0.28030  0.07650  0.88730  1.0000 0.1299007626
H   H9        1.0  0.46980  0.12430  0.42080  1.0000 0.1299007626
H   H10       1.0  0.53020  0.37570  0.42080  1.0000 0.1299007626
H   H11       1.0  0.03020  0.62430  0.92080  1.0000 0.1299007626
H   H12       1.0  0.96980  0.87570  0.92080  1.0000 0.1299007626
H   H13       1.0  0.58310  0.19800  0.52210  1.0000 0.1114105352
H   H14       1.0  0.41690  0.30200  0.52210  1.0000 0.1114105352
H   H15       1.0  0.91690  0.69800  0.02210  1.0000 0.1114105352
H   H16       1.0  0.08310  0.80200  0.02210  1.0000 0.1114105352
H   H17       1.0  0.36670  0.98060  0.19830  1.0000 0.1170512282
H   H18       1.0  0.63330  0.51940  0.19830  1.0000 0.1170512282
H   H19       1.0  0.13330  0.48060  0.69830  1.0000 0.1170512282
H   H20       1.0  0.86670  0.01940  0.69830  1.0000 0.1170512282
H   H21       1.0  0.62790  0.82290  0.31700  1.0000 0.1299007626
H   H22       1.0  0.37210  0.67710  0.31700  1.0000 0.1299007626
H   H23       1.0  0.87210  0.32290  0.81700  1.0000 0.1299007626
H   H24       1.0  0.12790  0.17710  0.81700  1.0000 0.1299007626
H   H25       1.0  0.39120  0.50090  0.01130  1.0000 0.1299007626
H   H26       1.0  0.60880  0.99910  0.01130  1.0000 0.1299007626
H   H27       1.0  0.10880  0.00090  0.51130  1.0000 0.1299007626
H   H28       1.0  0.89120  0.49910  0.51130  1.0000 0.1299007626
H   H29       1.0  0.28030  0.57650  0.11270  1.0000 0.1299007626
H   H30       1.0  0.71970  0.92350  0.11270  1.0000 0.1299007626
H   H31       1.0  0.21970  0.07650  0.61270  1.0000 0.1299007626
H   H32       1.0  0.78030  0.42350  0.61270  1.0000 0.1299007626
H   H33       1.0  0.96980  0.37570  0.07920  1.0000 0.1299007626
H   H34       1.0  0.03020  0.12430  0.07920  1.0000 0.1299007626
H   H35       1.0  0.53020  0.87570  0.57920  1.0000 0.1299007626
H   H36       1.0  0.46980  0.62430  0.57920  1.0000 0.1299007626
H   H37       1.0  0.08310  0.30200  0.97790  1.0000 0.1114105352
H   H38       1.0  0.91690  0.19800  0.97790  1.0000 0.1114105352
H   H39       1.0  0.41690  0.80200  0.47790  1.0000 0.1114105352
H   H40       1.0  0.58310  0.69800  0.47790  1.0000 0.1114105352
H   H41       1.0  0.86670  0.51940  0.30170  1.0000 0.1170512282
H   H42       1.0  0.13330  0.98060  0.30170  1.0000 0.1170512282
H   H43       1.0  0.63330  0.01940  0.80170  1.0000 0.1170512282
H   H44       1.0  0.36670  0.48060  0.80170  1.0000 0.1170512282
H   H45       1.0  0.12790  0.67710  0.18300  1.0000 0.1299007626
H   H46       1.0  0.87210  0.82290  0.18300  1.0000 0.1299007626
H   H47       1.0  0.37210  0.17710  0.68300  1.0000 0.1299007626
H   H48       1.0  0.62790  0.32290  0.68300  1.0000 0.1299007626
C   C1        1.0  0.82180  0.16150  0.57800  1.0000 0.5423261591
C   C2        1.0  0.17820  0.33850  0.57800  1.0000 0.5423261591
C   C3        1.0  0.67820  0.66150  0.07800  1.0000 0.5423261591
C   C4        1.0  0.32180  0.83850  0.07800  1.0000 0.5423261591
C   C5        1.0  0.74810  0.10640  0.51540  1.0000 -0.0241218663
C   C6        1.0  0.25190  0.39360  0.51540  1.0000 -0.0241218663
C   C7        1.0  0.75190  0.60640  0.01540  1.0000 -0.0241218663
C   C8        1.0  0.24810  0.89360  0.01540  1.0000 -0.0241218663
C   C9        1.0  0.80640  0.02450  0.47520  1.0000 -0.0741506747
C   C10       1.0  0.19360  0.47550  0.47520  1.0000 -0.0741506747
C   C11       1.0  0.69360  0.52450  0.97520  1.0000 -0.0741506747
C   C12       1.0  0.30640  0.97550  0.97520  1.0000 -0.0741506747
C   C13       1.0  0.74060  0.97930  0.41450  1.0000 -0.1658629306
C   C14       1.0  0.25940  0.52070  0.41450  1.0000 -0.1658629306
C   C15       1.0  0.75940  0.47930  0.91450  1.0000 -0.1658629306
C   C16       1.0  0.24060  0.02070  0.91450  1.0000 -0.1658629306
C   C17       1.0  0.61490  0.01790  0.39490  1.0000 0.1407093548
C   C18       1.0  0.38510  0.48210  0.39490  1.0000 0.1407093548
C   C19       1.0  0.88510  0.51790  0.89490  1.0000 0.1407093548
C   C20       1.0  0.11490  0.98210  0.89490  1.0000 0.1407093548
C   C21       1.0  0.55460  0.09890  0.43420  1.0000 -0.1658629306
C   C22       1.0  0.44540  0.40110  0.43420  1.0000 -0.1658629306
C   C23       1.0  0.94540  0.59890  0.93420  1.0000 -0.1647608212
C   C24       1.0  0.05460  0.90110  0.93420  1.0000 -0.1647608212
C   C25       1.0  0.62310  0.14250  0.49470  1.0000 -0.1014982338
C   C26       1.0  0.37690  0.35750  0.49470  1.0000 -0.1014982338
C   C27       1.0  0.87690  0.64250  0.99470  1.0000 -0.1014982338
C   C28       1.0  0.12310  0.85750  0.99470  1.0000 -0.1014982338
C   C29       1.0  0.42760  0.96290  0.23600  1.0000 0.1563739993
C   C30       1.0  0.57240  0.53710  0.23600  1.0000 0.1563739993
C   C31       1.0  0.07240  0.46290  0.73600  1.0000 0.1563739993
C   C32       1.0  0.92760  0.03710  0.73600  1.0000 0.1563739993
C   C33       1.0  0.56960  0.87590  0.29910  1.0000 0.0908865223
C   C34       1.0  0.43040  0.62410  0.29910  1.0000 0.0908865223
C   C35       1.0  0.93040  0.37590  0.79910  1.0000 0.0908865223
C   C36       1.0  0.06960  0.12410  0.79910  1.0000 0.0908865223
C   C37       1.0  0.32180  0.33850  0.92200  1.0000 0.5423261591
C   C38       1.0  0.67820  0.16150  0.92200  1.0000 0.5423261591
C   C39       1.0  0.17820  0.83850  0.42200  1.0000 0.5423261591
C   C40       1.0  0.82180  0.66150  0.42200  1.0000 0.5423261591
C   C41       1.0  0.24810  0.39360  0.98460  1.0000 -0.0241218663
C   C42       1.0  0.75190  0.10640  0.98460  1.0000 -0.0241218663
C   C43       1.0  0.25190  0.89360  0.48460  1.0000 -0.0241218663
C   C44       1.0  0.74810  0.60640  0.48460  1.0000 -0.0241218663
C   C45       1.0  0.30640  0.47550  0.02480  1.0000 -0.0741506747
C   C46       1.0  0.69360  0.02450  0.02480  1.0000 -0.0741506747
C   C47       1.0  0.19360  0.97550  0.52480  1.0000 -0.0741506747
C   C48       1.0  0.80640  0.52450  0.52480  1.0000 -0.0741506747
C   C49       1.0  0.24060  0.52070  0.08550  1.0000 -0.1658629306
C   C50       1.0  0.75940  0.97930  0.08550  1.0000 -0.1658629306
C   C51       1.0  0.25940  0.02070  0.58550  1.0000 -0.1658629306
C   C52       1.0  0.74060  0.47930  0.58550  1.0000 -0.1658629306
C   C53       1.0  0.11490  0.48210  0.10510  1.0000 0.1407093548
C   C54       1.0  0.88510  0.01790  0.10510  1.0000 0.1407093548
C   C55       1.0  0.38510  0.98210  0.60510  1.0000 0.1407093548
C   C56       1.0  0.61490  0.51790  0.60510  1.0000 0.1407093548
C   C57       1.0  0.05460  0.40110  0.06580  1.0000 -0.1658629306
C   C58       1.0  0.94540  0.09890  0.06580  1.0000 -0.1658629306
C   C59       1.0  0.44540  0.90110  0.56580  1.0000 -0.1647608212
C   C60       1.0  0.55460  0.59890  0.56580  1.0000 -0.1658629306
C   C61       1.0  0.12310  0.35750  0.00530  1.0000 -0.1014982338
C   C62       1.0  0.87690  0.14250  0.00530  1.0000 -0.1014982338
C   C63       1.0  0.37690  0.85750  0.50530  1.0000 -0.1014982338
C   C64       1.0  0.62310  0.64250  0.50530  1.0000 -0.1014982338
C   C65       1.0  0.92760  0.53710  0.26400  1.0000 0.1563739993
C   C66       1.0  0.07240  0.96290  0.26400  1.0000 0.1563739993
C   C67       1.0  0.57240  0.03710  0.76400  1.0000 0.1563739993
C   C68       1.0  0.42760  0.46290  0.76400  1.0000 0.1563739993
C   C69       1.0  0.06960  0.62410  0.20090  1.0000 0.0908865223
C   C70       1.0  0.93040  0.87590  0.20090  1.0000 0.0908865223
C   C71       1.0  0.43040  0.12410  0.70090  1.0000 0.0908865223
C   C72       1.0  0.56960  0.37590  0.70090  1.0000 0.0908865223
N   N1        1.0  0.54890  0.97120  0.33130  1.0000 0.1407093548
N   N2        1.0  0.45110  0.52880  0.33130  1.0000 0.1407093548
N   N3        1.0  0.95110  0.47120  0.83130  1.0000 0.1407093548
N   N4        1.0  0.04890  0.02880  0.83130  1.0000 0.1407093548
N   N5        1.0  0.45520  0.02800  0.29140  1.0000 -0.2425591133
N   N6        1.0  0.54480  0.47200  0.29140  1.0000 -0.2425591133
N   N7        1.0  0.04480  0.52800  0.79140  1.0000 -0.2425591133
N   N8        1.0  0.95520  0.97200  0.79140  1.0000 -0.2425591133
N   N9        1.0  0.49520  0.86700  0.23770  1.0000 -0.3344335488
N   N10       1.0  0.50480  0.63300  0.23770  1.0000 -0.3344335488
N   N11       1.0  0.00480  0.36700  0.73770  1.0000 -0.3344335488
N   N12       1.0  0.99520  0.13300  0.73770  1.0000 -0.3344335488
N   N13       1.0  0.04890  0.52880  0.16870  1.0000 0.1407093548
N   N14       1.0  0.95110  0.97120  0.16870  1.0000 0.1407093548
N   N15       1.0  0.45110  0.02880  0.66870  1.0000 0.1407093548
N   N16       1.0  0.54890  0.47120  0.66870  1.0000 0.1407093548
N   N17       1.0  0.95520  0.47200  0.20860  1.0000 -0.2425591133
N   N18       1.0  0.04480  0.02800  0.20860  1.0000 -0.2425591133
N   N19       1.0  0.54480  0.97200  0.70860  1.0000 -0.2425591133
N   N20       1.0  0.45520  0.52800  0.70860  1.0000 -0.2425591133
N   N21       1.0  0.99520  0.63300  0.26230  1.0000 -0.3344335488
N   N22       1.0  0.00480  0.86700  0.26230  1.0000 -0.3344335488
N   N23       1.0  0.50480  0.13300  0.76230  1.0000 -0.3344335488
N   N24       1.0  0.49520  0.36700  0.76230  1.0000 -0.3344335488
O   O1        1.0  0.94860  0.14550  0.58278  1.0000 -0.5071800283
O   O2        1.0  0.05140  0.35450  0.58278  1.0000 -0.5071800283
O   O3        1.0  0.55140  0.64550  0.08278  1.0000 -0.5071800283
O   O4        1.0  0.44860  0.85450  0.08278  1.0000 -0.5071800283
O   O5        1.0  0.76000  0.22040  0.62300  1.0000 -0.5791855983
O   O6        1.0  0.24000  0.27960  0.62300  1.0000 -0.5791855983
O   O7        1.0  0.74000  0.72040  0.12300  1.0000 -0.5791855983
O   O8        1.0  0.26000  0.77960  0.12300  1.0000 -0.5791855983
O   O9        1.0  0.44860  0.35450  0.91722  1.0000 -0.5071800283
O   O10       1.0  0.55140  0.14550  0.91722  1.0000 -0.5071800283
O   O11       1.0  0.05140  0.85450  0.41722  1.0000 -0.5071800283
O   O12       1.0  0.94860  0.64550  0.41722  1.0000 -0.5071800283
O   O13       1.0  0.26000  0.27960  0.87700  1.0000 -0.5791855983
O   O14       1.0  0.74000  0.22040  0.87700  1.0000 -0.5791855983
O   O15       1.0  0.24000  0.77960  0.37700  1.0000 -0.5791855983
O   O16       1.0  0.76000  0.72040  0.37700  1.0000 -0.5791855983
