# DDEC6 charges by PACMAN v1.1 (https://github.com/mtap-research/PACMAN-charge/)
data_2014[FeAu][nan]3[FSR]2
_chemical_formula_sum              "Fe3 H24 Au6 C48 N24"
_cell_length_a       15.6062
_cell_length_b       15.6062
_cell_length_c       15.6062
_cell_angle_alpha    115.927
_cell_angle_beta     115.927
_cell_angle_gamma    115.927

_symmetry_space_group_name_H-M    "P 1"
_symmetry_Int_Tables_number       1

loop_
  _symmetry_equiv_pos_as_xyz
  'x, y, z'

loop_
  _atom_site_type_symbol
  _atom_site_label
  _atom_site_symmetry_multiplicity
  _atom_site_fract_x
  _atom_site_fract_y
  _atom_site_fract_z
  _atom_site_occupancy
  _atom_site_charge
Fe  Fe1       1.0  0.50000  0.00000  0.00000  1.0000 0.7770329716
Fe  Fe2       1.0  0.00000  0.00000  0.50000  1.0000 0.7739835384
Fe  Fe3       1.0  0.00000  0.50000  0.00000  1.0000 0.7886435988
H   H1        1.0  0.60290  0.02620  0.87810  1.0000 0.1219051308
H   H2        1.0  0.02620  0.87810  0.60290  1.0000 0.1219051308
H   H3        1.0  0.87810  0.60290  0.02620  1.0000 0.1219051308
H   H4        1.0  0.97380  0.39710  0.12190  1.0000 0.1219051308
H   H5        1.0  0.12190  0.97380  0.39710  1.0000 0.1219051308
H   H6        1.0  0.39710  0.12190  0.97380  1.0000 0.1219051308
H   H7        1.0  0.39710  0.97380  0.12190  1.0000 0.1219051308
H   H8        1.0  0.97380  0.12190  0.39710  1.0000 0.1219051308
H   H9        1.0  0.12190  0.39710  0.97380  1.0000 0.1219051308
H   H10       1.0  0.02620  0.60290  0.87810  1.0000 0.1219051308
H   H11       1.0  0.87810  0.02620  0.60290  1.0000 0.1219051308
H   H12       1.0  0.60290  0.87810  0.02620  1.0000 0.1219051308
H   H13       1.0  0.70390  0.97960  0.82820  1.0000 0.1390413719
H   H14       1.0  0.97960  0.82820  0.70390  1.0000 0.1390413719
H   H15       1.0  0.82820  0.70390  0.97960  1.0000 0.1390413719
H   H16       1.0  0.02040  0.29610  0.17180  1.0000 0.1390413719
H   H17       1.0  0.17180  0.02040  0.29610  1.0000 0.1390413719
H   H18       1.0  0.29610  0.17180  0.02040  1.0000 0.1390413719
H   H19       1.0  0.29610  0.02040  0.17180  1.0000 0.1390413719
H   H20       1.0  0.02040  0.17180  0.29610  1.0000 0.1390413719
H   H21       1.0  0.17180  0.29610  0.02040  1.0000 0.1390413719
H   H22       1.0  0.97960  0.70390  0.82820  1.0000 0.1390413719
H   H23       1.0  0.82820  0.97960  0.70390  1.0000 0.1390413719
H   H24       1.0  0.70390  0.82820  0.97960  1.0000 0.1390413719
Au  Au1       1.0  0.79300  0.20700  0.50000  1.0000 -0.0461830643
Au  Au2       1.0  0.20700  0.50000  0.79300  1.0000 -0.0461830643
Au  Au3       1.0  0.50000  0.79300  0.20700  1.0000 -0.0461830643
Au  Au4       1.0  0.20700  0.79300  0.50000  1.0000 -0.0461830643
Au  Au5       1.0  0.79300  0.50000  0.20700  1.0000 -0.0461830643
Au  Au6       1.0  0.50000  0.20700  0.79300  1.0000 -0.0461830643
C   C1        1.0  0.62340  0.98600  0.89870  1.0000 0.0880991396
C   C2        1.0  0.98600  0.89870  0.62340  1.0000 0.0880991396
C   C3        1.0  0.89870  0.62340  0.98600  1.0000 0.0880991396
C   C4        1.0  0.01400  0.37660  0.10130  1.0000 0.0880991396
C   C5        1.0  0.10130  0.01400  0.37660  1.0000 0.0880991396
C   C6        1.0  0.37660  0.10130  0.01400  1.0000 0.0880991396
C   C7        1.0  0.37660  0.01400  0.10130  1.0000 0.0880991396
C   C8        1.0  0.01400  0.10130  0.37660  1.0000 0.0880991396
C   C9        1.0  0.10130  0.37660  0.01400  1.0000 0.0880991396
C   C10       1.0  0.98600  0.62340  0.89870  1.0000 0.0880991396
C   C11       1.0  0.89870  0.98600  0.62340  1.0000 0.0880991396
C   C12       1.0  0.62340  0.89870  0.98600  1.0000 0.0880991396
C   C13       1.0  0.68340  0.95750  0.86780  1.0000 -0.1630543567
C   C14       1.0  0.95750  0.86780  0.68340  1.0000 -0.1630543567
C   C15       1.0  0.86780  0.68340  0.95750  1.0000 -0.1630543567
C   C16       1.0  0.04250  0.31660  0.13220  1.0000 -0.1630543567
C   C17       1.0  0.13220  0.04250  0.31660  1.0000 -0.1630543567
C   C18       1.0  0.31660  0.13220  0.04250  1.0000 -0.1630543567
C   C19       1.0  0.31660  0.04250  0.13220  1.0000 -0.1630543567
C   C20       1.0  0.04250  0.13220  0.31660  1.0000 -0.1630543567
C   C21       1.0  0.13220  0.31660  0.04250  1.0000 -0.1630543567
C   C22       1.0  0.95750  0.68340  0.86780  1.0000 -0.1630543567
C   C23       1.0  0.86780  0.95750  0.68340  1.0000 -0.1630543567
C   C24       1.0  0.68340  0.86780  0.95750  1.0000 -0.1630543567
C   C25       1.0  0.71380  0.89580  0.89580  1.0000 0.0607372462
C   C26       1.0  0.89580  0.89580  0.71380  1.0000 0.0607372462
C   C27       1.0  0.89580  0.71380  0.89580  1.0000 0.0607372462
C   C28       1.0  0.10420  0.28620  0.10420  1.0000 0.0607372462
C   C29       1.0  0.10420  0.10420  0.28620  1.0000 0.0607372462
C   C30       1.0  0.28620  0.10420  0.10420  1.0000 0.0607372462
C   C31       1.0  0.77580  0.86150  0.86150  1.0000 0.3620805147
C   C32       1.0  0.86150  0.86150  0.77580  1.0000 0.3620805147
C   C33       1.0  0.86150  0.77580  0.86150  1.0000 0.3620805147
C   C34       1.0  0.13850  0.22420  0.13850  1.0000 0.3620805147
C   C35       1.0  0.13850  0.13850  0.22420  1.0000 0.3620805147
C   C36       1.0  0.22420  0.13850  0.13850  1.0000 0.3620805147
C   C37       1.0  0.70540  0.13130  0.31130  1.0000 0.0607372462
C   C38       1.0  0.13130  0.31130  0.70540  1.0000 0.0607372462
C   C39       1.0  0.31130  0.70540  0.13130  1.0000 0.0607372462
C   C40       1.0  0.86870  0.29460  0.68870  1.0000 0.0607372462
C   C41       1.0  0.68870  0.86870  0.29460  1.0000 0.0607372462
C   C42       1.0  0.29460  0.68870  0.86870  1.0000 0.0607372462
C   C43       1.0  0.29460  0.86870  0.68870  1.0000 0.0607372462
C   C44       1.0  0.86870  0.68870  0.29460  1.0000 0.0607372462
C   C45       1.0  0.68870  0.29460  0.86870  1.0000 0.0607372462
C   C46       1.0  0.13130  0.70540  0.31130  1.0000 0.0607372462
C   C47       1.0  0.31130  0.13130  0.70540  1.0000 0.0607372462
C   C48       1.0  0.70540  0.31130  0.13130  1.0000 0.0607372462
N   N1        1.0  0.59310  0.95750  0.95750  1.0000 -0.1905547925
N   N2        1.0  0.95750  0.95750  0.59310  1.0000 -0.1905547925
N   N3        1.0  0.95750  0.59310  0.95750  1.0000 -0.1905547925
N   N4        1.0  0.04250  0.40690  0.04250  1.0000 -0.1905547925
N   N5        1.0  0.04250  0.04250  0.40690  1.0000 -0.1905547925
N   N6        1.0  0.40690  0.04250  0.04250  1.0000 -0.1905547925
N   N7        1.0  0.64530  0.09130  0.20260  1.0000 -0.3372674384
N   N8        1.0  0.09130  0.20260  0.64530  1.0000 -0.3372674384
N   N9        1.0  0.20260  0.64530  0.09130  1.0000 -0.3372674384
N   N10       1.0  0.90870  0.35470  0.79740  1.0000 -0.3372674384
N   N11       1.0  0.79740  0.90870  0.35470  1.0000 -0.3372674384
N   N12       1.0  0.35470  0.79740  0.90870  1.0000 -0.3372674384
N   N13       1.0  0.35470  0.90870  0.79740  1.0000 -0.3372674384
N   N14       1.0  0.90870  0.79740  0.35470  1.0000 -0.3372674384
N   N15       1.0  0.79740  0.35470  0.90870  1.0000 -0.3372674384
N   N16       1.0  0.09130  0.64530  0.20260  1.0000 -0.3372674384
N   N17       1.0  0.20260  0.09130  0.64530  1.0000 -0.3372674384
N   N18       1.0  0.64530  0.20260  0.09130  1.0000 -0.3372674384
N   N19       1.0  0.80620  0.89480  0.80620  1.0000 -0.3946378527
N   N20       1.0  0.89480  0.80620  0.80620  1.0000 -0.3946378527
N   N21       1.0  0.80620  0.80620  0.89480  1.0000 -0.3946378527
N   N22       1.0  0.10520  0.19380  0.19380  1.0000 -0.3952530322
N   N23       1.0  0.19380  0.10520  0.19380  1.0000 -0.3952530322
N   N24       1.0  0.19380  0.19380  0.10520  1.0000 -0.3952530322
