# DDEC6 charges by PACMAN v1.1 (https://github.com/mtap-research/PACMAN-charge/)
data_2014[Ni][nan]3[FSR]7
_chemical_formula_sum              "Ni4 H112 C132 N24 O22"
_cell_length_a       15.9029
_cell_length_b       15.9029
_cell_length_c       25.178
_cell_angle_alpha    69.9824
_cell_angle_beta     110.018
_cell_angle_gamma    143.19

_symmetry_space_group_name_H-M    "P 1"
_symmetry_Int_Tables_number       1

loop_
  _symmetry_equiv_pos_as_xyz
  'x, y, z'

loop_
  _atom_site_type_symbol
  _atom_site_label
  _atom_site_symmetry_multiplicity
  _atom_site_fract_x
  _atom_site_fract_y
  _atom_site_fract_z
  _atom_site_occupancy
  _atom_site_charge
Ni  Ni1       1.0  0.97281  0.84915  0.27123  1.0000 0.6055596119
Ni  Ni2       1.0  0.84915  0.97281  0.22877  1.0000 0.6055596119
Ni  Ni3       1.0  0.02719  0.15085  0.72877  1.0000 0.6055596119
Ni  Ni4       1.0  0.15085  0.02719  0.77123  1.0000 0.6055596119
H   H1        1.0  0.36680  0.05460  0.68820  1.0000 0.1197855843
H   H2        1.0  0.05460  0.36680  0.81180  1.0000 0.1197855843
H   H3        1.0  0.63320  0.94540  0.31180  1.0000 0.1197855843
H   H4        1.0  0.94540  0.63320  0.18820  1.0000 0.1197855843
H   H5        1.0  0.51940  0.11020  0.64970  1.0000 0.1090561541
H   H6        1.0  0.11020  0.51940  0.85030  1.0000 0.1090561541
H   H7        1.0  0.48060  0.88980  0.35030  1.0000 0.1090561541
H   H8        1.0  0.88980  0.48060  0.14970  1.0000 0.1090561541
H   H9        1.0  0.67510  0.31610  0.59190  1.0000 0.1386109686
H   H10       1.0  0.31610  0.67510  0.90810  1.0000 0.1386109686
H   H11       1.0  0.32490  0.68390  0.40810  1.0000 0.1386109686
H   H12       1.0  0.68390  0.32490  0.09190  1.0000 0.1386109686
H   H13       1.0  0.52800  0.42200  0.61050  1.0000 0.1197855843
H   H14       1.0  0.42200  0.52800  0.88950  1.0000 0.1197855843
H   H15       1.0  0.47200  0.57800  0.38950  1.0000 0.1197855843
H   H16       1.0  0.57800  0.47200  0.11050  1.0000 0.1197855843
H   H17       1.0  0.64450  0.58130  0.52750  1.0000 0.1090561541
H   H18       1.0  0.58130  0.64450  0.97250  1.0000 0.1090561541
H   H19       1.0  0.35550  0.41870  0.47250  1.0000 0.1090561541
H   H20       1.0  0.41870  0.35550  0.02750  1.0000 0.1090561541
H   H21       1.0  0.74870  0.64310  0.58400  1.0000 0.1090561541
H   H22       1.0  0.64310  0.74870  0.91600  1.0000 0.1090561541
H   H23       1.0  0.25130  0.35690  0.41600  1.0000 0.1090561541
H   H24       1.0  0.35690  0.25130  0.08400  1.0000 0.1090561541
H   H25       1.0  0.75510  0.77190  0.45340  1.0000 0.1197855843
H   H26       1.0  0.77190  0.75510  0.04660  1.0000 0.1197855843
H   H27       1.0  0.24490  0.22810  0.54660  1.0000 0.1197855843
H   H28       1.0  0.22810  0.24490  0.95340  1.0000 0.1197855843
H   H29       1.0  0.94550  0.97390  0.40510  1.0000 0.1197855843
H   H30       1.0  0.97390  0.94550  0.09490  1.0000 0.1197855843
H   H31       1.0  0.05450  0.02610  0.59490  1.0000 0.1197855843
H   H32       1.0  0.02610  0.05450  0.90510  1.0000 0.1197855843
H   H33       1.0  0.18030  0.95410  0.51310  1.0000 0.1090561541
H   H34       1.0  0.95410  0.18030  0.98690  1.0000 0.1090561541
H   H35       1.0  0.81970  0.04590  0.48690  1.0000 0.1090561541
H   H36       1.0  0.04590  0.81970  0.01310  1.0000 0.1090561541
H   H37       1.0  0.99200  0.75600  0.56390  1.0000 0.1197855843
H   H38       1.0  0.75600  0.99200  0.93610  1.0000 0.1197855843
H   H39       1.0  0.00800  0.24400  0.43610  1.0000 0.1197855843
H   H40       1.0  0.24400  0.00800  0.06390  1.0000 0.1197855843
H   H41       1.0  0.34860  0.19680  0.49820  1.0000 0.1026182876
H   H42       1.0  0.19680  0.34860  0.00180  1.0000 0.1026182876
H   H43       1.0  0.65140  0.80320  0.50180  1.0000 0.1026182876
H   H44       1.0  0.80320  0.65140  0.99820  1.0000 0.1026182876
H   H45       1.0  0.54990  0.41270  0.45790  1.0000 0.1026182876
H   H46       1.0  0.41270  0.54990  0.04210  1.0000 0.1026182876
H   H47       1.0  0.45010  0.58730  0.54210  1.0000 0.1026182876
H   H48       1.0  0.58730  0.45010  0.95790  1.0000 0.1026182876
H   H49       1.0  0.53710  0.48050  0.36170  1.0000 0.1197855843
H   H50       1.0  0.48050  0.53710  0.13830  1.0000 0.1197855843
H   H51       1.0  0.46290  0.51950  0.63830  1.0000 0.1197855843
H   H52       1.0  0.51950  0.46290  0.86170  1.0000 0.1197855843
H   H53       1.0  0.32420  0.32940  0.30500  1.0000 0.1283258504
H   H54       1.0  0.32940  0.32420  0.19500  1.0000 0.1283258504
H   H55       1.0  0.67580  0.67060  0.69500  1.0000 0.1283258504
H   H56       1.0  0.67060  0.67580  0.80500  1.0000 0.1283258504
H   H57       1.0  0.30010  0.08750  0.32960  1.0000 0.1283258504
H   H58       1.0  0.08750  0.30010  0.17040  1.0000 0.1283258504
H   H59       1.0  0.69990  0.91250  0.67040  1.0000 0.1283258504
H   H60       1.0  0.91250  0.69990  0.82960  1.0000 0.1283258504
H   H61       1.0  0.08120  0.72840  0.29980  1.0000 0.1197855843
H   H62       1.0  0.72840  0.08120  0.20020  1.0000 0.1197855843
H   H63       1.0  0.91880  0.27160  0.70020  1.0000 0.1197855843
H   H64       1.0  0.27160  0.91880  0.79980  1.0000 0.1197855843
H   H65       1.0  0.54600  0.10360  0.36110  1.0000 0.1197855843
H   H66       1.0  0.10360  0.54600  0.13890  1.0000 0.1197855843
H   H67       1.0  0.45400  0.89640  0.63890  1.0000 0.1197855843
H   H68       1.0  0.89640  0.45400  0.86110  1.0000 0.1197855843
H   H69       1.0  0.53720  0.18640  0.37370  1.0000 0.1197855843
H   H70       1.0  0.18640  0.53720  0.12630  1.0000 0.1197855843
H   H71       1.0  0.46280  0.81360  0.62630  1.0000 0.1197855843
H   H72       1.0  0.81360  0.46280  0.87370  1.0000 0.1197855843
H   H73       1.0  0.59880  0.01620  0.44290  1.0000 0.1197855843
H   H74       1.0  0.01620  0.59880  0.05710  1.0000 0.1197855843
H   H75       1.0  0.40120  0.98380  0.55710  1.0000 0.1197855843
H   H76       1.0  0.98380  0.40120  0.94290  1.0000 0.1197855843
H   H77       1.0  0.39400  0.05540  0.46270  1.0000 0.1197855843
H   H78       1.0  0.05540  0.39400  0.03730  1.0000 0.1197855843
H   H79       1.0  0.60600  0.94460  0.53730  1.0000 0.1197855843
H   H80       1.0  0.94460  0.60600  0.96270  1.0000 0.1197855843
H   H81       1.0  0.91200  0.73100  0.40190  1.0000 0.1283258504
H   H82       1.0  0.73100  0.91200  0.09810  1.0000 0.1283258504
H   H83       1.0  0.08800  0.26900  0.59810  1.0000 0.1283258504
H   H84       1.0  0.26900  0.08800  0.90190  1.0000 0.1283258504
H   H85       1.0  0.73850  0.50050  0.28780  1.0000 0.1090561541
H   H86       1.0  0.50050  0.73850  0.21220  1.0000 0.1090561541
H   H87       1.0  0.26150  0.49950  0.71220  1.0000 0.1090561541
H   H88       1.0  0.49950  0.26150  0.78780  1.0000 0.1090561541
H   H89       1.0  0.81800  0.54020  0.49160  1.0000 0.1283258504
H   H90       1.0  0.54020  0.81800  0.00840  1.0000 0.1283258504
H   H91       1.0  0.18200  0.45980  0.50840  1.0000 0.1283258504
H   H92       1.0  0.45980  0.18200  0.99160  1.0000 0.1283258504
H   H93       1.0  0.70030  0.38450  0.47820  1.0000 0.1283258504
H   H94       1.0  0.38450  0.70030  0.02180  1.0000 0.1283258504
H   H95       1.0  0.29970  0.61550  0.52180  1.0000 0.1283258504
H   H96       1.0  0.61550  0.29970  0.97820  1.0000 0.1283258504
H   H97       1.0  0.76970  0.28870  0.51720  1.0000 0.1197855843
H   H98       1.0  0.28870  0.76970  0.98280  1.0000 0.1197855843
H   H99       1.0  0.23030  0.71130  0.48280  1.0000 0.1197855843
H   H100      1.0  0.71130  0.23030  0.01720  1.0000 0.1197855843
H   H101      1.0  0.06840  0.69920  0.46060  1.0000 0.1197855843
H   H102      1.0  0.69920  0.06840  0.03940  1.0000 0.1197855843
H   H103      1.0  0.93160  0.30080  0.53940  1.0000 0.1197855843
H   H104      1.0  0.30080  0.93160  0.96060  1.0000 0.1197855843
H   H105      1.0  0.77240  0.74360  0.22900  1.0000 0.2231640167
H   H106      1.0  0.74360  0.77240  0.27100  1.0000 0.2231640167
H   H107      1.0  0.22760  0.25640  0.77100  1.0000 0.2231640167
H   H108      1.0  0.25640  0.22760  0.72900  1.0000 0.2231640167
H   H109      1.0  0.79150  0.84850  0.22800  1.0000 0.1386109686
H   H110      1.0  0.84850  0.79150  0.27200  1.0000 0.1386109686
H   H111      1.0  0.20850  0.15150  0.77200  1.0000 0.1386109686
H   H112      1.0  0.15150  0.20850  0.72800  1.0000 0.1386109686
C   C1        1.0  0.33880  0.20240  0.68240  1.0000 0.5243701882
C   C2        1.0  0.20240  0.33880  0.81760  1.0000 0.5243701882
C   C3        1.0  0.66120  0.79760  0.31760  1.0000 0.5243701882
C   C4        1.0  0.79760  0.66120  0.18240  1.0000 0.5243701882
C   C5        1.0  0.43120  0.23260  0.65350  1.0000 -0.0014129635
C   C6        1.0  0.23260  0.43120  0.84650  1.0000 -0.0014129635
C   C7        1.0  0.56880  0.76740  0.34650  1.0000 -0.0014129635
C   C8        1.0  0.76740  0.56880  0.15350  1.0000 -0.0014129635
C   C9        1.0  0.42980  0.13940  0.66490  1.0000 -0.1487127497
C   C10       1.0  0.13940  0.42980  0.83510  1.0000 -0.1487127497
C   C11       1.0  0.57020  0.86060  0.33510  1.0000 -0.1487127497
C   C12       1.0  0.86060  0.57020  0.16490  1.0000 -0.1487127497
C   C13       1.0  0.52100  0.17300  0.64170  1.0000 -0.087563832
C   C14       1.0  0.17300  0.52100  0.85830  1.0000 -0.087563832
C   C15       1.0  0.47900  0.82700  0.35830  1.0000 -0.087563832
C   C16       1.0  0.82700  0.47900  0.14170  1.0000 -0.087563832
C   C17       1.0  0.61370  0.29510  0.60730  1.0000 -0.2065822424
C   C18       1.0  0.29510  0.61370  0.89270  1.0000 -0.2065822424
C   C19       1.0  0.38630  0.70490  0.39270  1.0000 -0.2065822424
C   C20       1.0  0.70490  0.38630  0.10730  1.0000 -0.2065822424
C   C21       1.0  0.61550  0.38890  0.59530  1.0000 0.24304604
C   C22       1.0  0.38890  0.61550  0.90470  1.0000 0.24304604
C   C23       1.0  0.38450  0.61110  0.40470  1.0000 0.24304604
C   C24       1.0  0.61110  0.38450  0.09530  1.0000 0.24304604
C   C25       1.0  0.52560  0.35860  0.61840  1.0000 -0.2461046778
C   C26       1.0  0.35860  0.52560  0.88160  1.0000 -0.2461046778
C   C27       1.0  0.47440  0.64140  0.38160  1.0000 -0.2461046778
C   C28       1.0  0.64140  0.47440  0.11840  1.0000 -0.2461046778
C   C29       1.0  0.73050  0.61710  0.54850  1.0000 -0.07025809
C   C30       1.0  0.61710  0.73050  0.95150  1.0000 -0.07025809
C   C31       1.0  0.26950  0.38290  0.45150  1.0000 -0.07025809
C   C32       1.0  0.38290  0.26950  0.04850  1.0000 -0.07025809
C   C33       1.0  0.85270  0.74430  0.51400  1.0000 0.0717327113
C   C34       1.0  0.74430  0.85270  0.98600  1.0000 0.0717327113
C   C35       1.0  0.14730  0.25570  0.48600  1.0000 0.0717327113
C   C36       1.0  0.25570  0.14730  0.01400  1.0000 0.0717327113
C   C37       1.0  0.84160  0.80960  0.46650  1.0000 -0.1412181796
C   C38       1.0  0.80960  0.84160  0.03350  1.0000 -0.1412181796
C   C39       1.0  0.15840  0.19040  0.53350  1.0000 -0.1412181796
C   C40       1.0  0.19040  0.15840  0.96650  1.0000 -0.1412181796
C   C41       1.0  0.95580  0.93060  0.43730  1.0000 -0.1222035724
C   C42       1.0  0.93060  0.95580  0.06270  1.0000 -0.1222035724
C   C43       1.0  0.04420  0.06940  0.56270  1.0000 -0.1222035724
C   C44       1.0  0.06940  0.04420  0.93730  1.0000 -0.1222035724
C   C45       1.0  0.08537  0.98863  0.45480  1.0000 0.0717327113
C   C46       1.0  0.98863  0.08537  0.04520  1.0000 0.0717327113
C   C47       1.0  0.91463  0.01137  0.54520  1.0000 0.0717327113
C   C48       1.0  0.01137  0.91463  0.95480  1.0000 0.0717327113
C   C49       1.0  0.09520  0.91940  0.50160  1.0000 -0.1588959723
C   C50       1.0  0.91940  0.09520  0.99840  1.0000 -0.1588959723
C   C51       1.0  0.90480  0.08060  0.49840  1.0000 -0.1588959723
C   C52       1.0  0.08060  0.90480  0.00160  1.0000 -0.1588959723
C   C53       1.0  0.98210  0.79970  0.53180  1.0000 -0.1487127497
C   C54       1.0  0.79970  0.98210  0.96820  1.0000 -0.1487127497
C   C55       1.0  0.01790  0.20030  0.46820  1.0000 -0.1487127497
C   C56       1.0  0.20030  0.01790  0.03180  1.0000 -0.1487127497
C   C57       1.0  0.21327  0.12593  0.42570  1.0000 0.0446074775
C   C58       1.0  0.12593  0.21327  0.07430  1.0000 0.0446074775
C   C59       1.0  0.78673  0.87407  0.57430  1.0000 0.0446074775
C   C60       1.0  0.87407  0.78673  0.92570  1.0000 0.0446074775
C   C61       1.0  0.34290  0.22130  0.45900  1.0000 -0.1733988875
C   C62       1.0  0.22130  0.34290  0.04100  1.0000 -0.1733988875
C   C63       1.0  0.65710  0.77870  0.54100  1.0000 -0.1733988875
C   C64       1.0  0.77870  0.65710  0.95900  1.0000 -0.1733988875
C   C65       1.0  0.46350  0.35190  0.43500  1.0000 -0.1222035724
C   C66       1.0  0.35190  0.46350  0.06500  1.0000 -0.1222035724
C   C67       1.0  0.53650  0.64810  0.56500  1.0000 -0.1222035724
C   C68       1.0  0.64810  0.53650  0.93500  1.0000 -0.1222035724
C   C69       1.0  0.45630  0.39190  0.37760  1.0000 -0.087563832
C   C70       1.0  0.39190  0.45630  0.12240  1.0000 -0.087563832
C   C71       1.0  0.54370  0.60810  0.62240  1.0000 -0.087563832
C   C72       1.0  0.60810  0.54370  0.87760  1.0000 -0.087563832
C   C73       1.0  0.32940  0.30100  0.34370  1.0000 -0.1252034956
C   C74       1.0  0.30100  0.32940  0.15630  1.0000 -0.1252034956
C   C75       1.0  0.67060  0.69900  0.65630  1.0000 -0.1252034956
C   C76       1.0  0.69900  0.67060  0.84370  1.0000 -0.1252034956
C   C77       1.0  0.20766  0.16594  0.36700  1.0000 -0.07025809
C   C78       1.0  0.16594  0.20766  0.13300  1.0000 -0.07025809
C   C79       1.0  0.79234  0.83406  0.63300  1.0000 -0.07025809
C   C80       1.0  0.83406  0.79234  0.86700  1.0000 -0.07025809
C   C81       1.0  0.08181  0.06399  0.32520  1.0000 0.5528286344
C   C82       1.0  0.06399  0.08181  0.17480  1.0000 0.5528286344
C   C83       1.0  0.91819  0.93601  0.67480  1.0000 0.5528286344
C   C84       1.0  0.93601  0.91819  0.82520  1.0000 0.5528286344
C   C85       1.0  0.27060  0.00920  0.32790  1.0000 0.1026182876
C   C86       1.0  0.00920  0.27060  0.17210  1.0000 0.1026182876
C   C87       1.0  0.72940  0.99080  0.67210  1.0000 0.1026182876
C   C88       1.0  0.99080  0.72940  0.82790  1.0000 0.1026182876
C   C89       1.0  0.15530  0.81690  0.31240  1.0000 0.1486685819
C   C90       1.0  0.81690  0.15530  0.18760  1.0000 0.1486685819
C   C91       1.0  0.84470  0.18310  0.68760  1.0000 0.1486685819
C   C92       1.0  0.18310  0.84470  0.81240  1.0000 0.1486685819
C   C93       1.0  0.49230  0.09390  0.37840  1.0000 -0.192414602
C   C94       1.0  0.09390  0.49230  0.12160  1.0000 -0.192414602
C   C95       1.0  0.50770  0.90610  0.62160  1.0000 -0.192414602
C   C96       1.0  0.90610  0.50770  0.87840  1.0000 -0.192414602
C   C97       1.0  0.49460  0.04300  0.44150  1.0000 0.0935012086
C   C98       1.0  0.04300  0.49460  0.05850  1.0000 0.0935012086
C   C99       1.0  0.50540  0.95700  0.55850  1.0000 0.0935012086
C   C100      1.0  0.95700  0.50540  0.94150  1.0000 0.0935012086
C   C101      1.0  0.55820  0.00960  0.46570  1.0000 -0.1487127497
C   C102      1.0  0.00960  0.55820  0.03430  1.0000 -0.1487127497
C   C103      1.0  0.44180  0.99040  0.53430  1.0000 -0.1487127497
C   C104      1.0  0.99040  0.44180  0.96570  1.0000 -0.1487127497
C   C105      1.0  0.43700  0.03260  0.47770  1.0000 -0.1588959723
C   C106      1.0  0.03260  0.43700  0.02230  1.0000 -0.1588959723
C   C107      1.0  0.56300  0.96740  0.52230  1.0000 -0.1588959723
C   C108      1.0  0.96740  0.56300  0.97770  1.0000 -0.1588959723
C   C109      1.0  0.86030  0.65590  0.38350  1.0000 0.0935012086
C   C110      1.0  0.65590  0.86030  0.11650  1.0000 0.0935012086
C   C111      1.0  0.13970  0.34410  0.61650  1.0000 0.0935012086
C   C112      1.0  0.34410  0.13970  0.88350  1.0000 0.0935012086
C   C113      1.0  0.76570  0.52950  0.32260  1.0000 0.1386109686
C   C114      1.0  0.52950  0.76570  0.17740  1.0000 0.1386109686
C   C115      1.0  0.23430  0.47050  0.67740  1.0000 0.1386109686
C   C116      1.0  0.47050  0.23430  0.82260  1.0000 0.1386109686
C   C117      1.0  0.79260  0.48120  0.46970  1.0000 -0.2065822424
C   C118      1.0  0.48120  0.79260  0.03030  1.0000 -0.2065822424
C   C119      1.0  0.20740  0.51880  0.53030  1.0000 -0.2065822424
C   C120      1.0  0.51880  0.20740  0.96970  1.0000 -0.2065822424
C   C121      1.0  0.89980  0.49060  0.48600  1.0000 0.1026182876
C   C122      1.0  0.49060  0.89980  0.01400  1.0000 0.1026182876
C   C123      1.0  0.10020  0.50940  0.51400  1.0000 0.1026182876
C   C124      1.0  0.50940  0.10020  0.98600  1.0000 0.1026182876
C   C125      1.0  0.86260  0.37460  0.50990  1.0000 -0.1412181796
C   C126      1.0  0.37460  0.86260  0.99010  1.0000 -0.1412181796
C   C127      1.0  0.13740  0.62540  0.49010  1.0000 -0.1412181796
C   C128      1.0  0.62540  0.13740  0.00990  1.0000 -0.1412181796
C   C129      1.0  0.04000  0.61800  0.47640  1.0000 -0.1588959723
C   C130      1.0  0.61800  0.04000  0.02360  1.0000 -0.1588959723
C   C131      1.0  0.96000  0.38200  0.52360  1.0000 -0.1588959723
C   C132      1.0  0.38200  0.96000  0.97640  1.0000 -0.1588959723
N   N1        1.0  0.78658  0.52822  0.40840  1.0000 0.1700191333
N   N2        1.0  0.52822  0.78658  0.09160  1.0000 0.1700191333
N   N3        1.0  0.21342  0.47178  0.59160  1.0000 0.1700191333
N   N4        1.0  0.47178  0.21342  0.90840  1.0000 0.1700191333
N   N5        1.0  0.72519  0.44461  0.37020  1.0000 -0.2742316478
N   N6        1.0  0.44461  0.72519  0.12980  1.0000 -0.2742316478
N   N7        1.0  0.27481  0.55539  0.62980  1.0000 -0.2742316478
N   N8        1.0  0.55539  0.27481  0.87020  1.0000 -0.2742316478
N   N9        1.0  0.85066  0.66294  0.32793  1.0000 -0.3172790164
N   N10       1.0  0.66294  0.85066  0.17207  1.0000 -0.3172790164
N   N11       1.0  0.14934  0.33706  0.67207  1.0000 -0.3172790164
N   N12       1.0  0.33706  0.14934  0.82793  1.0000 -0.3172790164
N   N13       1.0  0.34711  0.99549  0.34910  1.0000 0.1596680901
N   N14       1.0  0.99549  0.34711  0.15090  1.0000 0.1596680901
N   N15       1.0  0.65289  0.00451  0.65090  1.0000 0.1596680901
N   N16       1.0  0.00451  0.65289  0.84910  1.0000 0.1596680901
N   N17       1.0  0.27232  0.86868  0.33960  1.0000 -0.2752201909
N   N18       1.0  0.86868  0.27232  0.16040  1.0000 -0.2752201909
N   N19       1.0  0.72768  0.13132  0.66040  1.0000 -0.2752201909
N   N20       1.0  0.13132  0.72768  0.83960  1.0000 -0.2752201909
N   N21       1.0  0.14713  0.89787  0.30373  1.0000 -0.2607957103
N   N22       1.0  0.89787  0.14713  0.19627  1.0000 -0.2607957103
N   N23       1.0  0.85287  0.10213  0.69627  1.0000 -0.2607957103
N   N24       1.0  0.10213  0.85287  0.80373  1.0000 -0.2607957103
O   O1        1.0  0.34968  0.29052  0.67620  1.0000 -0.5143642777
O   O2        1.0  0.29052  0.34968  0.82380  1.0000 -0.5143642777
O   O3        1.0  0.65032  0.70948  0.32380  1.0000 -0.5219469926
O   O4        1.0  0.70948  0.65032  0.17620  1.0000 -0.5143642777
O   O5        1.0  0.25514  0.08466  0.71276  1.0000 -0.5219469926
O   O6        1.0  0.08466  0.25514  0.78724  1.0000 -0.5219469926
O   O7        1.0  0.74486  0.91534  0.28724  1.0000 -0.5219469926
O   O8        1.0  0.91534  0.74486  0.21276  1.0000 -0.5219469926
O   O9        1.0  0.71525  0.51155  0.55958  1.0000 -0.2065822424
O   O10       1.0  0.51155  0.71525  0.94042  1.0000 -0.2065822424
O   O11       1.0  0.28475  0.48845  0.44042  1.0000 -0.2065822424
O   O12       1.0  0.48845  0.28475  0.05958  1.0000 -0.2065822424
O   O13       1.0  0.03507  0.09793  0.28682  1.0000 -0.5219469926
O   O14       1.0  0.09793  0.03507  0.21318  1.0000 -0.5219469926
O   O15       1.0  0.96493  0.90207  0.71318  1.0000 -0.5219469926
O   O16       1.0  0.90207  0.96493  0.78682  1.0000 -0.5219469926
O   O17       1.0  0.03682  0.95118  0.33248  1.0000 -0.5219469926
O   O18       1.0  0.95118  0.03682  0.16752  1.0000 -0.5219469926
O   O19       1.0  0.96318  0.04882  0.66752  1.0000 -0.5219469926
O   O20       1.0  0.04882  0.96318  0.83248  1.0000 -0.5219469926
O   O21       1.0  0.79510  0.79510  0.25000  1.0000 -0.4792118424
O   O22       1.0  0.20490  0.20490  0.75000  1.0000 -0.4792118424
