# DDEC6 charges by PACMAN v1.1 (https://github.com/mtap-research/PACMAN-charge/)
data_2014[Cd][nan]3[FSR]4
_chemical_formula_sum              "Cd16 H88 C120 N56 O48"
_cell_length_a       17.0596
_cell_length_b       17.0596
_cell_length_c       17.274
_cell_angle_alpha    90
_cell_angle_beta     90
_cell_angle_gamma    121.598

_symmetry_space_group_name_H-M    "P 1"
_symmetry_Int_Tables_number       1

loop_
  _symmetry_equiv_pos_as_xyz
  'x, y, z'

loop_
  _atom_site_type_symbol
  _atom_site_label
  _atom_site_symmetry_multiplicity
  _atom_site_fract_x
  _atom_site_fract_y
  _atom_site_fract_z
  _atom_site_occupancy
  _atom_site_charge
Cd  Cd1       1.0  0.24600  0.74566  0.88406  1.0000 0.8011162866
Cd  Cd2       1.0  0.75400  0.25434  0.38406  1.0000 0.8011162866
Cd  Cd3       1.0  0.74566  0.24600  0.11594  1.0000 0.8011162866
Cd  Cd4       1.0  0.25434  0.75400  0.61594  1.0000 0.8011162866
Cd  Cd5       1.0  0.24599  0.25311  0.13423  1.0000 0.8011162866
Cd  Cd6       1.0  0.75401  0.74689  0.63423  1.0000 0.8011162866
Cd  Cd7       1.0  0.25311  0.24599  0.86577  1.0000 0.8011162866
Cd  Cd8       1.0  0.74689  0.75401  0.36577  1.0000 0.8011162866
Cd  Cd9       1.0  0.03126  0.52248  0.73511  1.0000 0.8984339599
Cd  Cd10      1.0  0.96874  0.47752  0.23511  1.0000 0.8984339599
Cd  Cd11      1.0  0.52248  0.03126  0.26489  1.0000 0.8984339599
Cd  Cd12      1.0  0.47752  0.96874  0.76489  1.0000 0.8984339599
Cd  Cd13      1.0  0.47169  0.47169  0.00000  1.0000 0.8354838256
Cd  Cd14      1.0  0.52831  0.52831  0.50000  1.0000 0.8354838256
Cd  Cd15      1.0  0.02545  0.02545  0.00000  1.0000 0.8774816159
Cd  Cd16      1.0  0.97455  0.97455  0.50000  1.0000 0.8774816159
H   H1        1.0  0.87720  0.23440  0.94840  1.0000 0.1405685682
H   H2        1.0  0.12280  0.76560  0.44840  1.0000 0.1405685682
H   H3        1.0  0.23440  0.87720  0.05160  1.0000 0.1405685682
H   H4        1.0  0.76560  0.12280  0.55160  1.0000 0.1405685682
H   H5        1.0  0.40680  0.55200  0.87210  1.0000 0.1214210724
H   H6        1.0  0.59320  0.44800  0.37210  1.0000 0.1214210724
H   H7        1.0  0.55200  0.40680  0.12790  1.0000 0.1214210724
H   H8        1.0  0.44800  0.59320  0.62790  1.0000 0.1214210724
H   H9        1.0  0.92760  0.51440  0.91920  1.0000 0.1405685682
H   H10       1.0  0.07240  0.48560  0.41920  1.0000 0.1405685682
H   H11       1.0  0.51440  0.92760  0.08080  1.0000 0.1405685682
H   H12       1.0  0.48560  0.07240  0.58080  1.0000 0.1405685682
H   H13       1.0  0.97480  0.45740  0.92980  1.0000 0.1405685682
H   H14       1.0  0.02520  0.54260  0.42980  1.0000 0.1405685682
H   H15       1.0  0.45740  0.97480  0.07020  1.0000 0.1405685682
H   H16       1.0  0.54260  0.02520  0.57020  1.0000 0.1405685682
H   H17       1.0  0.05320  0.41640  0.11030  1.0000 0.1283025652
H   H18       1.0  0.94680  0.58360  0.61030  1.0000 0.1283025652
H   H19       1.0  0.41640  0.05320  0.88970  1.0000 0.1283025652
H   H20       1.0  0.58360  0.94680  0.38970  1.0000 0.1283025652
H   H21       1.0  0.03770  0.33730  0.32600  1.0000 0.1283025652
H   H22       1.0  0.96230  0.66270  0.82600  1.0000 0.1283025652
H   H23       1.0  0.33730  0.03770  0.67400  1.0000 0.1283025652
H   H24       1.0  0.66270  0.96230  0.17400  1.0000 0.1283025652
H   H25       1.0  0.94250  0.08650  0.12720  1.0000 0.1214210724
H   H26       1.0  0.05750  0.91350  0.62720  1.0000 0.1214210724
H   H27       1.0  0.08650  0.94250  0.87280  1.0000 0.1214210724
H   H28       1.0  0.91350  0.05750  0.37280  1.0000 0.1214210724
H   H29       1.0  0.25470  0.61170  0.05060  1.0000 0.1458445516
H   H30       1.0  0.74530  0.38830  0.55060  1.0000 0.1458445516
H   H31       1.0  0.61170  0.25470  0.94940  1.0000 0.1458445516
H   H32       1.0  0.38830  0.74530  0.44940  1.0000 0.1458445516
H   H33       1.0  0.32150  0.53050  0.08270  1.0000 0.1214210724
H   H34       1.0  0.67850  0.46950  0.58270  1.0000 0.1214210724
H   H35       1.0  0.53050  0.32150  0.91730  1.0000 0.1214210724
H   H36       1.0  0.46950  0.67850  0.41730  1.0000 0.1214210724
H   H37       1.0  0.95820  0.16760  0.91590  1.0000 0.1283025652
H   H38       1.0  0.04180  0.83240  0.41590  1.0000 0.1283025652
H   H39       1.0  0.16760  0.95820  0.08410  1.0000 0.1283025652
H   H40       1.0  0.83240  0.04180  0.58410  1.0000 0.1283025652
H   H41       1.0  0.94750  0.55610  0.04070  1.0000 0.1405685682
H   H42       1.0  0.05250  0.44390  0.54070  1.0000 0.1405685682
H   H43       1.0  0.55610  0.94750  0.95930  1.0000 0.1405685682
H   H44       1.0  0.44390  0.05250  0.45930  1.0000 0.1405685682
H   H45       1.0  0.01920  0.52660  0.05380  1.0000 0.1283025652
H   H46       1.0  0.98080  0.47340  0.55380  1.0000 0.1283025652
H   H47       1.0  0.52660  0.01920  0.94620  1.0000 0.1283025652
H   H48       1.0  0.47340  0.98080  0.44620  1.0000 0.1283025652
H   H49       1.0  0.78910  0.22830  0.68180  1.0000 0.1283025652
H   H50       1.0  0.21090  0.77170  0.18180  1.0000 0.1283025652
H   H51       1.0  0.22830  0.78910  0.31820  1.0000 0.1283025652
H   H52       1.0  0.77170  0.21090  0.81820  1.0000 0.1283025652
H   H53       1.0  0.73690  0.28130  0.68200  1.0000 0.1283025652
H   H54       1.0  0.26310  0.71870  0.18200  1.0000 0.1283025652
H   H55       1.0  0.28130  0.73690  0.31800  1.0000 0.1283025652
H   H56       1.0  0.71870  0.26310  0.81800  1.0000 0.1283025652
H   H57       1.0  0.11620  0.26800  0.29360  1.0000 0.1283025652
H   H58       1.0  0.88380  0.73200  0.79360  1.0000 0.1283025652
H   H59       1.0  0.26800  0.11620  0.70640  1.0000 0.1283025652
H   H60       1.0  0.73200  0.88380  0.20640  1.0000 0.1283025652
H   H61       1.0  0.08510  0.43850  0.86480  1.0000 0.1283025652
H   H62       1.0  0.91490  0.56150  0.36480  1.0000 0.1283025652
H   H63       1.0  0.43850  0.08510  0.13520  1.0000 0.1283025652
H   H64       1.0  0.56150  0.91490  0.63520  1.0000 0.1283025652
H   H65       1.0  0.17860  0.45980  0.65340  1.0000 0.1214210724
H   H66       1.0  0.82140  0.54020  0.15340  1.0000 0.1214210724
H   H67       1.0  0.45980  0.17860  0.34660  1.0000 0.1214210724
H   H68       1.0  0.54020  0.82140  0.84660  1.0000 0.1214210724
H   H69       1.0  0.24870  0.37990  0.69140  1.0000 0.1214210724
H   H70       1.0  0.75130  0.62010  0.19140  1.0000 0.1214210724
H   H71       1.0  0.37990  0.24870  0.30860  1.0000 0.1214210724
H   H72       1.0  0.62010  0.75130  0.80860  1.0000 0.1214210724
H   H73       1.0  0.96710  0.97690  0.18560  1.0000 0.1283025652
H   H74       1.0  0.03290  0.02310  0.68560  1.0000 0.1214210724
H   H75       1.0  0.97690  0.96710  0.81440  1.0000 0.1283025652
H   H76       1.0  0.02310  0.03290  0.31440  1.0000 0.1283025652
H   H77       1.0  0.03250  0.93830  0.18710  1.0000 0.1405685682
H   H78       1.0  0.96750  0.06170  0.68710  1.0000 0.1405685682
H   H79       1.0  0.93830  0.03250  0.81290  1.0000 0.1405685682
H   H80       1.0  0.06170  0.96750  0.31290  1.0000 0.1405685682
H   H81       1.0  0.46830  0.56910  0.18300  1.0000 0.1405685682
H   H82       1.0  0.53170  0.43090  0.68300  1.0000 0.1405685682
H   H83       1.0  0.56910  0.46830  0.81700  1.0000 0.1405685682
H   H84       1.0  0.43090  0.53170  0.31700  1.0000 0.1405685682
H   H85       1.0  0.53220  0.52800  0.18250  1.0000 0.1105330054
H   H86       1.0  0.46780  0.47200  0.68250  1.0000 0.1105330054
H   H87       1.0  0.52800  0.53220  0.81750  1.0000 0.1105330054
H   H88       1.0  0.47200  0.46780  0.31750  1.0000 0.1105330054
C   C1        1.0  0.85690  0.15970  0.19210  1.0000 0.2279037748
C   C2        1.0  0.14310  0.84030  0.69210  1.0000 0.2279037748
C   C3        1.0  0.15970  0.85690  0.80790  1.0000 0.2279037748
C   C4        1.0  0.84030  0.14310  0.30790  1.0000 0.2279037748
C   C5        1.0  0.33500  0.61120  0.88970  1.0000 0.1283025652
C   C6        1.0  0.66500  0.38880  0.38970  1.0000 0.1283025652
C   C7        1.0  0.61120  0.33500  0.11030  1.0000 0.1283025652
C   C8        1.0  0.38880  0.66500  0.61030  1.0000 0.1283025652
C   C9        1.0  0.89120  0.20500  0.98650  1.0000 0.0306363295
C   C10       1.0  0.10880  0.79500  0.48650  1.0000 0.0306363295
C   C11       1.0  0.20500  0.89120  0.01350  1.0000 0.0306363295
C   C12       1.0  0.79500  0.10880  0.51350  1.0000 0.0306363295
C   C13       1.0  0.37650  0.56450  0.91050  1.0000 -0.0417854238
C   C14       1.0  0.62350  0.43550  0.41050  1.0000 -0.0417854238
C   C15       1.0  0.56450  0.37650  0.08950  1.0000 -0.0417854238
C   C16       1.0  0.43550  0.62350  0.58950  1.0000 -0.0417854238
C   C17       1.0  0.97760  0.51360  0.94510  1.0000 -0.3099647952
C   C18       1.0  0.02240  0.48640  0.44510  1.0000 -0.3099647952
C   C19       1.0  0.51360  0.97760  0.05490  1.0000 -0.3179463979
C   C20       1.0  0.48640  0.02240  0.55490  1.0000 -0.3099647952
C   C21       1.0  0.06620  0.59320  0.91660  1.0000 0.6185814131
C   C22       1.0  0.93380  0.40680  0.41660  1.0000 0.6185814131
C   C23       1.0  0.59320  0.06620  0.08340  1.0000 0.6185814131
C   C24       1.0  0.40680  0.93380  0.58340  1.0000 0.6185814131
C   C25       1.0  0.88800  0.41980  0.05820  1.0000 0.6117609505
C   C26       1.0  0.11200  0.58020  0.55820  1.0000 0.6117609505
C   C27       1.0  0.41980  0.88800  0.94180  1.0000 0.6117609505
C   C28       1.0  0.58020  0.11200  0.44180  1.0000 0.6117609505
C   C29       1.0  0.16160  0.35700  0.93110  1.0000 0.2069682627
C   C30       1.0  0.83840  0.64300  0.43110  1.0000 0.2069682627
C   C31       1.0  0.35700  0.16160  0.06890  1.0000 0.2069682627
C   C32       1.0  0.64300  0.83840  0.56890  1.0000 0.2069682627
C   C33       1.0  0.16380  0.38400  0.85090  1.0000 0.1105330054
C   C34       1.0  0.83620  0.61600  0.35090  1.0000 0.1105330054
C   C35       1.0  0.38400  0.16380  0.14910  1.0000 0.1105330054
C   C36       1.0  0.61600  0.83620  0.64910  1.0000 0.1105330054
C   C37       1.0  0.06400  0.38480  0.14850  1.0000 0.0306363295
C   C38       1.0  0.93600  0.61520  0.64850  1.0000 0.0306363295
C   C39       1.0  0.38480  0.06400  0.85150  1.0000 0.0306363295
C   C40       1.0  0.61520  0.93600  0.35150  1.0000 0.0306363295
C   C41       1.0  0.88310  0.15970  0.11020  1.0000 0.1283025652
C   C42       1.0  0.11690  0.84030  0.61020  1.0000 0.1283025652
C   C43       1.0  0.15970  0.88310  0.88980  1.0000 0.1283025652
C   C44       1.0  0.84030  0.11690  0.38980  1.0000 0.1283025652
C   C45       1.0  0.14020  0.33900  0.05200  1.0000 0.2069682627
C   C46       1.0  0.85980  0.66100  0.55200  1.0000 0.2069682627
C   C47       1.0  0.33900  0.14020  0.94800  1.0000 0.2049446765
C   C48       1.0  0.66100  0.85980  0.44800  1.0000 0.2069682627
C   C49       1.0  0.10890  0.34050  0.12920  1.0000 0.0853125963
C   C50       1.0  0.89110  0.65950  0.62920  1.0000 0.0853125963
C   C51       1.0  0.34050  0.10890  0.87080  1.0000 0.0853125963
C   C52       1.0  0.65950  0.89110  0.37080  1.0000 0.0853125963
C   C53       1.0  0.05600  0.33920  0.27500  1.0000 -0.0135236133
C   C54       1.0  0.94400  0.66080  0.77500  1.0000 -0.0135236133
C   C55       1.0  0.33920  0.05600  0.72500  1.0000 -0.0135236133
C   C56       1.0  0.66080  0.94400  0.22500  1.0000 -0.0135236133
C   C57       1.0  0.93000  0.11680  0.08900  1.0000 -0.0176792985
C   C58       1.0  0.07000  0.88320  0.58900  1.0000 -0.0176792985
C   C59       1.0  0.11680  0.93000  0.91100  1.0000 -0.0176792985
C   C60       1.0  0.88320  0.07000  0.41100  1.0000 -0.0176792985
C   C61       1.0  0.28570  0.59950  0.01270  1.0000 0.021034492
C   C62       1.0  0.71430  0.40050  0.51270  1.0000 0.021034492
C   C63       1.0  0.59950  0.28570  0.98730  1.0000 0.021034492
C   C64       1.0  0.40050  0.71430  0.48730  1.0000 0.021034492
C   C65       1.0  0.32740  0.55220  0.03230  1.0000 -0.0025132955
C   C66       1.0  0.67260  0.44780  0.53230  1.0000 -0.0025132955
C   C67       1.0  0.55220  0.32740  0.96770  1.0000 -0.0025132955
C   C68       1.0  0.44780  0.67260  0.46770  1.0000 -0.0025132955
C   C69       1.0  0.33940  0.64020  0.80550  1.0000 0.2279037748
C   C70       1.0  0.66060  0.35980  0.30550  1.0000 0.2279037748
C   C71       1.0  0.64020  0.33940  0.19450  1.0000 0.2279037748
C   C72       1.0  0.35980  0.66060  0.69450  1.0000 0.2279037748
C   C73       1.0  0.93870  0.16330  0.96680  1.0000 -0.0025132955
C   C74       1.0  0.06130  0.83670  0.46680  1.0000 -0.0025132955
C   C75       1.0  0.16330  0.93870  0.03320  1.0000 -0.0025132955
C   C76       1.0  0.83670  0.06130  0.53320  1.0000 -0.0025132955
C   C77       1.0  0.86680  0.35800  0.72350  1.0000 0.6117609505
C   C78       1.0  0.13320  0.64200  0.22350  1.0000 0.6117609505
C   C79       1.0  0.35800  0.86680  0.27650  1.0000 0.6117609505
C   C80       1.0  0.64200  0.13320  0.77650  1.0000 0.6117609505
C   C81       1.0  0.96220  0.51000  0.02760  1.0000 -0.3179463979
C   C82       1.0  0.03780  0.49000  0.52760  1.0000 -0.3179463979
C   C83       1.0  0.51000  0.96220  0.97240  1.0000 -0.3179463979
C   C84       1.0  0.49000  0.03780  0.47240  1.0000 -0.3179463979
C   C85       1.0  0.77790  0.26950  0.71170  1.0000 -0.2963659104
C   C86       1.0  0.22210  0.73050  0.21170  1.0000 -0.2963659104
C   C87       1.0  0.26950  0.77790  0.28830  1.0000 -0.2963659104
C   C88       1.0  0.73050  0.22210  0.78830  1.0000 -0.2963659104
C   C89       1.0  0.10320  0.29740  0.25500  1.0000 0.0730071951
C   C90       1.0  0.89680  0.70260  0.75500  1.0000 0.0730071951
C   C91       1.0  0.29740  0.10320  0.74500  1.0000 0.0730071951
C   C92       1.0  0.70260  0.89680  0.24500  1.0000 0.0730071951
C   C93       1.0  0.11890  0.42810  0.82860  1.0000 0.021034492
C   C94       1.0  0.88110  0.57190  0.32860  1.0000 0.021034492
C   C95       1.0  0.42810  0.11890  0.17140  1.0000 0.021034492
C   C96       1.0  0.57190  0.88110  0.67140  1.0000 0.021034492
C   C97       1.0  0.17300  0.43960  0.70430  1.0000 0.0110612553
C   C98       1.0  0.82700  0.56040  0.20430  1.0000 0.0110612553
C   C99       1.0  0.43960  0.17300  0.29570  1.0000 0.0110612553
C   C100      1.0  0.56040  0.82700  0.79570  1.0000 0.0110612553
C   C101      1.0  0.21610  0.39190  0.72780  1.0000 0.0635287601
C   C102      1.0  0.78390  0.60810  0.22780  1.0000 0.0635287601
C   C103      1.0  0.39190  0.21610  0.27220  1.0000 0.0635287601
C   C104      1.0  0.60810  0.78390  0.77220  1.0000 0.0635287601
C   C105      1.0  0.02400  0.98640  0.20730  1.0000 -0.3099647952
C   C106      1.0  0.97600  0.01360  0.70730  1.0000 -0.3099647952
C   C107      1.0  0.98640  0.02400  0.79270  1.0000 -0.3099647952
C   C108      1.0  0.01360  0.97600  0.29270  1.0000 -0.3099647952
C   C109      1.0  0.47550  0.52010  0.20320  1.0000 -0.3179463979
C   C110      1.0  0.52450  0.47990  0.70320  1.0000 -0.3179463979
C   C111      1.0  0.52010  0.47550  0.79680  1.0000 -0.3179463979
C   C112      1.0  0.47990  0.52450  0.29680  1.0000 -0.3179463979
C   C113      1.0  0.10450  0.08050  0.17880  1.0000 0.6117609505
C   C114      1.0  0.89550  0.91950  0.67880  1.0000 0.6117609505
C   C115      1.0  0.08050  0.10450  0.82120  1.0000 0.6117609505
C   C116      1.0  0.91950  0.89550  0.32120  1.0000 0.6117609505
C   C117      1.0  0.39170  0.42430  0.17830  1.0000 0.6185814131
C   C118      1.0  0.60830  0.57570  0.67830  1.0000 0.6185814131
C   C119      1.0  0.42430  0.39170  0.82170  1.0000 0.6185814131
C   C120      1.0  0.57570  0.60830  0.32170  1.0000 0.6185814131
N   N1        1.0  0.29790  0.68530  0.78910  1.0000 -0.2104172671
N   N2        1.0  0.70210  0.31470  0.28910  1.0000 -0.2104172671
N   N3        1.0  0.68530  0.29790  0.21090  1.0000 -0.2104172671
N   N4        1.0  0.31470  0.70210  0.71090  1.0000 -0.2104172671
N   N5        1.0  0.86430  0.20450  0.05990  1.0000 -0.2104172671
N   N6        1.0  0.13570  0.79550  0.55990  1.0000 -0.2104172671
N   N7        1.0  0.20450  0.86430  0.94010  1.0000 -0.2104172671
N   N8        1.0  0.79550  0.13570  0.44010  1.0000 -0.2104172671
N   N9        1.0  0.81240  0.20140  0.21100  1.0000 -0.2104172671
N   N10       1.0  0.18760  0.79860  0.71100  1.0000 -0.2104172671
N   N11       1.0  0.20140  0.81240  0.78900  1.0000 -0.2104172671
N   N12       1.0  0.79860  0.18760  0.28900  1.0000 -0.2104172671
N   N13       1.0  0.28860  0.62920  0.93840  1.0000 -0.2104172671
N   N14       1.0  0.71140  0.37080  0.43840  1.0000 -0.2104172671
N   N15       1.0  0.62920  0.28860  0.06160  1.0000 -0.2104172671
N   N16       1.0  0.37080  0.71140  0.56160  1.0000 -0.2104172671
N   N17       1.0  0.87740  0.12260  0.25000  1.0000 -0.4058049556
N   N18       1.0  0.12260  0.87740  0.75000  1.0000 -0.4058049556
N   N19       1.0  0.18970  0.30050  0.03290  1.0000 -0.2170419593
N   N20       1.0  0.81030  0.69950  0.53290  1.0000 -0.2170419593
N   N21       1.0  0.30050  0.18970  0.96710  1.0000 -0.2170419593
N   N22       1.0  0.69950  0.81030  0.46710  1.0000 -0.2170419593
N   N23       1.0  0.13090  0.29650  0.18410  1.0000 -0.2310756382
N   N24       1.0  0.86910  0.70350  0.68410  1.0000 -0.2310756382
N   N25       1.0  0.29650  0.13090  0.81590  1.0000 -0.2310756382
N   N26       1.0  0.70350  0.86910  0.31590  1.0000 -0.2310756382
N   N27       1.0  0.20180  0.30940  0.95500  1.0000 -0.2170419593
N   N28       1.0  0.79820  0.69060  0.45500  1.0000 -0.2170419593
N   N29       1.0  0.30940  0.20180  0.04500  1.0000 -0.2170419593
N   N30       1.0  0.69060  0.79820  0.54500  1.0000 -0.2170419593
N   N31       1.0  0.37810  0.62190  0.75000  1.0000 -0.3962163266
N   N32       1.0  0.62190  0.37810  0.25000  1.0000 -0.3962163266
N   N33       1.0  0.03550  0.38370  0.22020  1.0000 -0.1786673229
N   N34       1.0  0.96450  0.61630  0.72020  1.0000 -0.1786673229
N   N35       1.0  0.38370  0.03550  0.77980  1.0000 -0.1786673229
N   N36       1.0  0.61630  0.96450  0.27980  1.0000 -0.1786673229
N   N37       1.0  0.12200  0.37680  0.98930  1.0000 -0.4231247093
N   N38       1.0  0.87800  0.62320  0.48930  1.0000 -0.4231247093
N   N39       1.0  0.37680  0.12200  0.01070  1.0000 -0.4231247093
N   N40       1.0  0.62320  0.87800  0.51070  1.0000 -0.4231247093
N   N41       1.0  0.95790  0.11670  0.01800  1.0000 -0.1872747328
N   N42       1.0  0.04210  0.88330  0.51800  1.0000 -0.1872747328
N   N43       1.0  0.11670  0.95790  0.98200  1.0000 -0.1872747328
N   N44       1.0  0.88330  0.04210  0.48200  1.0000 -0.1872747328
N   N45       1.0  0.21150  0.36370  0.80030  1.0000 -0.2310756382
N   N46       1.0  0.78850  0.63630  0.30030  1.0000 -0.2310756382
N   N47       1.0  0.36370  0.21150  0.19970  1.0000 -0.2310756382
N   N48       1.0  0.63630  0.78850  0.69970  1.0000 -0.2310756382
N   N49       1.0  0.37660  0.53560  0.98120  1.0000 -0.2007470775
N   N50       1.0  0.62340  0.46440  0.48120  1.0000 -0.2007470775
N   N51       1.0  0.53560  0.37660  0.01880  1.0000 -0.2007470775
N   N52       1.0  0.46440  0.62340  0.51880  1.0000 -0.2007470775
N   N53       1.0  0.12340  0.45600  0.75540  1.0000 -0.1786673229
N   N54       1.0  0.87660  0.54400  0.25540  1.0000 -0.1786673229
N   N55       1.0  0.45600  0.12340  0.24460  1.0000 -0.1786673229
N   N56       1.0  0.54400  0.87660  0.74460  1.0000 -0.1786673229
O   O1        1.0  0.08990  0.59890  0.84640  1.0000 -0.5973349671
O   O2        1.0  0.91010  0.40110  0.34640  1.0000 -0.5973349671
O   O3        1.0  0.59890  0.08990  0.15360  1.0000 -0.5973349671
O   O4        1.0  0.40110  0.91010  0.65360  1.0000 -0.5973349671
O   O5        1.0  0.82730  0.35730  0.01560  1.0000 -0.5231217008
O   O6        1.0  0.17270  0.64270  0.51560  1.0000 -0.5231217008
O   O7        1.0  0.35730  0.82730  0.98440  1.0000 -0.5231217008
O   O8        1.0  0.64270  0.17270  0.48440  1.0000 -0.5231217008
O   O9        1.0  0.12060  0.65700  0.96260  1.0000 -0.5231217008
O   O10       1.0  0.87940  0.34300  0.46260  1.0000 -0.5231217008
O   O11       1.0  0.65700  0.12060  0.03740  1.0000 -0.5231217008
O   O12       1.0  0.34300  0.87940  0.53740  1.0000 -0.5231217008
O   O13       1.0  0.32990  0.37350  0.22310  1.0000 -0.5035540547
O   O14       1.0  0.67010  0.62650  0.72310  1.0000 -0.5035540547
O   O15       1.0  0.37350  0.32990  0.77690  1.0000 -0.5035540547
O   O16       1.0  0.62650  0.67010  0.27690  1.0000 -0.5035540547
O   O17       1.0  0.15990  0.13670  0.22310  1.0000 -0.4880032327
O   O18       1.0  0.84010  0.86330  0.72310  1.0000 -0.4880032327
O   O19       1.0  0.13670  0.15990  0.77690  1.0000 -0.4880032327
O   O20       1.0  0.86330  0.84010  0.27690  1.0000 -0.4880032327
O   O21       1.0  0.88070  0.40330  0.13060  1.0000 -0.5888810244
O   O22       1.0  0.11930  0.59670  0.63060  1.0000 -0.5888810244
O   O23       1.0  0.40330  0.88070  0.86940  1.0000 -0.5888810244
O   O24       1.0  0.59670  0.11930  0.36940  1.0000 -0.5888810244
O   O25       1.0  0.39220  0.40720  0.10550  1.0000 -0.6167789932
O   O26       1.0  0.60780  0.59280  0.60550  1.0000 -0.6167789932
O   O27       1.0  0.40720  0.39220  0.89450  1.0000 -0.6167789932
O   O28       1.0  0.59280  0.60780  0.39450  1.0000 -0.6167789932
O   O29       1.0  0.10410  0.09430  0.10380  1.0000 -0.6369394298
O   O30       1.0  0.89590  0.90570  0.60380  1.0000 -0.6369394298
O   O31       1.0  0.09430  0.10410  0.89620  1.0000 -0.6369394298
O   O32       1.0  0.90570  0.89590  0.39620  1.0000 -0.6369394298
O   O33       1.0  0.92020  0.37000  0.78090  1.0000 -0.5973349671
O   O34       1.0  0.07980  0.63000  0.28090  1.0000 -0.5973349671
O   O35       1.0  0.37000  0.92020  0.21910  1.0000 -0.5973349671
O   O36       1.0  0.63000  0.07980  0.71910  1.0000 -0.5973349671
O   O37       1.0  0.88930  0.41990  0.67560  1.0000 -0.572936767
O   O38       1.0  0.11070  0.58010  0.17560  1.0000 -0.572936767
O   O39       1.0  0.41990  0.88930  0.32440  1.0000 -0.572936767
O   O40       1.0  0.58010  0.11070  0.82440  1.0000 -0.572936767
O   O41       1.0  0.61580  0.61440  0.96990  1.0000 0.0110612553
O   O42       1.0  0.38420  0.38560  0.46990  1.0000 0.0110612553
O   O43       1.0  0.61440  0.61580  0.03010  1.0000 0.0110612553
O   O44       1.0  0.38560  0.38420  0.53010  1.0000 0.0049142798
O   O45       1.0  0.88240  0.88780  0.96140  1.0000 -0.2837007082
O   O46       1.0  0.11760  0.11220  0.46140  1.0000 -0.2837007082
O   O47       1.0  0.88780  0.88240  0.03860  1.0000 -0.285068744
O   O48       1.0  0.11220  0.11760  0.53860  1.0000 -0.2837007082
