# DDEC6 charges by PACMAN v1.1 (https://github.com/mtap-research/PACMAN-charge/)
data_2014[Nd][fit]3[FSR]2
_chemical_formula_sum              "Nd2 H38 C68 O16"
_cell_length_a       9.5256
_cell_length_b       12.1272
_cell_length_c       15.8886
_cell_angle_alpha    88.508
_cell_angle_beta     105.323
_cell_angle_gamma    109.621

_symmetry_space_group_name_H-M    "P 1"
_symmetry_Int_Tables_number       1

loop_
  _symmetry_equiv_pos_as_xyz
  'x, y, z'

loop_
  _atom_site_type_symbol
  _atom_site_label
  _atom_site_symmetry_multiplicity
  _atom_site_fract_x
  _atom_site_fract_y
  _atom_site_fract_z
  _atom_site_occupancy
  _atom_site_charge
Nd  Nd1       1.0  0.29541  0.02420  0.98161  1.0000 2.1475442474
Nd  Nd2       1.0  0.70459  0.97580  0.01839  1.0000 2.1475442474
H   H1        1.0  0.98740  0.19520  0.94020  1.0000 0.3698423033
H   H2        1.0  0.01260  0.80480  0.05980  1.0000 0.3698423033
H   H3        1.0  0.33690  0.70660  0.48330  1.0000 0.1174167451
H   H4        1.0  0.66310  0.29340  0.51670  1.0000 0.1174167451
H   H5        1.0  0.17610  0.30170  0.48430  1.0000 0.1174167451
H   H6        1.0  0.82390  0.69830  0.51570  1.0000 0.1174167451
H   H7        1.0  0.26460  0.25160  0.62000  1.0000 0.1174167451
H   H8        1.0  0.73540  0.74840  0.38000  1.0000 0.1174167451
H   H9        1.0  0.21200  0.15240  0.74120  1.0000 0.1270648986
H   H10       1.0  0.78800  0.84760  0.25880  1.0000 0.1270648986
H   H11       1.0  0.04110  0.39640  0.80040  1.0000 0.1114428708
H   H12       1.0  0.95890  0.60360  0.19960  1.0000 0.1114428708
H   H13       1.0  0.08710  0.49230  0.67700  1.0000 0.1114428708
H   H14       1.0  0.91290  0.50770  0.32300  1.0000 0.1114428708
H   H15       1.0  0.46590  0.61420  0.72130  1.0000 0.1114428708
H   H16       1.0  0.53410  0.38580  0.27870  1.0000 0.1114428708
H   H17       1.0  0.50450  0.75190  0.83290  1.0000 0.1270648986
H   H18       1.0  0.49550  0.24810  0.16710  1.0000 0.1270648986
H   H19       1.0  0.15350  0.84690  0.68420  1.0000 0.1270648986
H   H20       1.0  0.84650  0.15310  0.31580  1.0000 0.1270648986
H   H21       1.0  0.13160  0.72400  0.56800  1.0000 0.1174167451
H   H22       1.0  0.86840  0.27600  0.43200  1.0000 0.1174167451
H   H23       1.0  0.22570  0.74890  0.34670  1.0000 0.1114428708
H   H24       1.0  0.77430  0.25110  0.65330  1.0000 0.1114428708
H   H25       1.0  0.27200  0.85220  0.22630  1.0000 0.1270648986
H   H26       1.0  0.72800  0.14780  0.77370  1.0000 0.1270648986
H   H27       1.0  0.49010  0.63730  0.17430  1.0000 0.1174167451
H   H28       1.0  0.50990  0.36270  0.82570  1.0000 0.1174167451
H   H29       1.0  0.43110  0.52810  0.29010  1.0000 0.1114428708
H   H30       1.0  0.56890  0.47190  0.70990  1.0000 0.1114428708
H   H31       1.0  0.05370  0.43070  0.24550  1.0000 0.1114428708
H   H32       1.0  0.94630  0.56930  0.75450  1.0000 0.1114428708
H   H33       1.0  0.98820  0.30380  0.12260  1.0000 0.1270648986
H   H34       1.0  0.01180  0.69620  0.87740  1.0000 0.1270648986
H   H35       1.0  0.26610  0.13380  0.25940  1.0000 0.1270648986
H   H36       1.0  0.73390  0.86620  0.74060  1.0000 0.1270648986
H   H37       1.0  0.31680  0.25230  0.38550  1.0000 0.1174167451
H   H38       1.0  0.68320  0.74770  0.61450  1.0000 0.1174167451
C   C1        1.0  0.22420  0.44910  0.55970  1.0000 0.0298238521
C   C2        1.0  0.77580  0.55090  0.44030  1.0000 0.0298238521
C   C3        1.0  0.27310  0.57250  0.55870  1.0000 0.0298238521
C   C4        1.0  0.72690  0.42750  0.44130  1.0000 0.0298238521
C   C5        1.0  0.30250  0.62350  0.48310  1.0000 -0.1930100198
C   C6        1.0  0.69750  0.37650  0.51690  1.0000 -0.1930100198
C   C7        1.0  0.28430  0.55910  0.40650  1.0000 0.0298238521
C   C8        1.0  0.71570  0.44090  0.59350  1.0000 0.0298238521
C   C9        1.0  0.23280  0.43590  0.40700  1.0000 0.0298238521
C   C10       1.0  0.76720  0.56410  0.59300  1.0000 0.0298238521
C   C11       1.0  0.20700  0.38480  0.48370  1.0000 -0.196929949
C   C12       1.0  0.79300  0.61520  0.51630  1.0000 -0.196929949
C   C13       1.0  0.18640  0.38500  0.63660  1.0000 0.077188033
C   C14       1.0  0.81360  0.61500  0.36340  1.0000 0.077188033
C   C15       1.0  0.21950  0.28150  0.65670  1.0000 -0.1523136596
C   C16       1.0  0.78050  0.71850  0.34330  1.0000 -0.1523136596
C   C17       1.0  0.18800  0.22200  0.72870  1.0000 -0.0826737906
C   C18       1.0  0.81200  0.77800  0.27130  1.0000 -0.0826737906
C   C19       1.0  0.12050  0.26440  0.78310  1.0000 -0.0559262062
C   C20       1.0  0.87950  0.73560  0.21690  1.0000 -0.0559262062
C   C21       1.0  0.08560  0.36650  0.76340  1.0000 -0.0985358922
C   C22       1.0  0.91440  0.63350  0.23660  1.0000 -0.0985358922
C   C23       1.0  0.11530  0.42450  0.69070  1.0000 -0.1585398043
C   C24       1.0  0.88470  0.57550  0.30930  1.0000 -0.1585398043
C   C25       1.0  0.09000  0.20150  0.86060  1.0000 0.5908621376
C   C26       1.0  0.91000  0.79850  0.13940  1.0000 0.5908621376
C   C27       1.0  0.29440  0.65420  0.63320  1.0000 0.077188033
C   C28       1.0  0.70560  0.34580  0.36680  1.0000 0.077188033
C   C29       1.0  0.40440  0.66320  0.71280  1.0000 -0.1436315353
C   C30       1.0  0.59560  0.33680  0.28720  1.0000 -0.1436315353
C   C31       1.0  0.42510  0.74340  0.78010  1.0000 -0.0919964026
C   C32       1.0  0.57490  0.25660  0.21990  1.0000 -0.0919964026
C   C33       1.0  0.32950  0.81110  0.77010  1.0000 -0.0296711435
C   C34       1.0  0.67050  0.18890  0.22990  1.0000 -0.0296711435
C   C35       1.0  0.21940  0.80150  0.69130  1.0000 -0.0919964026
C   C36       1.0  0.78060  0.19850  0.30870  1.0000 -0.0919964026
C   C37       1.0  0.20400  0.72650  0.62270  1.0000 -0.1585398043
C   C38       1.0  0.79600  0.27350  0.37730  1.0000 -0.1585398043
C   C39       1.0  0.33880  0.88860  0.84420  1.0000 0.6124056999
C   C40       1.0  0.66120  0.11140  0.15580  1.0000 0.6124056999
C   C41       1.0  0.32080  0.62550  0.33050  1.0000 0.0690223885
C   C42       1.0  0.67920  0.37450  0.66950  1.0000 0.0690223885
C   C43       1.0  0.27650  0.72440  0.31060  1.0000 -0.1523136596
C   C44       1.0  0.72350  0.27560  0.68940  1.0000 -0.1523136596
C   C45       1.0  0.30560  0.78670  0.23950  1.0000 -0.0919964026
C   C46       1.0  0.69440  0.21330  0.76050  1.0000 -0.0919964026
C   C47       1.0  0.38390  0.75450  0.18680  1.0000 -0.0215545555
C   C48       1.0  0.61610  0.24550  0.81320  1.0000 -0.0215545555
C   C49       1.0  0.43320  0.65860  0.20800  1.0000 -0.0985358922
C   C50       1.0  0.56680  0.34140  0.79200  1.0000 -0.0985358922
C   C51       1.0  0.39970  0.59470  0.27780  1.0000 -0.1523136596
C   C52       1.0  0.60030  0.40530  0.72220  1.0000 -0.1523136596
C   C53       1.0  0.41520  0.82460  0.11040  1.0000 0.6446476405
C   C54       1.0  0.58480  0.17540  0.88960  1.0000 0.6446476405
C   C55       1.0  0.19420  0.35670  0.32760  1.0000 0.0690223885
C   C56       1.0  0.80580  0.64330  0.67240  1.0000 0.0690223885
C   C57       1.0  0.09620  0.36970  0.24890  1.0000 -0.1436315353
C   C58       1.0  0.90380  0.63030  0.75110  1.0000 -0.1436315353
C   C59       1.0  0.05890  0.29550  0.17510  1.0000 -0.0919964026
C   C60       1.0  0.94110  0.70450  0.82490  1.0000 -0.0919964026
C   C61       1.0  0.12570  0.20930  0.17840  1.0000 -0.0296711435
C   C62       1.0  0.87430  0.79070  0.82160  1.0000 -0.0296711435
C   C63       1.0  0.22180  0.19370  0.25670  1.0000 -0.0919964026
C   C64       1.0  0.77820  0.80630  0.74330  1.0000 -0.0919964026
C   C65       1.0  0.25410  0.26550  0.33160  1.0000 -0.1585398043
C   C66       1.0  0.74590  0.73450  0.66840  1.0000 -0.1585398043
C   C67       1.0  0.09870  0.13830  0.09620  1.0000 0.6533525412
C   C68       1.0  0.90130  0.86170  0.90380  1.0000 0.6533525412
O   O1        1.0  0.13110  0.11710  0.88353  1.0000 -0.6016448314
O   O2        1.0  0.86890  0.88290  0.11647  1.0000 -0.6016448314
O   O3        1.0  0.01270  0.24120  0.90207  1.0000 -0.4495059724
O   O4        1.0  0.98730  0.75880  0.09793  1.0000 -0.4495059724
O   O5        1.0  0.23680  0.93460  0.83520  1.0000 -0.6016448314
O   O6        1.0  0.76320  0.06540  0.16480  1.0000 -0.6016448314
O   O7        1.0  0.44710  0.90470  0.91519  1.0000 -0.744670021
O   O8        1.0  0.55290  0.09530  0.08481  1.0000 -0.744670021
O   O9        1.0  0.53570  0.83340  0.08867  1.0000 -0.6535433407
O   O10       1.0  0.46430  0.16660  0.91133  1.0000 -0.6535433407
O   O11       1.0  0.31810  0.87290  0.07398  1.0000 -0.6782027061
O   O12       1.0  0.68190  0.12710  0.92602  1.0000 -0.6782027061
O   O13       1.0  0.20800  0.10780  0.08622  1.0000 -0.6721894319
O   O14       1.0  0.79200  0.89220  0.91378  1.0000 -0.6721894319
O   O15       1.0  0.96900  0.11820  0.03858  1.0000 -0.6782027061
O   O16       1.0  0.03100  0.88180  0.96142  1.0000 -0.6782027061
