# DDEC6 charges by PACMAN v1.1 (https://github.com/mtap-research/PACMAN-charge/)
data_2014[Mn][rtl]3[FSR]1
_chemical_formula_sum              "Mn4 H32 C48 N8 O16"
_cell_length_a       9.9165
_cell_length_b       13.0528
_cell_length_c       10.9693
_cell_angle_alpha    90
_cell_angle_beta     101.633
_cell_angle_gamma    90

_symmetry_space_group_name_H-M    "P 1"
_symmetry_Int_Tables_number       1

loop_
  _symmetry_equiv_pos_as_xyz
  'x, y, z'

loop_
  _atom_site_type_symbol
  _atom_site_label
  _atom_site_symmetry_multiplicity
  _atom_site_fract_x
  _atom_site_fract_y
  _atom_site_fract_z
  _atom_site_occupancy
  _atom_site_charge
Mn  Mn1       1.0  0.87554  0.88847  0.74682  1.0000 0.9132211579
Mn  Mn2       1.0  0.12446  0.38847  0.25318  1.0000 0.9132211579
Mn  Mn3       1.0  0.37357  0.88756  0.75178  1.0000 0.9132211579
Mn  Mn4       1.0  0.62643  0.38756  0.24822  1.0000 0.9132211579
H   H1        1.0  0.59250  0.18690  0.64640  1.0000 0.1403383089
H   H2        1.0  0.40750  0.68690  0.35360  1.0000 0.1403383089
H   H3        1.0  0.60780  0.32190  0.51870  1.0000 0.1083844823
H   H4        1.0  0.39220  0.82190  0.48130  1.0000 0.1083844823
H   H5        1.0  0.61530  0.14240  0.23960  1.0000 0.1020688909
H   H6        1.0  0.38470  0.64240  0.76040  1.0000 0.1020688909
H   H7        1.0  0.61060  0.00160  0.36160  1.0000 0.1403383089
H   H8        1.0  0.38940  0.50160  0.63840  1.0000 0.1403383089
H   H9        1.0  0.89710  0.11720  0.48680  1.0000 0.1307922227
H   H10       1.0  0.10290  0.61720  0.51320  1.0000 0.1307922227
H   H11       1.0  0.91350  0.25470  0.36280  1.0000 0.1020688909
H   H12       1.0  0.08650  0.75470  0.63720  1.0000 0.1020688909
H   H13       1.0  0.29910  0.20460  0.37530  1.0000 0.1020688909
H   H14       1.0  0.70090  0.70460  0.62470  1.0000 0.1020688909
H   H15       1.0  0.29960  0.06540  0.50040  1.0000 0.1242233736
H   H16       1.0  0.70040  0.56540  0.49960  1.0000 0.1242233736
H   H17       1.0  0.67750  0.59110  0.85530  1.0000 0.1307922227
H   H18       1.0  0.32250  0.09110  0.14470  1.0000 0.1307922227
H   H19       1.0  0.65950  0.45250  0.97940  1.0000 0.1083844823
H   H20       1.0  0.34050  0.95250  0.02060  1.0000 0.1083844823
H   H21       1.0  0.62360  0.63110  0.25460  1.0000 0.1020688909
H   H22       1.0  0.37640  0.13110  0.74540  1.0000 0.1020688909
H   H23       1.0  0.61770  0.77300  0.13190  1.0000 0.1403383089
H   H24       1.0  0.38230  0.27300  0.86810  1.0000 0.1403383089
H   H25       1.0  0.34690  0.65510  0.00400  1.0000 0.1242233736
H   H26       1.0  0.65310  0.15510  0.99600  1.0000 0.1242233736
H   H27       1.0  0.33260  0.51750  0.13160  1.0000 0.1020688909
H   H28       1.0  0.66740  0.01750  0.86840  1.0000 0.1020688909
H   H29       1.0  0.95140  0.58250  0.13900  1.0000 0.1020688909
H   H30       1.0  0.04860  0.08250  0.86100  1.0000 0.1020688909
H   H31       1.0  0.95760  0.72030  0.00890  1.0000 0.1307922227
H   H32       1.0  0.04240  0.22030  0.99110  1.0000 0.1307922227
C   C1        1.0  0.59030  0.98570  0.59910  1.0000 0.561313398
C   C2        1.0  0.40970  0.48570  0.40090  1.0000 0.561313398
C   C3        1.0  0.60080  0.07700  0.51900  1.0000 0.0229677989
C   C4        1.0  0.39920  0.57700  0.48100  1.0000 0.0229677989
C   C5        1.0  0.59880  0.17550  0.56410  1.0000 -0.1806310989
C   C6        1.0  0.40120  0.67550  0.43590  1.0000 -0.1806310989
C   C7        1.0  0.60630  0.25590  0.48640  1.0000 0.0715738657
C   C8        1.0  0.39370  0.75590  0.51360  1.0000 0.0715738657
C   C9        1.0  0.61220  0.15130  0.32310  1.0000 0.0715738657
C   C10       1.0  0.38780  0.65130  0.67690  1.0000 0.0715738657
C   C11       1.0  0.60820  0.06670  0.39580  1.0000 -0.1806310989
C   C12       1.0  0.39180  0.56670  0.60420  1.0000 -0.1806310989
C   C13       1.0  0.09120  0.98590  0.59620  1.0000 0.567538358
C   C14       1.0  0.90880  0.48590  0.40380  1.0000 0.567538358
C   C15       1.0  0.09850  0.07640  0.51320  1.0000 0.0261120351
C   C16       1.0  0.90150  0.57640  0.48680  1.0000 0.0261120351
C   C17       1.0  0.98120  0.13430  0.46710  1.0000 -0.1596158075
C   C18       1.0  0.01880  0.63430  0.53290  1.0000 -0.1596158075
C   C19       1.0  0.99180  0.21600  0.39290  1.0000 0.0803375708
C   C20       1.0  0.00820  0.71600  0.60710  1.0000 0.0803375708
C   C21       1.0  0.21810  0.18670  0.40030  1.0000 0.0803375708
C   C22       1.0  0.78190  0.68670  0.59970  1.0000 0.0803375708
C   C23       1.0  0.21960  0.10340  0.47520  1.0000 -0.1806310989
C   C24       1.0  0.78040  0.60340  0.52480  1.0000 -0.1806310989
C   C25       1.0  0.65590  0.79090  0.89850  1.0000 0.561313398
C   C26       1.0  0.34410  0.29090  0.10150  1.0000 0.561313398
C   C27       1.0  0.65040  0.69910  0.98100  1.0000 0.0261120351
C   C28       1.0  0.34960  0.19910  0.01900  1.0000 0.0261120351
C   C29       1.0  0.66340  0.60080  0.93570  1.0000 -0.1869365128
C   C30       1.0  0.33660  0.10080  0.06430  1.0000 -0.1869365128
C   C31       1.0  0.65500  0.51790  0.01200  1.0000 0.0803375708
C   C32       1.0  0.34500  0.01790  0.98800  1.0000 0.0803375708
C   C33       1.0  0.63090  0.62250  0.17200  1.0000 0.054485522
C   C34       1.0  0.36910  0.12250  0.82800  1.0000 0.054485522
C   C35       1.0  0.63090  0.70870  0.09980  1.0000 -0.1703812706
C   C36       1.0  0.36910  0.20870  0.90020  1.0000 -0.1703812706
C   C37       1.0  0.15830  0.78980  0.90280  1.0000 0.561313398
C   C38       1.0  0.84170  0.28980  0.09720  1.0000 0.561313398
C   C39       1.0  0.15390  0.70240  0.99260  1.0000 0.0229677989
C   C40       1.0  0.84610  0.20240  0.00740  1.0000 0.0229677989
C   C41       1.0  0.26480  0.64130  0.02950  1.0000 -0.1703812706
C   C42       1.0  0.73520  0.14130  0.97050  1.0000 -0.1703812706
C   C43       1.0  0.25480  0.55780  0.10580  1.0000 0.0715738657
C   C44       1.0  0.74520  0.05780  0.89420  1.0000 0.0715738657
C   C45       1.0  0.03160  0.59560  0.11000  1.0000 0.0803375708
C   C46       1.0  0.96840  0.09560  0.89000  1.0000 0.0803375708
C   C47       1.0  0.03540  0.67960  0.03300  1.0000 -0.1548153686
C   C48       1.0  0.96460  0.17960  0.96700  1.0000 -0.1548153686
N   N1        1.0  0.61160  0.24500  0.36750  1.0000 -0.2206201779
N   N2        1.0  0.38840  0.74500  0.63250  1.0000 -0.2206201779
N   N3        1.0  0.10860  0.24270  0.36180  1.0000 -0.2206201779
N   N4        1.0  0.89140  0.74270  0.63820  1.0000 -0.2206201779
N   N5        1.0  0.64070  0.52670  0.13020  1.0000 -0.2324699837
N   N6        1.0  0.35930  0.02670  0.86980  1.0000 -0.2324699837
N   N7        1.0  0.14010  0.53230  0.14410  1.0000 -0.2324699837
N   N8        1.0  0.85990  0.03230  0.85590  1.0000 -0.2355752068
O   O1        1.0  0.48600  0.98060  0.64590  1.0000 -0.5594786184
O   O2        1.0  0.51400  0.48060  0.35410  1.0000 -0.5594786184
O   O3        1.0  0.68520  0.92110  0.61340  1.0000 -0.5401724803
O   O4        1.0  0.31480  0.42110  0.38660  1.0000 -0.5401724803
O   O5        1.0  0.98300  0.97390  0.63310  1.0000 -0.5297621714
O   O6        1.0  0.01700  0.47390  0.36690  1.0000 -0.5297621714
O   O7        1.0  0.19420  0.92780  0.61940  1.0000 -0.5594786184
O   O8        1.0  0.80580  0.42780  0.38060  1.0000 -0.5594786184
O   O9        1.0  0.76200  0.79490  0.85520  1.0000 -0.5401724803
O   O10       1.0  0.23800  0.29490  0.14480  1.0000 -0.5401724803
O   O11       1.0  0.55810  0.85010  0.88520  1.0000 -0.5401724803
O   O12       1.0  0.44190  0.35010  0.11480  1.0000 -0.5401724803
O   O13       1.0  0.26760  0.79330  0.86150  1.0000 -0.5669031071
O   O14       1.0  0.73240  0.29330  0.13850  1.0000 -0.5669031071
O   O15       1.0  0.05950  0.84780  0.88160  1.0000 -0.5297621714
O   O16       1.0  0.94050  0.34780  0.11840  1.0000 -0.5297621714
