# DDEC6 charges by PACMAN v1.1 (https://github.com/mtap-research/PACMAN-charge/)
data_2014[Cu][bcu]3[FSR]9
_chemical_formula_sum              "Cu6 H32 C48 N52"
_cell_length_a       13.299
_cell_length_b       14.71
_cell_length_c       19.961
_cell_angle_alpha    90
_cell_angle_beta     128.315
_cell_angle_gamma    90

_symmetry_space_group_name_H-M    "P 1"
_symmetry_Int_Tables_number       1

loop_
  _symmetry_equiv_pos_as_xyz
  'x, y, z'

loop_
  _atom_site_type_symbol
  _atom_site_label
  _atom_site_symmetry_multiplicity
  _atom_site_fract_x
  _atom_site_fract_y
  _atom_site_fract_z
  _atom_site_occupancy
  _atom_site_charge
Cu  Cu1       1.0  0.50000  0.00000  0.00000  1.0000 0.5696580967
Cu  Cu2       1.0  0.50000  0.50000  0.50000  1.0000 0.5696580967
Cu  Cu3       1.0  0.35243  0.80677  0.88597  1.0000 0.5006104073
Cu  Cu4       1.0  0.64757  0.30677  0.61403  1.0000 0.5006104073
Cu  Cu5       1.0  0.64757  0.19323  0.11403  1.0000 0.5006104073
Cu  Cu6       1.0  0.35243  0.69323  0.38597  1.0000 0.5006104073
H   H1        1.0  0.31430  0.67020  0.12450  1.0000 0.141745338
H   H2        1.0  0.68570  0.17020  0.37550  1.0000 0.141745338
H   H3        1.0  0.68570  0.32980  0.87550  1.0000 0.141745338
H   H4        1.0  0.31430  0.82980  0.62450  1.0000 0.141745338
H   H5        1.0  0.42810  0.91170  0.23450  1.0000 0.1486807426
H   H6        1.0  0.57190  0.41170  0.26550  1.0000 0.1486807426
H   H7        1.0  0.57190  0.08830  0.76550  1.0000 0.1486807426
H   H8        1.0  0.42810  0.58830  0.73450  1.0000 0.1486807426
H   H9        1.0  0.90160  0.77820  0.16730  1.0000 0.1486807426
H   H10       1.0  0.09840  0.27820  0.33270  1.0000 0.1486807426
H   H11       1.0  0.09840  0.22180  0.83270  1.0000 0.1486807426
H   H12       1.0  0.90160  0.72180  0.66730  1.0000 0.1486807426
H   H13       1.0  0.09530  0.95660  0.35690  1.0000 0.141745338
H   H14       1.0  0.90470  0.45660  0.14310  1.0000 0.141745338
H   H15       1.0  0.90470  0.04340  0.64310  1.0000 0.141745338
H   H16       1.0  0.09530  0.54340  0.85690  1.0000 0.141745338
H   H17       1.0  0.30010  0.62500  0.22800  1.0000 0.1082519747
H   H18       1.0  0.69990  0.12500  0.27200  1.0000 0.1082519747
H   H19       1.0  0.69990  0.37500  0.77200  1.0000 0.1082519747
H   H20       1.0  0.30010  0.87500  0.72800  1.0000 0.1082519747
H   H21       1.0  0.41640  0.85660  0.33730  1.0000 0.1082519747
H   H22       1.0  0.58360  0.35660  0.16270  1.0000 0.1082519747
H   H23       1.0  0.58360  0.14340  0.66270  1.0000 0.1082519747
H   H24       1.0  0.41640  0.64340  0.83730  1.0000 0.1082519747
H   H25       1.0  0.07990  0.68950  0.23690  1.0000 0.1082519747
H   H26       1.0  0.92010  0.18950  0.26310  1.0000 0.1082519747
H   H27       1.0  0.92010  0.31050  0.76310  1.0000 0.1082519747
H   H28       1.0  0.07990  0.81050  0.73690  1.0000 0.1082519747
H   H29       1.0  0.27200  0.86460  0.42140  1.0000 0.1082519747
H   H30       1.0  0.72800  0.36460  0.07860  1.0000 0.1082519747
H   H31       1.0  0.72800  0.13540  0.57860  1.0000 0.1082519747
H   H32       1.0  0.27200  0.63540  0.92140  1.0000 0.1082519747
C   C1        1.0  0.38460  0.82780  0.10260  1.0000 0.2181508707
C   C2        1.0  0.61540  0.32780  0.39740  1.0000 0.2181508707
C   C3        1.0  0.61540  0.17220  0.89740  1.0000 0.2181508707
C   C4        1.0  0.38460  0.67220  0.60260  1.0000 0.2181508707
C   C5        1.0  0.86500  0.93870  0.20740  1.0000 0.2181508707
C   C6        1.0  0.13500  0.43870  0.29260  1.0000 0.2181508707
C   C7        1.0  0.13500  0.06130  0.79260  1.0000 0.2181508707
C   C8        1.0  0.86500  0.56130  0.70740  1.0000 0.2181508707
C   C9        1.0  0.37170  0.79590  0.16670  1.0000 0.0773954874
C   C10       1.0  0.62830  0.29590  0.33333  1.0000 0.0870331263
C   C11       1.0  0.62830  0.20410  0.83330  1.0000 0.0870331263
C   C12       1.0  0.37170  0.70410  0.66667  1.0000 0.0870331263
C   C13       1.0  0.97760  0.87960  0.25330  1.0000 0.0870331263
C   C14       1.0  0.02240  0.37960  0.24670  1.0000 0.0870331263
C   C15       1.0  0.02240  0.12040  0.74670  1.0000 0.0870331263
C   C16       1.0  0.97760  0.62040  0.75330  1.0000 0.0870331263
C   C17       1.0  0.33480  0.71100  0.16700  1.0000 -0.1700040503
C   C18       1.0  0.66520  0.21100  0.33300  1.0000 -0.1700040503
C   C19       1.0  0.66520  0.28900  0.83300  1.0000 -0.1700040503
C   C20       1.0  0.33480  0.78900  0.66700  1.0000 -0.1700040503
C   C21       1.0  0.40220  0.85210  0.23150  1.0000 -0.1700040503
C   C22       1.0  0.59780  0.35210  0.26850  1.0000 -0.1784508069
C   C23       1.0  0.59780  0.14790  0.76850  1.0000 -0.1700040503
C   C24       1.0  0.40220  0.64790  0.73150  1.0000 -0.1784508069
C   C25       1.0  0.97630  0.79750  0.21930  1.0000 -0.1634274512
C   C26       1.0  0.02370  0.29750  0.28070  1.0000 -0.1700040503
C   C27       1.0  0.02370  0.20250  0.78070  1.0000 -0.1634274512
C   C28       1.0  0.97630  0.70250  0.71930  1.0000 -0.1634274512
C   C29       1.0  0.09010  0.90270  0.33050  1.0000 -0.1784508069
C   C30       1.0  0.90990  0.40270  0.16950  1.0000 -0.1784508069
C   C31       1.0  0.90990  0.09730  0.66950  1.0000 -0.1784508069
C   C32       1.0  0.09010  0.59730  0.83050  1.0000 -0.1784508069
C   C33       1.0  0.32700  0.68390  0.22980  1.0000 0.069626488
C   C34       1.0  0.67300  0.18390  0.27020  1.0000 0.069626488
C   C35       1.0  0.67300  0.31610  0.77020  1.0000 0.069626488
C   C36       1.0  0.32700  0.81610  0.72980  1.0000 0.069626488
C   C37       1.0  0.39350  0.81830  0.29280  1.0000 0.069626488
C   C38       1.0  0.60650  0.31830  0.20720  1.0000 0.0773954874
C   C39       1.0  0.60650  0.18170  0.70720  1.0000 0.0773954874
C   C40       1.0  0.39350  0.68170  0.79280  1.0000 0.0773954874
C   C41       1.0  0.08360  0.74450  0.26130  1.0000 0.069626488
C   C42       1.0  0.91640  0.24450  0.23870  1.0000 0.069626488
C   C43       1.0  0.91640  0.25550  0.73870  1.0000 0.069626488
C   C44       1.0  0.08360  0.75550  0.76130  1.0000 0.069626488
C   C45       1.0  0.19610  0.84660  0.36950  1.0000 0.0773954874
C   C46       1.0  0.80390  0.34660  0.13050  1.0000 0.0773954874
C   C47       1.0  0.80390  0.15340  0.63050  1.0000 0.0773954874
C   C48       1.0  0.19610  0.65340  0.86950  1.0000 0.0773954874
N   N1        1.0  0.43180  0.90670  0.03860  1.0000 -0.0237995724
N   N2        1.0  0.56820  0.40670  0.46140  1.0000 -0.0237995724
N   N3        1.0  0.56820  0.09330  0.96140  1.0000 -0.0237995724
N   N4        1.0  0.43180  0.59330  0.53860  1.0000 -0.0237995724
N   N5        1.0  0.67940  0.98660  0.11160  1.0000 -0.0312636292
N   N6        1.0  0.32060  0.48660  0.38840  1.0000 -0.0312636292
N   N7        1.0  0.32060  0.01340  0.88840  1.0000 -0.0312636292
N   N8        1.0  0.67940  0.51340  0.61160  1.0000 -0.0312636292
N   N9        1.0  0.51600  0.87290  0.94010  1.0000 -0.4811988438
N   N10       1.0  0.48400  0.37290  0.55990  1.0000 -0.4811988438
N   N11       1.0  0.48400  0.12710  0.05990  1.0000 -0.4811988438
N   N12       1.0  0.51600  0.62710  0.44010  1.0000 -0.4811988438
N   N13       1.0  0.37520  0.83090  0.99420  1.0000 -0.0389578829
N   N14       1.0  0.62480  0.33090  0.50580  1.0000 -0.0389578829
N   N15       1.0  0.62480  0.16910  0.00580  1.0000 -0.0389578829
N   N16       1.0  0.37520  0.66910  0.49420  1.0000 -0.0389578829
N   N17       1.0  0.43900  0.90660  0.10750  1.0000 -0.2495311855
N   N18       1.0  0.56100  0.40660  0.39250  1.0000 -0.2495311855
N   N19       1.0  0.56100  0.09340  0.89250  1.0000 -0.2495311855
N   N20       1.0  0.43900  0.59340  0.60750  1.0000 -0.2495311855
N   N21       1.0  0.75190  0.91310  0.13560  1.0000 -0.2495311855
N   N22       1.0  0.24810  0.41310  0.36440  1.0000 -0.2495311855
N   N23       1.0  0.24810  0.08690  0.86440  1.0000 -0.2495311855
N   N24       1.0  0.75190  0.58690  0.63560  1.0000 -0.2495311855
N   N25       1.0  0.74570  0.05350  0.16660  1.0000 -0.0884114711
N   N26       1.0  0.25430  0.55350  0.33340  1.0000 -0.0884114711
N   N27       1.0  0.25430  0.94650  0.83340  1.0000 -0.0884114711
N   N28       1.0  0.74570  0.44650  0.66667  1.0000 -0.0884114711
N   N29       1.0  0.59700  0.85370  0.93850  1.0000 0.4102498328
N   N30       1.0  0.40300  0.35370  0.56150  1.0000 0.4102498328
N   N31       1.0  0.40300  0.14630  0.06150  1.0000 0.4102498328
N   N32       1.0  0.59700  0.64630  0.43850  1.0000 0.4102498328
N   N33       1.0  0.34400  0.77900  0.03300  1.0000 -0.2687603036
N   N34       1.0  0.65600  0.27900  0.46700  1.0000 -0.2646735946
N   N35       1.0  0.65600  0.22100  0.96700  1.0000 -0.2646735946
N   N36       1.0  0.34400  0.72100  0.53300  1.0000 -0.2646735946
N   N37       1.0  0.86360  0.02480  0.22780  1.0000 -0.2687603036
N   N38       1.0  0.13640  0.52480  0.27220  1.0000 -0.2687603036
N   N39       1.0  0.13640  0.97520  0.77220  1.0000 -0.2687603036
N   N40       1.0  0.86360  0.47520  0.72780  1.0000 -0.2687603036
N   N41       1.0  0.35580  0.73760  0.29190  1.0000 -0.1926194096
N   N42       1.0  0.64420  0.23760  0.20810  1.0000 -0.1926194096
N   N43       1.0  0.64420  0.26240  0.70810  1.0000 -0.1926194096
N   N44       1.0  0.35580  0.76240  0.79190  1.0000 -0.1926194096
N   N45       1.0  0.19380  0.76860  0.33610  1.0000 -0.1966176221
N   N46       1.0  0.80620  0.26860  0.16390  1.0000 -0.1966176221
N   N47       1.0  0.80620  0.23140  0.66390  1.0000 -0.1966176221
N   N48       1.0  0.19380  0.73140  0.83610  1.0000 -0.1966176221
N   N49       1.0  0.67950  0.83720  0.93830  1.0000 -0.3345484475
N   N50       1.0  0.32050  0.33720  0.56170  1.0000 -0.3345484475
N   N51       1.0  0.32050  0.16280  0.06170  1.0000 -0.3363902906
N   N52       1.0  0.67950  0.66280  0.43830  1.0000 -0.3363902906
