# DDEC6 charges by PACMAN v1.1 (https://github.com/mtap-research/PACMAN-charge/)
data_2014[Co][ins]3[FSR]1
_chemical_formula_sum              "Co8 H124 C176 N32 O32"
_cell_length_a       10.54
_cell_length_b       13.509
_cell_length_c       32.27
_cell_angle_alpha    90
_cell_angle_beta     108.924
_cell_angle_gamma    90

_symmetry_space_group_name_H-M    "P 1"
_symmetry_Int_Tables_number       1

loop_
  _symmetry_equiv_pos_as_xyz
  'x, y, z'

loop_
  _atom_site_type_symbol
  _atom_site_label
  _atom_site_symmetry_multiplicity
  _atom_site_fract_x
  _atom_site_fract_y
  _atom_site_fract_z
  _atom_site_occupancy
  _atom_site_charge
Co  Co1       1.0  0.17284  0.66713  0.95169  1.0000 0.7924517867
Co  Co2       1.0  0.17285  0.83287  0.45170  1.0000 0.7924517867
Co  Co3       1.0  0.46427  0.16651  0.78614  1.0000 0.7626244155
Co  Co4       1.0  0.46427  0.33349  0.28613  1.0000 0.7626244155
Co  Co5       1.0  0.82715  0.16713  0.54831  1.0000 0.7924517867
Co  Co6       1.0  0.82715  0.33287  0.04831  1.0000 0.7924517867
Co  Co7       1.0  0.53573  0.66651  0.71386  1.0000 0.7626244155
Co  Co8       1.0  0.53573  0.83349  0.21386  1.0000 0.7626244155
H   H1        1.0  0.24430  0.18820  0.70000  1.0000 0.1198212047
H   H2        1.0  0.24431  0.31180  0.20001  1.0000 0.1198212047
H   H3        1.0  0.53901  0.30800  0.72391  1.0000 0.2899589715
H   H4        1.0  0.53900  0.19200  0.22391  1.0000 0.2899589715
H   H5        1.0  0.10301  0.99130  0.58121  1.0000 0.1313973941
H   H6        1.0  0.10301  0.50870  0.08121  1.0000 0.1313973941
H   H7        1.0  0.92511  0.46250  0.84921  1.0000 0.1198212047
H   H8        1.0  0.92510  0.03750  0.34921  1.0000 0.1198212047
H   H9        1.0  0.49261  0.94570  0.88781  1.0000 0.1313973941
H   H10       1.0  0.49261  0.55430  0.38781  1.0000 0.1313973941
H   H11       1.0  0.84631  0.91410  0.86691  1.0000 0.1313973941
H   H12       1.0  0.84630  0.58590  0.36690  1.0000 0.1313973941
H   H13       1.0  0.18251  0.13200  0.62911  1.0000 0.1406927792
H   H14       1.0  0.18251  0.36800  0.12910  1.0000 0.1406927792
H   H15       1.0  0.48801  0.99770  0.58551  1.0000 0.1406927792
H   H16       1.0  0.48801  0.50230  0.08551  1.0000 0.1406927792
H   H17       1.0  0.05090  0.91230  0.51480  1.0000 0.1114741272
H   H18       1.0  0.05090  0.58770  0.01481  1.0000 0.1114741272
H   H19       1.0  0.62221  0.26350  0.87291  1.0000 0.1198212047
H   H20       1.0  0.62221  0.23650  0.37290  1.0000 0.1198212047
H   H21       1.0  0.76831  0.75570  0.96181  1.0000 0.1406927792
H   H22       1.0  0.76831  0.74430  0.46181  1.0000 0.1406927792
H   H23       1.0  0.01331  0.24780  0.77671  1.0000 0.1406927792
H   H24       1.0  0.01331  0.25220  0.27671  1.0000 0.1406927792
H   H25       1.0  0.51271  0.96120  0.66331  1.0000 0.1406927792
H   H26       1.0  0.51270  0.53880  0.16331  1.0000 0.1406927792
H   H27       1.0  0.30911  0.39240  0.86661  1.0000 0.1198212047
H   H28       1.0  0.30911  0.10760  0.36661  1.0000 0.1198212047
H   H29       1.0  0.83461  0.03970  0.11721  1.0000 0.1198212047
H   H30       1.0  0.83461  0.46030  0.61721  1.0000 0.1198212047
H   H31       1.0  0.42330  0.92800  0.51701  1.0000 0.1198212047
H   H32       1.0  0.42330  0.57200  0.01701  1.0000 0.1198212047
H   H33       1.0  0.59371  0.80380  0.07621  1.0000 0.1198212047
H   H34       1.0  0.59371  0.69620  0.57620  1.0000 0.1198212047
H   H35       1.0  0.67041  0.98550  0.98831  1.0000 0.1198212047
H   H36       1.0  0.67041  0.51450  0.48831  1.0000 0.1198212047
H   H37       1.0  0.56351  0.02110  0.73321  1.0000 0.1198212047
H   H38       1.0  0.56351  0.47890  0.23321  1.0000 0.1198212047
H   H39       1.0  0.97151  0.18160  0.85871  1.0000 0.1114741272
H   H40       1.0  0.97151  0.31840  0.35871  1.0000 0.1114741272
H   H41       1.0  0.82240  0.37600  0.70941  1.0000 0.1682255377
H   H42       1.0  0.82240  0.12400  0.20941  1.0000 0.1682255377
H   H43       1.0  0.68051  0.42570  0.69631  1.0000 0.1682255377
H   H44       1.0  0.68051  0.07430  0.19631  1.0000 0.1682255377
H   H45       1.0  0.79981  0.47030  0.73441  1.0000 0.1752358255
H   H46       1.0  0.79980  0.02970  0.23441  1.0000 0.1752358255
H   H47       1.0  0.69191  0.19990  0.94321  1.0000 0.1114741272
H   H48       1.0  0.69191  0.30010  0.44321  1.0000 0.1114741272
H   H49       1.0  0.90301  0.13150  0.97191  1.0000 0.1114741272
H   H50       1.0  0.90300  0.36850  0.47191  1.0000 0.1114741272
H   H51       1.0  0.32851  0.78860  0.86311  1.0000 0.1588337999
H   H52       1.0  0.32850  0.71140  0.36311  1.0000 0.1588337999
H   H53       1.0  0.43631  0.70420  0.87411  1.0000 0.1495523182
H   H54       1.0  0.43630  0.79580  0.37411  1.0000 0.1495523182
H   H55       1.0  0.29211  0.68310  0.87601  1.0000 0.1682255377
H   H56       1.0  0.29210  0.81690  0.37601  1.0000 0.1682255377
H   H57       1.0  0.72720  0.90160  0.13270  1.0000 0.1198212047
H   H58       1.0  0.72721  0.59840  0.63271  1.0000 0.1198212047
H   H59       1.0  0.04481  0.12550  0.93021  1.0000 0.1114741272
H   H60       1.0  0.04481  0.37450  0.43021  1.0000 0.1114741272
H   H61       1.0  0.80741  0.08040  0.04541  1.0000 0.1114741272
H   H62       1.0  0.80741  0.41960  0.54541  1.0000 0.1114741272
H   H63       1.0  0.75569  0.68820  0.80000  1.0000 0.1198212047
H   H64       1.0  0.75570  0.81180  0.30000  1.0000 0.1198212047
H   H65       1.0  0.46100  0.80800  0.77610  1.0000 0.2899589715
H   H66       1.0  0.46099  0.69200  0.27609  1.0000 0.2899589715
H   H67       1.0  0.89700  0.49130  0.91880  1.0000 0.1313973941
H   H68       1.0  0.89699  0.00870  0.41879  1.0000 0.1313973941
H   H69       1.0  0.07490  0.96250  0.65080  1.0000 0.1198212047
H   H70       1.0  0.07490  0.53750  0.15080  1.0000 0.1198212047
H   H71       1.0  0.50740  0.44570  0.61220  1.0000 0.1313973941
H   H72       1.0  0.50740  0.05430  0.11220  1.0000 0.1313973941
H   H73       1.0  0.15370  0.41410  0.63309  1.0000 0.1313973941
H   H74       1.0  0.15370  0.08590  0.13310  1.0000 0.1313973941
H   H75       1.0  0.81750  0.63200  0.87090  1.0000 0.1406927792
H   H76       1.0  0.81749  0.86800  0.37090  1.0000 0.1406927792
H   H77       1.0  0.51199  0.49770  0.91449  1.0000 0.1406927792
H   H78       1.0  0.51199  0.00230  0.41450  1.0000 0.1406927792
H   H79       1.0  0.94910  0.41230  0.98520  1.0000 0.1114741272
H   H80       1.0  0.94910  0.08770  0.48520  1.0000 0.1114741272
H   H81       1.0  0.37779  0.76350  0.62709  1.0000 0.1198212047
H   H82       1.0  0.37779  0.73650  0.12710  1.0000 0.1198212047
H   H83       1.0  0.23170  0.25570  0.53820  1.0000 0.1406927792
H   H84       1.0  0.23169  0.24430  0.03819  1.0000 0.1406927792
H   H85       1.0  0.98670  0.74780  0.72330  1.0000 0.1406927792
H   H86       1.0  0.98669  0.75220  0.22329  1.0000 0.1406927792
H   H87       1.0  0.48730  0.46120  0.83670  1.0000 0.1406927792
H   H88       1.0  0.48730  0.03880  0.33670  1.0000 0.1406927792
H   H89       1.0  0.69090  0.89240  0.63340  1.0000 0.1198212047
H   H90       1.0  0.69090  0.60760  0.13340  1.0000 0.1198212047
H   H91       1.0  0.16540  0.53970  0.38280  1.0000 0.1198212047
H   H92       1.0  0.16540  0.96030  0.88279  1.0000 0.1198212047
H   H93       1.0  0.57669  0.42800  0.98300  1.0000 0.1198212047
H   H94       1.0  0.57669  0.07200  0.48300  1.0000 0.1198212047
H   H95       1.0  0.40630  0.30380  0.42380  1.0000 0.1198212047
H   H96       1.0  0.40630  0.19620  0.92380  1.0000 0.1198212047
H   H97       1.0  0.32959  0.48550  0.51170  1.0000 0.1198212047
H   H98       1.0  0.32959  0.01450  0.01170  1.0000 0.1198212047
H   H99       1.0  0.43650  0.52110  0.76680  1.0000 0.1198212047
H   H100      1.0  0.43650  0.97890  0.26680  1.0000 0.1198212047
H   H101      1.0  0.02850  0.68160  0.64130  1.0000 0.1114741272
H   H102      1.0  0.02850  0.81840  0.14130  1.0000 0.1114741272
H   H103      1.0  0.17760  0.87600  0.79060  1.0000 0.1682255377
H   H104      1.0  0.17760  0.62400  0.29059  1.0000 0.1682255377
H   H105      1.0  0.31950  0.92570  0.80370  1.0000 0.1588337999
H   H106      1.0  0.31950  0.57430  0.30369  1.0000 0.1682255377
H   H107      1.0  0.20020  0.97030  0.76560  1.0000 0.1752358255
H   H108      1.0  0.20020  0.52970  0.26560  1.0000 0.1752358255
H   H109      1.0  0.30810  0.69990  0.55680  1.0000 0.1114741272
H   H110      1.0  0.30810  0.80010  0.05680  1.0000 0.1114741272
H   H111      1.0  0.09699  0.63150  0.52809  1.0000 0.1114741272
H   H112      1.0  0.09699  0.86850  0.02810  1.0000 0.1114741272
H   H113      1.0  0.67150  0.28860  0.63690  1.0000 0.1588337999
H   H114      1.0  0.67149  0.21140  0.13689  1.0000 0.1588337999
H   H115      1.0  0.56370  0.20420  0.62590  1.0000 0.1495523182
H   H116      1.0  0.56369  0.29580  0.12590  1.0000 0.1495523182
H   H117      1.0  0.70790  0.18310  0.62400  1.0000 0.1682255377
H   H118      1.0  0.70790  0.31690  0.12400  1.0000 0.1682255377
H   H119      1.0  0.27280  0.40160  0.36730  1.0000 0.1198212047
H   H120      1.0  0.27280  0.09840  0.86730  1.0000 0.1198212047
H   H121      1.0  0.95520  0.62550  0.56980  1.0000 0.1114741272
H   H122      1.0  0.95520  0.87450  0.06980  1.0000 0.1114741272
H   H123      1.0  0.19259  0.58040  0.45460  1.0000 0.1114741272
H   H124      1.0  0.19260  0.91960  0.95460  1.0000 0.1114741272
C   C1        1.0  0.17726  0.31300  0.81916  1.0000 0.0036601293
C   C2        1.0  0.17725  0.18700  0.31916  1.0000 0.0036601293
C   C3        1.0  0.29842  0.14210  0.69242  1.0000 0.0716966157
C   C4        1.0  0.29842  0.35790  0.19243  1.0000 0.0716966157
C   C5        1.0  0.82996  0.82920  0.91616  1.0000 -0.0013487098
C   C6        1.0  0.82995  0.67080  0.41616  1.0000 -0.0013487098
C   C7        1.0  0.61813  0.01360  0.83383  1.0000 0.5376632241
C   C8        1.0  0.61813  0.48640  0.33382  1.0000 0.5376632241
C   C9        1.0  0.96635  0.78150  0.92665  1.0000 0.5323717323
C   C10       1.0  0.96635  0.71850  0.42665  1.0000 0.5323717323
C   C11       1.0  0.52198  0.82660  0.99118  1.0000 0.2312660542
C   C12       1.0  0.52197  0.67340  0.49118  1.0000 0.2312660542
C   C13       1.0  0.17039  0.97650  0.56939  1.0000 -0.1790591702
C   C14       1.0  0.17038  0.52350  0.06939  1.0000 -0.1790591702
C   C15       1.0  0.61649  0.84540  0.92759  1.0000 0.1588337999
C   C16       1.0  0.61648  0.65460  0.42759  1.0000 0.1588337999
C   C17       1.0  0.98893  0.42390  0.84252  1.0000 -0.2006872761
C   C18       1.0  0.98893  0.07610  0.34253  1.0000 -0.1900426619
C   C19       1.0  0.40647  0.76160  0.92787  1.0000 0.3533838195
C   C20       1.0  0.40647  0.73840  0.42786  1.0000 0.3533838195
C   C21       1.0  0.17138  0.51670  0.89878  1.0000 0.5376632241
C   C22       1.0  0.17137  0.98330  0.39877  1.0000 0.5376632241
C   C23       1.0  0.66233  0.94060  0.87103  1.0000 -0.0058957923
C   C24       1.0  0.66233  0.55940  0.37102  1.0000 -0.0058957923
C   C25       1.0  0.61857  0.88400  0.02638  1.0000 0.0235815429
C   C26       1.0  0.61858  0.61600  0.52638  1.0000 0.0235815429
C   C27       1.0  0.57623  0.91560  0.89443  1.0000 -0.2006872761
C   C28       1.0  0.57623  0.58440  0.39443  1.0000 -0.2006872761
C   C29       1.0  0.78872  0.89720  0.88231  1.0000 -0.1374172354
C   C30       1.0  0.78872  0.60280  0.38232  1.0000 -0.1374172354
C   C31       1.0  0.30337  0.00060  0.59207  1.0000 0.1114741272
C   C32       1.0  0.30336  0.49940  0.09207  1.0000 0.1114741272
C   C33       1.0  0.26106  0.10890  0.64956  1.0000 -0.1790591702
C   C34       1.0  0.26106  0.39110  0.14957  1.0000 -0.1790591702
C   C35       1.0  0.39843  0.98150  0.57164  1.0000 -0.1790591702
C   C36       1.0  0.39843  0.51850  0.07164  1.0000 -0.1790591702
C   C37       1.0  0.34109  0.04100  0.63719  1.0000 0.1114741272
C   C38       1.0  0.34109  0.45900  0.13719  1.0000 0.1114741272
C   C39       1.0  0.13941  0.93050  0.52911  1.0000 0.090327437
C   C40       1.0  0.13941  0.56950  0.02911  1.0000 0.090327437
C   C41       1.0  0.70667  0.23480  0.88417  1.0000 -0.1204876104
C   C42       1.0  0.70666  0.26520  0.38417  1.0000 -0.1204876104
C   C43       1.0  0.74223  0.80190  0.93924  1.0000 -0.2108356329
C   C44       1.0  0.74223  0.69810  0.43924  1.0000 -0.2108356329
C   C45       1.0  0.12520  0.44000  0.86389  1.0000 -0.0058957923
C   C46       1.0  0.12520  0.06000  0.36390  1.0000 -0.0058957923
C   C47       1.0  0.04179  0.29530  0.79859  1.0000 -0.2006872761
C   C48       1.0  0.04178  0.20470  0.29858  1.0000 -0.2006872761
C   C49       1.0  0.45680  0.00750  0.66990  1.0000 -0.1900426619
C   C50       1.0  0.45680  0.49250  0.16990  1.0000 -0.1900426619
C   C51       1.0  0.21800  0.38310  0.85210  1.0000 -0.1275167578
C   C52       1.0  0.21799  0.11690  0.35209  1.0000 -0.1275167578
C   C53       1.0  0.78059  0.00090  0.09450  1.0000 -0.0977229001
C   C54       1.0  0.78060  0.49910  0.59450  1.0000 -0.0977229001
C   C55       1.0  0.35920  0.93840  0.53071  1.0000 0.0985996229
C   C56       1.0  0.35920  0.56160  0.03070  1.0000 0.0985996229
C   C57       1.0  0.63601  0.85950  0.06981  1.0000 -0.1275167578
C   C58       1.0  0.63601  0.64050  0.56981  1.0000 -0.1275167578
C   C59       1.0  0.68232  0.96790  0.01722  1.0000 -0.1483219984
C   C60       1.0  0.68231  0.53210  0.51721  1.0000 -0.1483219984
C   C61       1.0  0.73978  0.26740  0.81338  1.0000 0.2508857426
C   C62       1.0  0.73977  0.23260  0.31338  1.0000 0.2508857426
C   C63       1.0  0.48637  0.04390  0.71187  1.0000 0.0716966157
C   C64       1.0  0.48636  0.45610  0.21186  1.0000 0.0716966157
C   C65       1.0  0.78983  0.22960  0.85853  1.0000 0.0145246991
C   C66       1.0  0.78983  0.27040  0.35853  1.0000 0.0145246991
C   C67       1.0  0.94966  0.35040  0.81146  1.0000 0.1588337999
C   C68       1.0  0.94966  0.14960  0.31146  1.0000 0.1588337999
C   C69       1.0  0.91597  0.18680  0.87587  1.0000 -0.1204876104
C   C70       1.0  0.91596  0.31320  0.37587  1.0000 -0.1204876104
C   C71       1.0  0.28092  0.25380  0.80692  1.0000 0.51220386
C   C72       1.0  0.28092  0.24620  0.30691  1.0000 0.51220386
C   C73       1.0  0.75977  0.41020  0.72027  1.0000 -0.5300861868
C   C74       1.0  0.75976  0.08980  0.22027  1.0000 -0.5300861868
C   C75       1.0  0.72376  0.34630  0.75216  1.0000 0.3079946814
C   C76       1.0  0.72376  0.15370  0.25216  1.0000 0.3079946814
C   C77       1.0  0.74867  0.19740  0.92638  1.0000 -0.0797542433
C   C78       1.0  0.74867  0.30260  0.42638  1.0000 -0.0797542433
C   C79       1.0  0.87471  0.15630  0.94351  1.0000 -0.0797542433
C   C80       1.0  0.87472  0.34370  0.44352  1.0000 -0.0797542433
C   C81       1.0  0.36184  0.73180  0.88114  1.0000 -0.5206868919
C   C82       1.0  0.36184  0.76820  0.38114  1.0000 -0.5206868919
C   C83       1.0  0.71649  0.91800  0.10379  1.0000 -0.0852362114
C   C84       1.0  0.71649  0.58200  0.60379  1.0000 -0.0852362114
C   C85       1.0  0.95913  0.15190  0.91843  1.0000 -0.0797542433
C   C86       1.0  0.95913  0.34810  0.41843  1.0000 -0.0797542433
C   C87       1.0  0.76385  0.02520  0.05155  1.0000 -0.0797542433
C   C88       1.0  0.76385  0.47480  0.55156  1.0000 -0.0797542433
C   C89       1.0  0.82274  0.81300  0.68085  1.0000 0.0036601293
C   C90       1.0  0.82274  0.68700  0.18085  1.0000 0.0036601293
C   C91       1.0  0.70158  0.64210  0.80758  1.0000 0.0716966157
C   C92       1.0  0.70157  0.85790  0.30757  1.0000 0.0716966157
C   C93       1.0  0.17005  0.32920  0.58385  1.0000 -0.0013487098
C   C94       1.0  0.17005  0.17080  0.08385  1.0000 -0.0013487098
C   C95       1.0  0.38187  0.51360  0.66617  1.0000 0.5376632241
C   C96       1.0  0.38188  0.98640  0.16617  1.0000 0.5376632241
C   C97       1.0  0.03366  0.28150  0.57336  1.0000 0.5323717323
C   C98       1.0  0.03365  0.21850  0.07336  1.0000 0.5323717323
C   C99       1.0  0.47802  0.32660  0.50882  1.0000 0.2312660542
C   C100      1.0  0.47802  0.17340  0.00883  1.0000 0.2312660542
C   C101      1.0  0.82962  0.47650  0.93062  1.0000 -0.1790591702
C   C102      1.0  0.82961  0.02350  0.43062  1.0000 -0.1790591702
C   C103      1.0  0.38352  0.34540  0.57242  1.0000 0.1588337999
C   C104      1.0  0.38351  0.15460  0.07242  1.0000 0.1588337999
C   C105      1.0  0.01108  0.92390  0.65748  1.0000 -0.2006872761
C   C106      1.0  0.01108  0.57610  0.15748  1.0000 -0.1900426619
C   C107      1.0  0.59354  0.26160  0.57214  1.0000 0.3533838195
C   C108      1.0  0.59354  0.23840  0.07214  1.0000 0.3533838195
C   C109      1.0  0.82863  0.01670  0.60123  1.0000 0.5376632241
C   C110      1.0  0.82862  0.48330  0.10123  1.0000 0.5376632241
C   C111      1.0  0.33767  0.44060  0.62897  1.0000 -0.0058957923
C   C112      1.0  0.33767  0.05940  0.12898  1.0000 -0.0058957923
C   C113      1.0  0.38143  0.38400  0.47363  1.0000 0.0235815429
C   C114      1.0  0.38143  0.11600  0.97363  1.0000 0.0235815429
C   C115      1.0  0.42378  0.41560  0.60558  1.0000 -0.2006872761
C   C116      1.0  0.42377  0.08440  0.10558  1.0000 -0.2006872761
C   C117      1.0  0.21128  0.39720  0.61769  1.0000 -0.1374172354
C   C118      1.0  0.21129  0.10280  0.11769  1.0000 -0.1374172354
C   C119      1.0  0.69664  0.50060  0.90794  1.0000 0.1114741272
C   C120      1.0  0.69664  0.99940  0.40794  1.0000 0.1114741272
C   C121      1.0  0.73894  0.60890  0.85044  1.0000 -0.1790591702
C   C122      1.0  0.73893  0.89110  0.35043  1.0000 -0.1790591702
C   C123      1.0  0.60157  0.48150  0.92837  1.0000 -0.1790591702
C   C124      1.0  0.60157  0.01850  0.42837  1.0000 -0.1790591702
C   C125      1.0  0.65892  0.54100  0.86282  1.0000 0.1114741272
C   C126      1.0  0.65892  0.95900  0.36281  1.0000 0.1114741272
C   C127      1.0  0.86059  0.43050  0.97090  1.0000 0.090327437
C   C128      1.0  0.86059  0.06950  0.47090  1.0000 0.090327437
C   C129      1.0  0.29334  0.73480  0.61584  1.0000 -0.1204876104
C   C130      1.0  0.29334  0.76520  0.11584  1.0000 -0.1204876104
C   C131      1.0  0.25777  0.30190  0.56076  1.0000 -0.2108356329
C   C132      1.0  0.25777  0.19810  0.06077  1.0000 -0.2108356329
C   C133      1.0  0.87481  0.94000  0.63611  1.0000 -0.0058957923
C   C134      1.0  0.87481  0.56000  0.13611  1.0000 -0.0058957923
C   C135      1.0  0.95822  0.79530  0.70142  1.0000 -0.2006872761
C   C136      1.0  0.95822  0.70470  0.20142  1.0000 -0.2006872761
C   C137      1.0  0.54321  0.50750  0.83011  1.0000 -0.1900426619
C   C138      1.0  0.54320  0.99250  0.33010  1.0000 -0.1900426619
C   C139      1.0  0.78201  0.88310  0.64791  1.0000 -0.1275167578
C   C140      1.0  0.78200  0.61690  0.14791  1.0000 -0.1275167578
C   C141      1.0  0.21941  0.50090  0.40551  1.0000 -0.0977229001
C   C142      1.0  0.21941  0.99910  0.90551  1.0000 -0.0977229001
C   C143      1.0  0.64080  0.43840  0.96930  1.0000 0.0985996229
C   C144      1.0  0.64079  0.06160  0.46930  1.0000 0.0985996229
C   C145      1.0  0.36400  0.35950  0.43020  1.0000 -0.1275167578
C   C146      1.0  0.36400  0.14050  0.93020  1.0000 -0.1275167578
C   C147      1.0  0.31769  0.46790  0.48279  1.0000 -0.1483219984
C   C148      1.0  0.31769  0.03210  0.98279  1.0000 -0.1483219984
C   C149      1.0  0.26022  0.76740  0.68663  1.0000 0.2508857426
C   C150      1.0  0.26022  0.73260  0.18663  1.0000 0.2508857426
C   C151      1.0  0.51364  0.54390  0.78814  1.0000 0.0716966157
C   C152      1.0  0.51364  0.95610  0.28814  1.0000 0.0716966157
C   C153      1.0  0.21018  0.72960  0.64148  1.0000 0.0145246991
C   C154      1.0  0.21018  0.77040  0.14148  1.0000 0.0145246991
C   C155      1.0  0.05035  0.85040  0.68855  1.0000 0.1588337999
C   C156      1.0  0.05035  0.64960  0.18855  1.0000 0.1588337999
C   C157      1.0  0.08404  0.68680  0.62414  1.0000 -0.1204876104
C   C158      1.0  0.08404  0.81320  0.12414  1.0000 -0.1204876104
C   C159      1.0  0.71908  0.75380  0.69309  1.0000 0.51220386
C   C160      1.0  0.71908  0.74620  0.19309  1.0000 0.51220386
C   C161      1.0  0.24024  0.91020  0.77974  1.0000 -0.5300861868
C   C162      1.0  0.24024  0.58980  0.27974  1.0000 -0.5300861868
C   C163      1.0  0.27623  0.84630  0.74784  1.0000 0.3079946814
C   C164      1.0  0.27623  0.65370  0.24784  1.0000 0.3079946814
C   C165      1.0  0.25133  0.69740  0.57363  1.0000 -0.0797542433
C   C166      1.0  0.25133  0.80260  0.07362  1.0000 -0.0797542433
C   C167      1.0  0.12529  0.65630  0.55649  1.0000 -0.0797542433
C   C168      1.0  0.12529  0.84370  0.05649  1.0000 -0.0797542433
C   C169      1.0  0.63817  0.23180  0.61887  1.0000 -0.5206868919
C   C170      1.0  0.63816  0.26820  0.11887  1.0000 -0.5206868919
C   C171      1.0  0.28352  0.41800  0.39622  1.0000 -0.0852362114
C   C172      1.0  0.28352  0.08200  0.89621  1.0000 -0.0797542433
C   C173      1.0  0.04088  0.65190  0.58158  1.0000 -0.0797542433
C   C174      1.0  0.04088  0.84810  0.08157  1.0000 -0.0797542433
C   C175      1.0  0.23615  0.52520  0.44844  1.0000 -0.0797542433
C   C176      1.0  0.23614  0.97480  0.94844  1.0000 -0.0797542433
N   N1        1.0  0.34428  0.74229  0.95638  1.0000 -0.2873118045
N   N2        1.0  0.34428  0.75771  0.45638  1.0000 -0.2873118045
N   N3        1.0  0.23150  0.91081  0.50970  1.0000 -0.2502197
N   N4        1.0  0.23149  0.58919  0.00970  1.0000 -0.2502197
N   N5        1.0  0.80975  0.32441  0.79314  1.0000 -0.1204876104
N   N6        1.0  0.80975  0.17559  0.29314  1.0000 -0.1204876104
N   N7        1.0  0.52014  0.81469  0.94835  1.0000 -0.1204876104
N   N8        1.0  0.52014  0.68531  0.44834  1.0000 -0.1204876104
N   N9        1.0  0.41013  0.11015  0.72353  1.0000 -0.2770434888
N   N10       1.0  0.41012  0.38985  0.22353  1.0000 -0.2770434888
N   N11       1.0  0.61745  0.25424  0.78505  1.0000 -0.2732326995
N   N12       1.0  0.61745  0.24576  0.28505  1.0000 -0.2732326995
N   N13       1.0  0.41778  0.78271  0.99658  1.0000 -0.2732326995
N   N14       1.0  0.41778  0.71729  0.49658  1.0000 -0.2732326995
N   N15       1.0  0.60860  0.30470  0.74701  1.0000 -0.1790591702
N   N16       1.0  0.60860  0.19530  0.24701  1.0000 -0.1790591702
N   N17       1.0  0.65572  0.24229  0.54363  1.0000 -0.2873118045
N   N18       1.0  0.65573  0.25771  0.04362  1.0000 -0.2873118045
N   N19       1.0  0.76851  0.41081  0.99031  1.0000 -0.2502197
N   N20       1.0  0.76850  0.08919  0.49031  1.0000 -0.2502197
N   N21       1.0  0.19026  0.82441  0.70686  1.0000 -0.1204876104
N   N22       1.0  0.19025  0.67559  0.20686  1.0000 -0.1204876104
N   N23       1.0  0.47986  0.31469  0.55166  1.0000 -0.1204876104
N   N24       1.0  0.47985  0.18531  0.05165  1.0000 -0.1204876104
N   N25       1.0  0.58988  0.61015  0.77648  1.0000 -0.2770434888
N   N26       1.0  0.58987  0.88985  0.27648  1.0000 -0.2770434888
N   N27       1.0  0.38256  0.75424  0.71496  1.0000 -0.2732326995
N   N28       1.0  0.38255  0.74576  0.21496  1.0000 -0.2732326995
N   N29       1.0  0.58222  0.28271  0.50343  1.0000 -0.2732326995
N   N30       1.0  0.58222  0.21729  0.00343  1.0000 -0.2732326995
N   N31       1.0  0.39140  0.80470  0.75300  1.0000 -0.1790591702
N   N32       1.0  0.39139  0.69530  0.25300  1.0000 -0.1790591702
O   O1        1.0  0.08123  0.57562  0.90349  1.0000 -0.5505509796
O   O2        1.0  0.08123  0.92438  0.40348  1.0000 -0.5505509796
O   O3        1.0  0.68651  0.02671  0.80952  1.0000 -0.5570469918
O   O4        1.0  0.68651  0.47329  0.30951  1.0000 -0.5570469918
O   O5        1.0  0.50794  0.05957  0.82988  1.0000 -0.5505509796
O   O6        1.0  0.50793  0.44043  0.32988  1.0000 -0.5505509796
O   O7        1.0  0.00730  0.72733  0.96081  1.0000 -0.5505509796
O   O8        1.0  0.00729  0.77267  0.46081  1.0000 -0.5505509796
O   O9        1.0  0.03520  0.79418  0.90199  1.0000 -0.5353668007
O   O10       1.0  0.03520  0.70582  0.40199  1.0000 -0.5353668007
O   O11       1.0  0.29111  0.52321  0.92161  1.0000 -0.5570469918
O   O12       1.0  0.29111  0.97679  0.42161  1.0000 -0.5570469918
O   O13       1.0  0.39893  0.27560  0.82353  1.0000 -0.4979796978
O   O14       1.0  0.39893  0.22440  0.32353  1.0000 -0.4979796978
O   O15       1.0  0.24772  0.18360  0.78102  1.0000 -0.5126030716
O   O16       1.0  0.24773  0.31640  0.28103  1.0000 -0.5126030716
O   O17       1.0  0.91878  0.07562  0.59652  1.0000 -0.5505509796
O   O18       1.0  0.91878  0.42438  0.09652  1.0000 -0.5505509796
O   O19       1.0  0.31349  0.52671  0.69049  1.0000 -0.5570469918
O   O20       1.0  0.31349  0.97329  0.19049  1.0000 -0.5570469918
O   O21       1.0  0.49206  0.55957  0.67012  1.0000 -0.5505509796
O   O22       1.0  0.49206  0.94043  0.17011  1.0000 -0.5505509796
O   O23       1.0  0.99270  0.22733  0.53920  1.0000 -0.5505509796
O   O24       1.0  0.99270  0.27267  0.03920  1.0000 -0.5505509796
O   O25       1.0  0.96480  0.29418  0.59801  1.0000 -0.5353668007
O   O26       1.0  0.96480  0.20582  0.09802  1.0000 -0.5353668007
O   O27       1.0  0.70889  0.02321  0.57840  1.0000 -0.5570469918
O   O28       1.0  0.70889  0.47679  0.07840  1.0000 -0.5570469918
O   O29       1.0  0.60108  0.77560  0.67648  1.0000 -0.4979796978
O   O30       1.0  0.60107  0.72440  0.17648  1.0000 -0.4979796978
O   O31       1.0  0.75227  0.68360  0.71898  1.0000 -0.5126030716
O   O32       1.0  0.75227  0.81640  0.21898  1.0000 -0.5126030716
