# DDEC6 charges by PACMAN v1.1 (https://github.com/mtap-research/PACMAN-charge/)
data_2014[Gd][fsc]3[FSR]1
_chemical_formula_sum              "Gd2 H10 C12 O16"
_cell_length_a       6.0867
_cell_length_b       9.483
_cell_length_c       10.096
_cell_angle_alpha    88.612
_cell_angle_beta     105.615
_cell_angle_gamma    102.868

_symmetry_space_group_name_H-M    "P 1"
_symmetry_Int_Tables_number       1

loop_
  _symmetry_equiv_pos_as_xyz
  'x, y, z'

loop_
  _atom_site_type_symbol
  _atom_site_label
  _atom_site_symmetry_multiplicity
  _atom_site_fract_x
  _atom_site_fract_y
  _atom_site_fract_z
  _atom_site_occupancy
  _atom_site_charge
Gd  Gd1       1.0  0.65480  0.94175  0.70299  1.0000 1.889231013
Gd  Gd2       1.0  0.34520  0.05825  0.29701  1.0000 1.889231013
H   H1        1.0  0.26700  0.11630  0.70460  1.0000 0.3939909207
H   H2        1.0  0.73300  0.88370  0.29540  1.0000 0.3939909207
H   H3        1.0  0.37840  0.03140  0.64860  1.0000 0.3117880093
H   H4        1.0  0.62160  0.96860  0.35140  1.0000 0.3117880093
H   H5        1.0  0.46420  0.76980  0.89650  1.0000 0.3800568151
H   H6        1.0  0.53580  0.23020  0.10350  1.0000 0.3800568151
H   H7        1.0  0.27550  0.82630  0.82990  1.0000 0.3800568151
H   H8        1.0  0.72450  0.17370  0.17010  1.0000 0.3800568151
H   H9        1.0  0.72850  0.44150  0.62620  1.0000 0.146406995
H   H10       1.0  0.27150  0.55850  0.37380  1.0000 0.146406995
C   C1        1.0  0.83800  0.46590  0.57570  1.0000 -0.103082182
C   C2        1.0  0.16200  0.53410  0.42430  1.0000 -0.103082182
C   C3        1.0  0.92700  0.35880  0.53390  1.0000 -0.0066580951
C   C4        1.0  0.07300  0.64120  0.46610  1.0000 -0.0066580951
C   C5        1.0  0.83900  0.20640  0.57750  1.0000 0.638774352
C   C6        1.0  0.16100  0.79360  0.42250  1.0000 0.638774352
C   C7        1.0  0.09300  0.39140  0.45530  1.0000 -0.0342284088
C   C8        1.0  0.90700  0.60860  0.54470  1.0000 -0.0342284088
C   C9        1.0  0.19200  0.27830  0.40780  1.0000 0.574449824
C   C10       1.0  0.80800  0.72170  0.59220  1.0000 0.574449824
C   C11       1.0  0.92700  0.04740  0.01660  1.0000 0.4875770079
C   C12       1.0  0.07300  0.95260  0.98340  1.0000 0.4875770079
O   O1        1.0  0.99540  0.10590  0.13920  1.0000 -0.6010877026
O   O2        1.0  0.00460  0.89410  0.86080  1.0000 -0.6010877026
O   O3        1.0  0.93710  0.16990  0.69330  1.0000 -0.5700993074
O   O4        1.0  0.06290  0.83010  0.30670  1.0000 -0.5700993074
O   O5        1.0  0.66350  0.12370  0.49790  1.0000 -0.6939096284
O   O6        1.0  0.33650  0.87630  0.50210  1.0000 -0.6939096284
O   O7        1.0  0.13480  0.14760  0.44210  1.0000 -0.5846138132
O   O8        1.0  0.86520  0.85240  0.55790  1.0000 -0.5846138132
O   O9        1.0  0.32660  0.31150  0.33110  1.0000 -0.6010877026
O   O10       1.0  0.67340  0.68850  0.66890  1.0000 -0.6010877026
O   O11       1.0  0.74720  0.06210  0.92620  1.0000 -0.5489111674
O   O12       1.0  0.25280  0.93790  0.07380  1.0000 -0.5489111674
O   O13       1.0  0.39820  0.09600  0.71020  1.0000 -0.7418355775
O   O14       1.0  0.60180  0.90400  0.28980  1.0000 -0.7418355775
O   O15       1.0  0.39200  0.79700  0.81930  1.0000 -0.716818167
O   O16       1.0  0.60800  0.20300  0.18070  1.0000 -0.716818167
