# DDEC6 charges by PACMAN v1.1 (https://github.com/mtap-research/PACMAN-charge/)
data_2014[Zn][cds]3[FSR]3
_chemical_formula_sum              "Zn6 H56 C80 N12 O28"
_cell_length_a       14.8129
_cell_length_b       14.8129
_cell_length_c       13.442
_cell_angle_alpha    73.1936
_cell_angle_beta     106.806
_cell_angle_gamma    62.2194

_symmetry_space_group_name_H-M    "P 1"
_symmetry_Int_Tables_number       1

loop_
  _symmetry_equiv_pos_as_xyz
  'x, y, z'

loop_
  _atom_site_type_symbol
  _atom_site_label
  _atom_site_symmetry_multiplicity
  _atom_site_fract_x
  _atom_site_fract_y
  _atom_site_fract_z
  _atom_site_occupancy
  _atom_site_charge
Zn  Zn1       1.0  0.50000  0.50000  0.00000  1.0000 0.8722927315
Zn  Zn2       1.0  0.50000  0.50000  0.50000  1.0000 0.8722927315
Zn  Zn3       1.0  0.63784  0.25972  0.27296  1.0000 0.8514498813
Zn  Zn4       1.0  0.25972  0.63784  0.22704  1.0000 0.8514498813
Zn  Zn5       1.0  0.36216  0.74028  0.72704  1.0000 0.8514498813
Zn  Zn6       1.0  0.74028  0.36216  0.77296  1.0000 0.8514498813
H   H1        1.0  0.44710  0.43350  0.15730  1.0000 0.3706660016
H   H2        1.0  0.43350  0.44710  0.34270  1.0000 0.3706660016
H   H3        1.0  0.55290  0.56650  0.84270  1.0000 0.3706660016
H   H4        1.0  0.56650  0.55290  0.65730  1.0000 0.3706660016
H   H5        1.0  0.03340  0.78780  0.61870  1.0000 0.1388002379
H   H6        1.0  0.78780  0.03340  0.88130  1.0000 0.1388002379
H   H7        1.0  0.96660  0.21220  0.38130  1.0000 0.1388002379
H   H8        1.0  0.21220  0.96660  0.11870  1.0000 0.1388002379
H   H9        1.0  0.86330  0.69370  0.75530  1.0000 0.1279612698
H   H10       1.0  0.69370  0.86330  0.74470  1.0000 0.1279612698
H   H11       1.0  0.13670  0.30630  0.24470  1.0000 0.1279612698
H   H12       1.0  0.30630  0.13670  0.25530  1.0000 0.1279612698
H   H13       1.0  0.00510  0.62190  0.94710  1.0000 0.1231406175
H   H14       1.0  0.62190  0.00510  0.55290  1.0000 0.1231406175
H   H15       1.0  0.99490  0.37810  0.05290  1.0000 0.1231406175
H   H16       1.0  0.37810  0.99490  0.44710  1.0000 0.1231406175
H   H17       1.0  0.35410  0.40010  0.98740  1.0000 0.1131557104
H   H18       1.0  0.40010  0.35410  0.51260  1.0000 0.1131557104
H   H19       1.0  0.64590  0.59990  0.01260  1.0000 0.1131557104
H   H20       1.0  0.59990  0.64590  0.48740  1.0000 0.1131557104
H   H21       1.0  0.33520  0.27180  0.93900  1.0000 0.1231406175
H   H22       1.0  0.27180  0.33520  0.56100  1.0000 0.1231406175
H   H23       1.0  0.66480  0.72820  0.06100  1.0000 0.1231406175
H   H24       1.0  0.72820  0.66480  0.43900  1.0000 0.1231406175
H   H25       1.0  0.57520  0.22140  0.83600  1.0000 0.1279612698
H   H26       1.0  0.22140  0.57520  0.66400  1.0000 0.1279612698
H   H27       1.0  0.42480  0.77860  0.16400  1.0000 0.1279612698
H   H28       1.0  0.77860  0.42480  0.33600  1.0000 0.1279612698
H   H29       1.0  0.58440  0.35380  0.88430  1.0000 0.1131557104
H   H30       1.0  0.35380  0.58440  0.61570  1.0000 0.1131557104
H   H31       1.0  0.41560  0.64620  0.11570  1.0000 0.1131557104
H   H32       1.0  0.64620  0.41560  0.38430  1.0000 0.1131557104
H   H33       1.0  0.49820  0.11080  0.82070  1.0000 0.1131557104
H   H34       1.0  0.11080  0.49820  0.67930  1.0000 0.1131557104
H   H35       1.0  0.50180  0.88920  0.17930  1.0000 0.1131557104
H   H36       1.0  0.88920  0.50180  0.32070  1.0000 0.1131557104
H   H37       1.0  0.32780  0.14920  0.88100  1.0000 0.1131557104
H   H38       1.0  0.14920  0.32780  0.61900  1.0000 0.1131557104
H   H39       1.0  0.67220  0.85080  0.11900  1.0000 0.1131557104
H   H40       1.0  0.85080  0.67220  0.38100  1.0000 0.1131557104
H   H41       1.0  0.24840  0.90080  0.81840  1.0000 0.1131557104
H   H42       1.0  0.90080  0.24840  0.68160  1.0000 0.1131557104
H   H43       1.0  0.75160  0.09920  0.18160  1.0000 0.1131557104
H   H44       1.0  0.09920  0.75160  0.31840  1.0000 0.1131557104
H   H45       1.0  0.25370  0.03490  0.86620  1.0000 0.1279612698
H   H46       1.0  0.03490  0.25370  0.63380  1.0000 0.1279612698
H   H47       1.0  0.74630  0.96510  0.13380  1.0000 0.1279612698
H   H48       1.0  0.96510  0.74630  0.36620  1.0000 0.1279612698
H   H49       1.0  0.49010  0.99190  0.76160  1.0000 0.1231406175
H   H50       1.0  0.99190  0.49010  0.73840  1.0000 0.1231406175
H   H51       1.0  0.50990  0.00810  0.23840  1.0000 0.1231406175
H   H52       1.0  0.00810  0.50990  0.26160  1.0000 0.1231406175
H   H53       1.0  0.48180  0.85640  0.72100  1.0000 0.1131557104
H   H54       1.0  0.85640  0.48180  0.77900  1.0000 0.1131557104
H   H55       1.0  0.51820  0.14360  0.27900  1.0000 0.1131557104
H   H56       1.0  0.14360  0.51820  0.22100  1.0000 0.1131557104
C   C1        1.0  0.10608  0.65968  0.89923  1.0000 0.011643632
C   C2        1.0  0.65968  0.10608  0.60077  1.0000 0.011643632
C   C3        1.0  0.89392  0.34032  0.10077  1.0000 0.011643632
C   C4        1.0  0.34032  0.89392  0.39923  1.0000 0.011643632
C   C5        1.0  0.11666  0.70650  0.80032  1.0000 -0.0403019594
C   C6        1.0  0.70650  0.11666  0.69968  1.0000 -0.0403019594
C   C7        1.0  0.88334  0.29350  0.19968  1.0000 -0.0403019594
C   C8        1.0  0.29350  0.88334  0.30032  1.0000 -0.0403019594
C   C9        1.0  0.02945  0.75289  0.68534  1.0000 -0.1519756301
C   C10       1.0  0.75289  0.02945  0.81466  1.0000 -0.1519756301
C   C11       1.0  0.97055  0.24711  0.31466  1.0000 -0.1519756301
C   C12       1.0  0.24711  0.97055  0.18534  1.0000 -0.1551856803
C   C13       1.0  0.93704  0.74654  0.67150  1.0000 0.0582226707
C   C14       1.0  0.74654  0.93704  0.82850  1.0000 0.0582226707
C   C15       1.0  0.06296  0.25346  0.32850  1.0000 0.0582226707
C   C16       1.0  0.25346  0.06296  0.17150  1.0000 0.0582226707
C   C17       1.0  0.92608  0.69772  0.76710  1.0000 -0.1519756301
C   C18       1.0  0.69772  0.92608  0.73290  1.0000 -0.1519756301
C   C19       1.0  0.07392  0.30228  0.23290  1.0000 -0.1519756301
C   C20       1.0  0.30228  0.07392  0.26710  1.0000 -0.1519756301
C   C21       1.0  0.01124  0.65470  0.88130  1.0000 -0.1217597606
C   C22       1.0  0.65470  0.01124  0.61870  1.0000 -0.1217597606
C   C23       1.0  0.98876  0.34530  0.11870  1.0000 -0.1217597606
C   C24       1.0  0.34530  0.98876  0.38130  1.0000 -0.1217597606
C   C25       1.0  0.19207  0.61409  0.02728  1.0000 0.5711126371
C   C26       1.0  0.61409  0.19207  0.47272  1.0000 0.5711126371
C   C27       1.0  0.80793  0.38591  0.97272  1.0000 0.5711126371
C   C28       1.0  0.38591  0.80793  0.52728  1.0000 0.5711126371
C   C29       1.0  0.22533  0.69917  0.81730  1.0000 0.5767878635
C   C30       1.0  0.69917  0.22533  0.68270  1.0000 0.5767878635
C   C31       1.0  0.77467  0.30083  0.18270  1.0000 0.5767878635
C   C32       1.0  0.30083  0.77467  0.31730  1.0000 0.5767878635
C   C33       1.0  0.39856  0.36406  0.95583  1.0000 0.0802499434
C   C34       1.0  0.36406  0.39856  0.54417  1.0000 0.0802499434
C   C35       1.0  0.60144  0.63594  0.04417  1.0000 0.0802499434
C   C36       1.0  0.63594  0.60144  0.45583  1.0000 0.0802499434
C   C37       1.0  0.38702  0.28634  0.92747  1.0000 -0.2022361712
C   C38       1.0  0.28634  0.38702  0.57253  1.0000 -0.2022361712
C   C39       1.0  0.61298  0.71366  0.07253  1.0000 -0.2022361712
C   C40       1.0  0.71366  0.61298  0.42747  1.0000 -0.2022361712
C   C41       1.0  0.45388  0.22970  0.88130  1.0000 0.1544805063
C   C42       1.0  0.22970  0.45388  0.61870  1.0000 0.1544805063
C   C43       1.0  0.54612  0.77030  0.11870  1.0000 0.1544805063
C   C44       1.0  0.77030  0.54612  0.38130  1.0000 0.1544805063
C   C45       1.0  0.52873  0.25699  0.86620  1.0000 -0.2067750612
C   C46       1.0  0.25699  0.52873  0.63380  1.0000 -0.2067750612
C   C47       1.0  0.47127  0.74301  0.13380  1.0000 -0.2067750612
C   C48       1.0  0.74301  0.47127  0.36620  1.0000 -0.2067750612
C   C49       1.0  0.53408  0.33660  0.89580  1.0000 0.0979801785
C   C50       1.0  0.33660  0.53408  0.60420  1.0000 0.0979801785
C   C51       1.0  0.46592  0.66340  0.10420  1.0000 0.0979801785
C   C52       1.0  0.66340  0.46592  0.39580  1.0000 0.0979801785
C   C53       1.0  0.44811  0.14551  0.84820  1.0000 -0.1519756301
C   C54       1.0  0.14551  0.44811  0.65180  1.0000 -0.1519756301
C   C55       1.0  0.55189  0.85449  0.15180  1.0000 -0.1519756301
C   C56       1.0  0.85449  0.55189  0.34820  1.0000 -0.1519756301
C   C57       1.0  0.37834  0.11426  0.85392  1.0000 -0.1376661616
C   C58       1.0  0.11426  0.37834  0.64608  1.0000 -0.1376661616
C   C59       1.0  0.62166  0.88574  0.14608  1.0000 -0.1376661616
C   C60       1.0  0.88574  0.62166  0.35392  1.0000 -0.1376661616
C   C61       1.0  0.29879  0.91845  0.80800  1.0000 0.0979801785
C   C62       1.0  0.91845  0.29879  0.69200  1.0000 0.0979801785
C   C63       1.0  0.70121  0.08155  0.19200  1.0000 0.0979801785
C   C64       1.0  0.08155  0.70121  0.30800  1.0000 0.0979801785
C   C65       1.0  0.30112  0.99982  0.83660  1.0000 -0.1896215858
C   C66       1.0  0.99982  0.30112  0.66340  1.0000 -0.1896215858
C   C67       1.0  0.69888  0.00018  0.16340  1.0000 -0.1896215858
C   C68       1.0  0.00018  0.69888  0.33660  1.0000 -0.1896215858
C   C69       1.0  0.37388  0.02940  0.82128  1.0000 0.1619391335
C   C70       1.0  0.02940  0.37388  0.67872  1.0000 0.1619391335
C   C71       1.0  0.62612  0.97060  0.17872  1.0000 0.1619391335
C   C72       1.0  0.97060  0.62612  0.32128  1.0000 0.1619391335
C   C73       1.0  0.44097  0.97397  0.77540  1.0000 -0.1896215858
C   C74       1.0  0.97397  0.44097  0.72460  1.0000 -0.1896215858
C   C75       1.0  0.55903  0.02603  0.22460  1.0000 -0.1896215858
C   C76       1.0  0.02603  0.55903  0.27540  1.0000 -0.1896215858
C   C77       1.0  0.43494  0.89314  0.75040  1.0000 0.0802499434
C   C78       1.0  0.89314  0.43494  0.74960  1.0000 0.0802499434
C   C79       1.0  0.56506  0.10686  0.24960  1.0000 0.0802499434
C   C80       1.0  0.10686  0.56506  0.25040  1.0000 0.0802499434
N   N1        1.0  0.84674  0.79314  0.54940  1.0000 0.4871452643
N   N2        1.0  0.79314  0.84674  0.95060  1.0000 0.4871452643
N   N3        1.0  0.15326  0.20686  0.45060  1.0000 0.4871452643
N   N4        1.0  0.20686  0.15326  0.04940  1.0000 0.4871452643
N   N5        1.0  0.47014  0.39032  0.94035  1.0000 -0.2318308012
N   N6        1.0  0.39032  0.47014  0.55965  1.0000 -0.2318308012
N   N7        1.0  0.52986  0.60968  0.05965  1.0000 -0.2318308012
N   N8        1.0  0.60968  0.52986  0.44035  1.0000 -0.2318308012
N   N9        1.0  0.36490  0.86394  0.76623  1.0000 -0.2470904844
N   N10       1.0  0.86394  0.36490  0.73377  1.0000 -0.2470904844
N   N11       1.0  0.63510  0.13606  0.23377  1.0000 -0.2470904844
N   N12       1.0  0.13606  0.63510  0.26623  1.0000 -0.2470904844
O   O1        1.0  0.18220  0.69294  0.05309  1.0000 -0.5409062164
O   O2        1.0  0.69294  0.18220  0.44691  1.0000 -0.5409062164
O   O3        1.0  0.81780  0.30706  0.94691  1.0000 -0.5409062164
O   O4        1.0  0.30706  0.81780  0.55309  1.0000 -0.5409062164
O   O5        1.0  0.25773  0.50759  0.09870  1.0000 -0.5453735249
O   O6        1.0  0.50759  0.25773  0.40130  1.0000 -0.5453735249
O   O7        1.0  0.74227  0.49241  0.90130  1.0000 -0.5453735249
O   O8        1.0  0.49241  0.74227  0.59870  1.0000 -0.5453735249
O   O9        1.0  0.31194  0.63352  0.91976  1.0000 -0.5303172426
O   O10       1.0  0.63352  0.31194  0.58024  1.0000 -0.5303172426
O   O11       1.0  0.68806  0.36648  0.08024  1.0000 -0.5303172426
O   O12       1.0  0.36648  0.68806  0.41976  1.0000 -0.5303172426
O   O13       1.0  0.21979  0.75911  0.72359  1.0000 -0.5303172426
O   O14       1.0  0.75911  0.21979  0.77641  1.0000 -0.5303172426
O   O15       1.0  0.78021  0.24089  0.27641  1.0000 -0.5303172426
O   O16       1.0  0.24089  0.78021  0.22359  1.0000 -0.5303172426
O   O17       1.0  0.85644  0.83704  0.46583  1.0000 -0.3010072889
O   O18       1.0  0.83704  0.85644  0.03417  1.0000 -0.3010072889
O   O19       1.0  0.14356  0.16296  0.53417  1.0000 -0.3010072889
O   O20       1.0  0.16296  0.14356  0.96583  1.0000 -0.3010072889
O   O21       1.0  0.76704  0.78584  0.53780  1.0000 -0.3010072889
O   O22       1.0  0.78584  0.76704  0.96220  1.0000 -0.3010072889
O   O23       1.0  0.23296  0.21416  0.46220  1.0000 -0.3010072889
O   O24       1.0  0.21416  0.23296  0.03780  1.0000 -0.3010072889
O   O25       1.0  0.50887  0.41783  0.15696  1.0000 -0.8345325844
O   O26       1.0  0.41783  0.50887  0.34304  1.0000 -0.8345325844
O   O27       1.0  0.49113  0.58217  0.84304  1.0000 -0.8345325844
O   O28       1.0  0.58217  0.49113  0.65696  1.0000 -0.8345325844
