# DDEC6 charges by PACMAN v1.1 (https://github.com/mtap-research/PACMAN-charge/)
data_2014[Zn][nan]3[FSR]6
_chemical_formula_sum              "Zn6 H6 C24 O18"
_cell_length_a       15.0962
_cell_length_b       15.0962
_cell_length_c       15.0962
_cell_angle_alpha    117.782
_cell_angle_beta     117.782
_cell_angle_gamma    117.782

_symmetry_space_group_name_H-M    "P 1"
_symmetry_Int_Tables_number       1

loop_
  _symmetry_equiv_pos_as_xyz
  'x, y, z'

loop_
  _atom_site_type_symbol
  _atom_site_label
  _atom_site_symmetry_multiplicity
  _atom_site_fract_x
  _atom_site_fract_y
  _atom_site_fract_z
  _atom_site_occupancy
  _atom_site_charge
Zn  Zn1       1.0  0.11440  0.52730  0.79450  1.0000 0.9668190637
Zn  Zn2       1.0  0.52730  0.79450  0.11440  1.0000 0.9668190637
Zn  Zn3       1.0  0.79450  0.11440  0.52730  1.0000 0.9668190637
Zn  Zn4       1.0  0.88560  0.47270  0.20550  1.0000 0.9668190637
Zn  Zn5       1.0  0.47270  0.20550  0.88560  1.0000 0.9668190637
Zn  Zn6       1.0  0.20550  0.88560  0.47270  1.0000 0.9668190637
H   H1        1.0  0.67220  0.20830  0.65450  1.0000 0.147008246
H   H2        1.0  0.20830  0.65450  0.67220  1.0000 0.147008246
H   H3        1.0  0.65450  0.67220  0.20830  1.0000 0.147008246
H   H4        1.0  0.32780  0.79170  0.34550  1.0000 0.147008246
H   H5        1.0  0.79170  0.34550  0.32780  1.0000 0.147008246
H   H6        1.0  0.34550  0.32780  0.79170  1.0000 0.147008246
C   C1        1.0  0.35780  0.74560  0.18390  1.0000 0.62113233
C   C2        1.0  0.74560  0.18390  0.35780  1.0000 0.62113233
C   C3        1.0  0.18390  0.35780  0.74560  1.0000 0.62113233
C   C4        1.0  0.64220  0.25440  0.81610  1.0000 0.62113233
C   C5        1.0  0.25440  0.81610  0.64220  1.0000 0.62113233
C   C6        1.0  0.81610  0.64220  0.25440  1.0000 0.62113233
C   C7        1.0  0.97220  0.44220  0.87540  1.0000 0.2913330007
C   C8        1.0  0.44220  0.87540  0.97220  1.0000 0.2913330007
C   C9        1.0  0.87540  0.97220  0.44220  1.0000 0.2913330007
C   C10       1.0  0.02780  0.55780  0.12460  1.0000 0.2913330007
C   C11       1.0  0.55780  0.12460  0.02780  1.0000 0.2913330007
C   C12       1.0  0.12460  0.02780  0.55780  1.0000 0.2913330007
C   C13       1.0  0.16910  0.61480  0.07980  1.0000 -0.1784962457
C   C14       1.0  0.61480  0.07980  0.16910  1.0000 -0.1784962457
C   C15       1.0  0.07980  0.16910  0.61480  1.0000 -0.1784962457
C   C16       1.0  0.83090  0.38520  0.92020  1.0000 -0.1784962457
C   C17       1.0  0.38520  0.92020  0.83090  1.0000 -0.1784962457
C   C18       1.0  0.92020  0.83090  0.38520  1.0000 -0.1784962457
C   C19       1.0  0.80080  0.31980  0.78790  1.0000 -0.1915066656
C   C20       1.0  0.31980  0.78790  0.80080  1.0000 -0.1915066656
C   C21       1.0  0.78790  0.80080  0.31980  1.0000 -0.1915066656
C   C22       1.0  0.19920  0.68020  0.21210  1.0000 -0.1915066656
C   C23       1.0  0.68020  0.21210  0.19920  1.0000 -0.1915066656
C   C24       1.0  0.21210  0.19920  0.68020  1.0000 -0.1915066656
O   O1        1.0  0.33490  0.70440  0.07640  1.0000 -0.5265635691
O   O2        1.0  0.70440  0.07640  0.33490  1.0000 -0.5265635691
O   O3        1.0  0.07640  0.33490  0.70440  1.0000 -0.5265635691
O   O4        1.0  0.66510  0.29560  0.92360  1.0000 -0.5265635691
O   O5        1.0  0.29560  0.92360  0.66510  1.0000 -0.5265635691
O   O6        1.0  0.92360  0.66510  0.29560  1.0000 -0.5265635691
O   O7        1.0  0.92790  0.36530  0.73530  1.0000 -0.6470220131
O   O8        1.0  0.36530  0.73530  0.92790  1.0000 -0.6470220131
O   O9        1.0  0.73530  0.92790  0.36530  1.0000 -0.6470220131
O   O10       1.0  0.07210  0.63470  0.26470  1.0000 -0.6470220131
O   O11       1.0  0.63470  0.26470  0.07210  1.0000 -0.6470220131
O   O12       1.0  0.26470  0.07210  0.63470  1.0000 -0.6470220131
O   O13       1.0  0.90340  0.37150  0.52350  1.0000 -0.4827041469
O   O14       1.0  0.37150  0.52350  0.90340  1.0000 -0.4827041469
O   O15       1.0  0.52350  0.90340  0.37150  1.0000 -0.4827041469
O   O16       1.0  0.09660  0.62850  0.47650  1.0000 -0.4827041469
O   O17       1.0  0.62850  0.47650  0.09660  1.0000 -0.4827041469
O   O18       1.0  0.47650  0.09660  0.62850  1.0000 -0.4827041469
