# DDEC6 charges by PACMAN v1.1 (https://github.com/mtap-research/PACMAN-charge/)
data_2014[Tb][dmc]3[FSR]1
_chemical_formula_sum              "Tb4 H44 C36 N4 O36"
_cell_length_a       6.6309
_cell_length_b       13.4525
_cell_length_c       15.8734
_cell_angle_alpha    90
_cell_angle_beta     97.862
_cell_angle_gamma    90

_symmetry_space_group_name_H-M    "P 1"
_symmetry_Int_Tables_number       1

loop_
  _symmetry_equiv_pos_as_xyz
  'x, y, z'

loop_
  _atom_site_type_symbol
  _atom_site_label
  _atom_site_symmetry_multiplicity
  _atom_site_fract_x
  _atom_site_fract_y
  _atom_site_fract_z
  _atom_site_occupancy
  _atom_site_charge
Tb  Tb1       1.0  0.53495  0.06080  0.74882  1.0000 1.9741279208
Tb  Tb2       1.0  0.96505  0.56080  0.25118  1.0000 1.9741279208
Tb  Tb3       1.0  0.46505  0.93920  0.25118  1.0000 1.9741279208
Tb  Tb4       1.0  0.03495  0.43920  0.74882  1.0000 1.9741279208
H   H1        1.0  0.50830  0.17910  0.89750  1.0000 0.3490443328
H   H2        1.0  0.99170  0.67910  0.10250  1.0000 0.3490443328
H   H3        1.0  0.49170  0.82090  0.10250  1.0000 0.3490443328
H   H4        1.0  0.00830  0.32090  0.89750  1.0000 0.3490443328
H   H5        1.0  0.30830  0.16060  0.86520  1.0000 0.3490443328
H   H6        1.0  0.19170  0.66060  0.13480  1.0000 0.3490443328
H   H7        1.0  0.69170  0.83940  0.13480  1.0000 0.3490443328
H   H8        1.0  0.80830  0.33940  0.86520  1.0000 0.3490443328
H   H9        1.0  0.83570  0.00800  0.64180  1.0000 0.333375963
H   H10       1.0  0.66430  0.50800  0.35820  1.0000 0.333375963
H   H11       1.0  0.16430  0.99200  0.35820  1.0000 0.333375963
H   H12       1.0  0.33570  0.49200  0.64180  1.0000 0.333375963
H   H13       1.0  0.91910  0.97630  0.72150  1.0000 0.3490443328
H   H14       1.0  0.58090  0.47630  0.27850  1.0000 0.3490443328
H   H15       1.0  0.08090  0.02370  0.27850  1.0000 0.3490443328
H   H16       1.0  0.41910  0.52370  0.72150  1.0000 0.3490443328
H   H17       1.0  0.22330  0.99840  0.84590  1.0000 0.3419466489
H   H18       1.0  0.27670  0.49840  0.15410  1.0000 0.3419466489
H   H19       1.0  0.77670  0.00160  0.15410  1.0000 0.3419466489
H   H20       1.0  0.72330  0.50160  0.84590  1.0000 0.3419466489
H   H21       1.0  0.27180  0.91140  0.80630  1.0000 0.3696921193
H   H22       1.0  0.22820  0.41140  0.19370  1.0000 0.3696921193
H   H23       1.0  0.72820  0.08860  0.19370  1.0000 0.3696921193
H   H24       1.0  0.77180  0.58860  0.80630  1.0000 0.3696921193
H   H25       1.0  0.64520  0.43210  0.53610  1.0000 0.1187680895
H   H26       1.0  0.85480  0.93210  0.46390  1.0000 0.1187680895
H   H27       1.0  0.35480  0.56790  0.46390  1.0000 0.1187680895
H   H28       1.0  0.14520  0.06790  0.53610  1.0000 0.1187680895
H   H29       1.0  0.51980  0.30120  0.31730  1.0000 0.1187680895
H   H30       1.0  0.98020  0.80120  0.68270  1.0000 0.1187680895
H   H31       1.0  0.48020  0.69880  0.68270  1.0000 0.1187680895
H   H32       1.0  0.01980  0.19880  0.31730  1.0000 0.1187680895
H   H33       1.0  0.59570  0.13540  0.52800  1.0000 0.1386347157
H   H34       1.0  0.90430  0.63540  0.47200  1.0000 0.1386347157
H   H35       1.0  0.40430  0.86460  0.47200  1.0000 0.1386347157
H   H36       1.0  0.09570  0.36460  0.52800  1.0000 0.1386347157
H   H37       1.0  0.12060  0.06640  0.96210  1.0000 0.1187680895
H   H38       1.0  0.37940  0.56640  0.03790  1.0000 0.1187680895
H   H39       1.0  0.87940  0.93360  0.03790  1.0000 0.1252214932
H   H40       1.0  0.62060  0.43360  0.96210  1.0000 0.1187680895
H   H41       1.0  0.95390  0.09790  0.01770  1.0000 0.1386347157
H   H42       1.0  0.54610  0.59790  0.98230  1.0000 0.1386347157
H   H43       1.0  0.04610  0.90210  0.98230  1.0000 0.1386347157
H   H44       1.0  0.45390  0.40210  0.01770  1.0000 0.1386347157
C   C1        1.0  0.66240  0.28300  0.64380  1.0000 0.6371625686
C   C2        1.0  0.83760  0.78300  0.35620  1.0000 0.6371625686
C   C3        1.0  0.33760  0.71700  0.35620  1.0000 0.6371625686
C   C4        1.0  0.16240  0.21700  0.64380  1.0000 0.6371625686
C   C5        1.0  0.62380  0.28360  0.54790  1.0000 -0.0681763492
C   C6        1.0  0.87620  0.78360  0.45210  1.0000 -0.0681763492
C   C7        1.0  0.37620  0.71640  0.45210  1.0000 -0.0681763492
C   C8        1.0  0.12380  0.21640  0.54790  1.0000 -0.0681763492
C   C9        1.0  0.62050  0.37410  0.50460  1.0000 0.076540249
C   C10       1.0  0.87950  0.87410  0.49540  1.0000 0.076540249
C   C11       1.0  0.37950  0.62590  0.49540  1.0000 0.076540249
C   C12       1.0  0.12050  0.12590  0.50460  1.0000 0.076540249
C   C13       1.0  0.54900  0.29680  0.37610  1.0000 0.0453565582
C   C14       1.0  0.95100  0.79680  0.62390  1.0000 0.0453565582
C   C15       1.0  0.45100  0.70320  0.62390  1.0000 0.0453565582
C   C16       1.0  0.04900  0.20320  0.37610  1.0000 0.0453565582
C   C17       1.0  0.55400  0.20340  0.41290  1.0000 -0.0537960655
C   C18       1.0  0.94600  0.70340  0.58710  1.0000 -0.0537960655
C   C19       1.0  0.44600  0.79660  0.58710  1.0000 -0.0537960655
C   C20       1.0  0.05400  0.29660  0.41290  1.0000 -0.0537960655
C   C21       1.0  0.59180  0.19690  0.50100  1.0000 -0.0681763492
C   C22       1.0  0.90820  0.69690  0.49900  1.0000 -0.0681763492
C   C23       1.0  0.40820  0.80310  0.49900  1.0000 -0.0681763492
C   C24       1.0  0.09180  0.30310  0.50100  1.0000 -0.0681763492
C   C25       1.0  0.51760  0.11200  0.35760  1.0000 0.5502087199
C   C26       1.0  0.98240  0.61200  0.64240  1.0000 0.5502087199
C   C27       1.0  0.48240  0.88800  0.64240  1.0000 0.5502087199
C   C28       1.0  0.01760  0.38800  0.35760  1.0000 0.5502087199
C   C29       1.0  0.83280  0.05140  0.89930  1.0000 0.6049371683
C   C30       1.0  0.66720  0.55140  0.10070  1.0000 0.6049371683
C   C31       1.0  0.16720  0.94860  0.10070  1.0000 0.6054342115
C   C32       1.0  0.33280  0.44860  0.89930  1.0000 0.6054342115
C   C33       1.0  0.98940  0.04810  0.97810  1.0000 -0.273899374
C   C34       1.0  0.51060  0.54810  0.02190  1.0000 -0.273899374
C   C35       1.0  0.01060  0.95190  0.02190  1.0000 -0.2750343061
C   C36       1.0  0.48940  0.45190  0.97810  1.0000 -0.2750343061
N   N1        1.0  0.58370  0.38100  0.42020  1.0000 -0.2274313843
N   N2        1.0  0.91630  0.88100  0.57980  1.0000 -0.2274313843
N   N3        1.0  0.41630  0.61900  0.57980  1.0000 -0.2274313843
N   N4        1.0  0.08370  0.11900  0.42020  1.0000 -0.2274313843
O   O1        1.0  0.63450  0.20330  0.68035  1.0000 -0.626504091
O   O2        1.0  0.86550  0.70330  0.31965  1.0000 -0.626504091
O   O3        1.0  0.36550  0.79670  0.31965  1.0000 -0.626504091
O   O4        1.0  0.13450  0.29670  0.68035  1.0000 -0.626504091
O   O5        1.0  0.42300  0.17890  0.85240  1.0000 -0.729172138
O   O6        1.0  0.07700  0.67890  0.14760  1.0000 -0.729172138
O   O7        1.0  0.57700  0.82110  0.14760  1.0000 -0.729172138
O   O8        1.0  0.92300  0.32110  0.85240  1.0000 -0.729172138
O   O9        1.0  0.71600  0.36270  0.68113  1.0000 -0.6215096986
O   O10       1.0  0.78400  0.86270  0.31887  1.0000 -0.6215096986
O   O11       1.0  0.28400  0.63730  0.31887  1.0000 -0.6215096986
O   O12       1.0  0.21600  0.13730  0.68113  1.0000 -0.6215096986
O   O13       1.0  0.85980  0.02460  0.69390  1.0000 -0.7379457331
O   O14       1.0  0.64020  0.52460  0.30610  1.0000 -0.7379457331
O   O15       1.0  0.14020  0.97540  0.30610  1.0000 -0.7379457331
O   O16       1.0  0.35980  0.47540  0.69390  1.0000 -0.7379457331
O   O17       1.0  0.44470  0.12350  0.28079  1.0000 -0.6385820186
O   O18       1.0  0.05530  0.62350  0.71921  1.0000 -0.6385820186
O   O19       1.0  0.55530  0.87650  0.71921  1.0000 -0.6385820186
O   O20       1.0  0.94470  0.37650  0.28079  1.0000 -0.6385820186
O   O21       1.0  0.24590  0.97290  0.79910  1.0000 -0.729172138
O   O22       1.0  0.25410  0.47290  0.20090  1.0000 -0.729172138
O   O23       1.0  0.75410  0.02710  0.20090  1.0000 -0.729172138
O   O24       1.0  0.74590  0.52710  0.79910  1.0000 -0.729172138
O   O25       1.0  0.55850  0.02830  0.38960  1.0000 -0.6039817012
O   O26       1.0  0.94150  0.52830  0.61040  1.0000 -0.6039817012
O   O27       1.0  0.44150  0.97170  0.61040  1.0000 -0.6039817012
O   O28       1.0  0.05850  0.47170  0.38960  1.0000 -0.6039817012
O   O29       1.0  0.84630  0.12070  0.84730  1.0000 -0.5882121599
O   O30       1.0  0.65370  0.62070  0.15270  1.0000 -0.5882121599
O   O31       1.0  0.15370  0.87930  0.15270  1.0000 -0.5882121599
O   O32       1.0  0.34630  0.37930  0.84730  1.0000 -0.5882121599
O   O33       1.0  0.69270  0.98860  0.88547  1.0000 -0.6487898207
O   O34       1.0  0.80730  0.48860  0.11453  1.0000 -0.6487898207
O   O35       1.0  0.30730  0.01140  0.11453  1.0000 -0.6487898207
O   O36       1.0  0.19270  0.51140  0.88547  1.0000 -0.6487898207
