# DDEC6 charges by PACMAN v1.1 (https://github.com/mtap-research/PACMAN-charge/)
data_2014[FeZn][nan]3[FSR]1
_chemical_formula_sum              "Zn5 Fe1 H108 C132 O38"
_cell_length_a       23.4222
_cell_length_b       23.4222
_cell_length_c       23.4222
_cell_angle_alpha    91.6862
_cell_angle_beta     91.6862
_cell_angle_gamma    160.246

_symmetry_space_group_name_H-M    "P 1"
_symmetry_Int_Tables_number       1

loop_
  _symmetry_equiv_pos_as_xyz
  'x, y, z'

loop_
  _atom_site_type_symbol
  _atom_site_label
  _atom_site_symmetry_multiplicity
  _atom_site_fract_x
  _atom_site_fract_y
  _atom_site_fract_z
  _atom_site_occupancy
  _atom_site_charge
Zn  Zn1       1.0  0.80531  0.85885  0.06228  1.0000 0.9718770391
Zn  Zn2       1.0  0.79657  0.74303  0.93772  1.0000 0.9718770391
Zn  Zn3       1.0  0.25697  0.19469  0.05354  1.0000 0.9718770391
Zn  Zn4       1.0  0.14115  0.20343  0.94646  1.0000 0.9718770391
Zn  Zn5       1.0  0.50000  0.50000  0.00000  1.0000 0.9320021129
Fe  Fe1       1.0  0.25000  0.75000  0.50000  1.0000 1.084000752
H   H1        1.0  0.55850  0.52880  0.20190  1.0000 0.1420002655
H   H2        1.0  0.32690  0.35660  0.79810  1.0000 0.1420002655
H   H3        1.0  0.64340  0.44150  0.97030  1.0000 0.1420002655
H   H4        1.0  0.47120  0.67310  0.02970  1.0000 0.1420002655
H   H5        1.0  0.40410  0.42520  0.18510  1.0000 0.129767959
H   H6        1.0  0.24010  0.21900  0.81490  1.0000 0.129767959
H   H7        1.0  0.78100  0.59590  0.02110  1.0000 0.129767959
H   H8        1.0  0.57480  0.75990  0.97890  1.0000 0.129767959
H   H9        1.0  0.65660  0.77870  0.30030  1.0000 0.1420002655
H   H10       1.0  0.47840  0.35630  0.69970  1.0000 0.1420002655
H   H11       1.0  0.64370  0.34340  0.12210  1.0000 0.1420002655
H   H12       1.0  0.22130  0.52160  0.87790  1.0000 0.1420002655
H   H13       1.0  0.42630  0.40990  0.28040  1.0000 0.1215011167
H   H14       1.0  0.12950  0.14590  0.71960  1.0000 0.1215011167
H   H15       1.0  0.85410  0.57370  0.98360  1.0000 0.1215011167
H   H16       1.0  0.59010  0.87050  0.01640  1.0000 0.1215011167
H   H17       1.0  0.57500  0.71770  0.38750  1.0000 0.129767959
H   H18       1.0  0.33020  0.18750  0.61250  1.0000 0.129767959
H   H19       1.0  0.81250  0.42500  0.14270  1.0000 0.129767959
H   H20       1.0  0.28230  0.66980  0.85730  1.0000 0.129767959
H   H21       1.0  0.33850  0.34240  0.36850  1.0000 0.129767959
H   H22       1.0  0.97390  0.97000  0.63150  1.0000 0.129767959
H   H23       1.0  0.03000  0.66150  0.00390  1.0000 0.129767959
H   H24       1.0  0.65760  0.02610  0.99610  1.0000 0.129767959
H   H25       1.0  0.63690  0.64510  0.46420  1.0000 0.1420002655
H   H26       1.0  0.18090  0.17270  0.53580  1.0000 0.1420002655
H   H27       1.0  0.82730  0.36310  0.00820  1.0000 0.1420002655
H   H28       1.0  0.35490  0.81910  0.99180  1.0000 0.1420002655
H   H29       1.0  0.73620  0.78940  0.50000  1.0000 0.1420002655
H   H30       1.0  0.28940  0.23620  0.50000  1.0000 0.1420002655
H   H31       1.0  0.76380  0.26380  0.05320  1.0000 0.1420002655
H   H32       1.0  0.21060  0.71060  0.94680  1.0000 0.1420002655
H   H33       1.0  0.66150  0.66960  0.53210  1.0000 0.1420002655
H   H34       1.0  0.13750  0.12940  0.46790  1.0000 0.1420002655
H   H35       1.0  0.87060  0.33850  0.00810  1.0000 0.1420002655
H   H36       1.0  0.33040  0.86250  0.99190  1.0000 0.1420002655
H   H37       1.0  0.00160  0.17000  0.39080  1.0000 0.129767959
H   H38       1.0  0.77920  0.61080  0.60920  1.0000 0.129767959
H   H39       1.0  0.38920  0.99840  0.16840  1.0000 0.129767959
H   H40       1.0  0.83000  0.22080  0.83160  1.0000 0.129767959
H   H41       1.0  0.16470  0.33240  0.36230  1.0000 0.1420002655
H   H42       1.0  0.97010  0.80240  0.63770  1.0000 0.1420002655
H   H43       1.0  0.19760  0.83530  0.16770  1.0000 0.1420002655
H   H44       1.0  0.66760  0.02990  0.83230  1.0000 0.1420002655
H   H45       1.0  0.08350  0.19490  0.36220  1.0000 0.129767959
H   H46       1.0  0.83270  0.72130  0.63780  1.0000 0.129767959
H   H47       1.0  0.27870  0.91650  0.11140  1.0000 0.129767959
H   H48       1.0  0.80510  0.16730  0.88860  1.0000 0.129767959
H   H49       1.0  0.20590  0.32560  0.62550  1.0000 0.129767959
H   H50       1.0  0.70010  0.58040  0.37450  1.0000 0.129767959
H   H51       1.0  0.41960  0.79410  0.11970  1.0000 0.129767959
H   H52       1.0  0.67440  0.29990  0.88030  1.0000 0.129767959
H   H53       1.0  0.27320  0.45140  0.62200  1.0000 0.1420002655
H   H54       1.0  0.82940  0.65120  0.37800  1.0000 0.1420002655
H   H55       1.0  0.34880  0.72680  0.17820  1.0000 0.1420002655
H   H56       1.0  0.54860  0.17060  0.82180  1.0000 0.1420002655
H   H57       1.0  0.08810  0.26010  0.59080  1.0000 0.129767959
H   H58       1.0  0.66930  0.49730  0.40920  1.0000 0.129767959
H   H59       1.0  0.50270  0.91190  0.17200  1.0000 0.129767959
H   H60       1.0  0.73990  0.33070  0.82800  1.0000 0.129767959
H   H61       1.0  0.65830  0.80700  0.60170  1.0000 0.1215011167
H   H62       1.0  0.20530  0.05660  0.39830  1.0000 0.1215011167
H   H63       1.0  0.94340  0.34170  0.14870  1.0000 0.1215011167
H   H64       1.0  0.19300  0.79470  0.85130  1.0000 0.1215011167
H   H65       1.0  0.46320  0.47180  0.62560  1.0000 0.129767959
H   H66       1.0  0.84620  0.83760  0.37440  1.0000 0.129767959
H   H67       1.0  0.16240  0.53680  0.00860  1.0000 0.129767959
H   H68       1.0  0.52820  0.15380  0.99140  1.0000 0.129767959
H   H69       1.0  0.84120  0.97550  0.49310  1.0000 0.1215011167
H   H70       1.0  0.48240  0.34810  0.50690  1.0000 0.1215011167
H   H71       1.0  0.65190  0.15880  0.13430  1.0000 0.1215011167
H   H72       1.0  0.02450  0.51760  0.86570  1.0000 0.1215011167
H   H73       1.0  0.12210  0.37490  0.50920  1.0000 0.1215011167
H   H74       1.0  0.86570  0.61290  0.49080  1.0000 0.1215011167
H   H75       1.0  0.38710  0.87790  0.25280  1.0000 0.1215011167
H   H76       1.0  0.62510  0.13430  0.74720  1.0000 0.1215011167
H   H77       1.0  0.83540  0.96660  0.69320  1.0000 0.145385564
H   H78       1.0  0.27340  0.14220  0.30680  1.0000 0.145385564
H   H79       1.0  0.85780  0.16460  0.13120  1.0000 0.145385564
H   H80       1.0  0.03340  0.72660  0.86880  1.0000 0.145385564
H   H81       1.0  0.64140  0.63150  0.70970  1.0000 0.1215011167
H   H82       1.0  0.92180  0.93170  0.29030  1.0000 0.1215011167
H   H83       1.0  0.06830  0.35860  0.99010  1.0000 0.1215011167
H   H84       1.0  0.36850  0.07820  0.00990  1.0000 0.1215011167
H   H85       1.0  0.59740  0.80300  0.49600  1.0000 0.1089999384
H   H86       1.0  0.30700  0.10140  0.50400  1.0000 0.1089999384
H   H87       1.0  0.89860  0.40260  0.20560  1.0000 0.1089999384
H   H88       1.0  0.19700  0.69300  0.79440  1.0000 0.1089999384
H   H89       1.0  0.88050  0.20990  0.47740  1.0000 0.1653667098
H   H90       1.0  0.73250  0.40310  0.52260  1.0000 0.1653667098
H   H91       1.0  0.59690  0.11950  0.32940  1.0000 0.1653667098
H   H92       1.0  0.79010  0.26750  0.67060  1.0000 0.1636024273
H   H93       1.0  0.72970  0.73790  0.80120  1.0000 0.129767959
H   H94       1.0  0.93670  0.92850  0.19880  1.0000 0.129767959
H   H95       1.0  0.07150  0.27030  0.00820  1.0000 0.129767959
H   H96       1.0  0.26210  0.06330  0.99180  1.0000 0.129767959
H   H97       1.0  0.89960  0.87170  0.78490  1.0000 0.129767959
H   H98       1.0  0.08680  0.11470  0.21510  1.0000 0.129767959
H   H99       1.0  0.88530  0.10040  0.97210  1.0000 0.129767959
H   H100      1.0  0.12830  0.91320  0.02790  1.0000 0.129767959
H   H101      1.0  0.38980  0.68380  0.45780  1.0000 0.129767959
H   H102      1.0  0.22600  0.93200  0.54220  1.0000 0.129767959
H   H103      1.0  0.06800  0.61020  0.29400  1.0000 0.129767959
H   H104      1.0  0.31620  0.77400  0.70600  1.0000 0.129767959
H   H105      1.0  0.41790  0.70550  0.52600  1.0000 0.129767959
H   H106      1.0  0.17950  0.89190  0.47400  1.0000 0.129767959
H   H107      1.0  0.10810  0.58210  0.28760  1.0000 0.129767959
H   H108      1.0  0.29450  0.82050  0.71240  1.0000 0.129767959
C   C1        1.0  0.57930  0.59410  0.12920  1.0000 0.6283278323
C   C2        1.0  0.46490  0.45010  0.87080  1.0000 0.6283278323
C   C3        1.0  0.54990  0.42070  0.01480  1.0000 0.6283278323
C   C4        1.0  0.40590  0.53510  0.98520  1.0000 0.6283278323
C   C5        1.0  0.52750  0.53770  0.18860  1.0000 -0.1581681186
C   C6        1.0  0.34910  0.33890  0.81140  1.0000 -0.1581681186
C   C7        1.0  0.66110  0.47250  0.01020  1.0000 -0.1581681186
C   C8        1.0  0.46230  0.65090  0.98980  1.0000 -0.1581681186
C   C9        1.0  0.55320  0.60420  0.28200  1.0000 0.2159366614
C   C10       1.0  0.32220  0.27120  0.71800  1.0000 0.2159366614
C   C11       1.0  0.72880  0.44680  0.05100  1.0000 0.2159366614
C   C12       1.0  0.39580  0.67780  0.94900  1.0000 0.2159366614
C   C13       1.0  0.59260  0.69050  0.31450  1.0000 -0.1992004209
C   C14       1.0  0.37600  0.27810  0.68550  1.0000 -0.1992004209
C   C15       1.0  0.72190  0.40740  0.09790  1.0000 -0.1992004209
C   C16       1.0  0.30950  0.62400  0.90210  1.0000 -0.1992004209
C   C17       1.0  0.45590  0.47130  0.30200  1.0000 -0.2213241601
C   C18       1.0  0.16930  0.15390  0.69800  1.0000 -0.2213241601
C   C19       1.0  0.84610  0.54410  0.01540  1.0000 -0.2213241601
C   C20       1.0  0.52870  0.83070  0.98460  1.0000 -0.2213241601
C   C21       1.0  0.54300  0.65390  0.36650  1.0000 -0.1056712207
C   C22       1.0  0.28740  0.17650  0.63350  1.0000 -0.1056712207
C   C23       1.0  0.82350  0.45700  0.11090  1.0000 -0.1056712207
C   C24       1.0  0.34610  0.71260  0.88910  1.0000 -0.1056712207
C   C25       1.0  0.40330  0.43110  0.35440  1.0000 -0.1180124401
C   C26       1.0  0.07670  0.04890  0.64560  1.0000 -0.1180124401
C   C27       1.0  0.95110  0.59670  0.02780  1.0000 -0.1180124401
C   C28       1.0  0.56890  0.92330  0.97220  1.0000 -0.1180124401
C   C29       1.0  0.44670  0.52380  0.38790  1.0000 0.0683886986
C   C30       1.0  0.13590  0.05880  0.61210  1.0000 0.0683886986
C   C31       1.0  0.94120  0.55330  0.07710  1.0000 0.0683886986
C   C32       1.0  0.47620  0.86410  0.92290  1.0000 0.0683886986
C   C33       1.0  0.37310  0.46380  0.44270  1.0000 -0.0605084424
C   C34       1.0  0.02110  0.93040  0.55730  1.0000 -0.0605084424
C   C35       1.0  0.06960  0.62690  0.09070  1.0000 -0.0605084424
C   C36       1.0  0.53620  0.97890  0.90930  1.0000 -0.0605084424
C   C37       1.0  0.48150  0.55470  0.49600  1.0000 0.0683886986
C   C38       1.0  0.05870  0.98550  0.50400  1.0000 0.0683886986
C   C39       1.0  0.01450  0.51850  0.07320  1.0000 0.0683886986
C   C40       1.0  0.44530  0.94130  0.92680  1.0000 0.0683886986
C   C41       1.0  0.22220  0.34940  0.44200  1.0000 0.0841947912
C   C42       1.0  0.90740  0.78020  0.55800  1.0000 0.0841947912
C   C43       1.0  0.21980  0.77780  0.12720  1.0000 0.0841947912
C   C44       1.0  0.65060  0.09260  0.87280  1.0000 0.0841947912
C   C45       1.0  0.43070  0.52580  0.54850  1.0000 -0.0605084424
C   C46       1.0  0.97730  0.88220  0.45150  1.0000 -0.0605084424
C   C47       1.0  0.11780  0.56930  0.09510  1.0000 -0.0605084424
C   C48       1.0  0.47420  0.02270  0.90490  1.0000 -0.0605084424
C   C49       1.0  0.64310  0.67520  0.49830  1.0000 -0.4663888359
C   C50       1.0  0.17690  0.14480  0.50170  1.0000 -0.4663888359
C   C51       1.0  0.85520  0.35690  0.03210  1.0000 -0.4663888359
C   C52       1.0  0.32480  0.82310  0.96790  1.0000 -0.4663888359
C   C53       1.0  0.16720  0.31470  0.49390  1.0000 -0.0605084424
C   C54       1.0  0.82080  0.67330  0.50610  1.0000 -0.0605084424
C   C55       1.0  0.32670  0.83280  0.14750  1.0000 -0.0605084424
C   C56       1.0  0.68530  0.17920  0.85250  1.0000 -0.0605084424
C   C57       1.0  0.10730  0.25260  0.38390  1.0000 -0.4369670296
C   C58       1.0  0.86870  0.72340  0.61610  1.0000 -0.4369670296
C   C59       1.0  0.27660  0.89270  0.14530  1.0000 -0.4369670296
C   C60       1.0  0.74740  0.13130  0.85470  1.0000 -0.4369670296
C   C61       1.0  0.27470  0.40570  0.54640  1.0000 0.0841947912
C   C62       1.0  0.85930  0.72830  0.45360  1.0000 0.0841947912
C   C63       1.0  0.27170  0.72530  0.13100  1.0000 0.0841947912
C   C64       1.0  0.59430  0.14070  0.86900  1.0000 0.0841947912
C   C65       1.0  0.54950  0.62890  0.60440  1.0000 0.0683886986
C   C66       1.0  0.02450  0.94510  0.39560  1.0000 0.0683886986
C   C67       1.0  0.05490  0.45050  0.07940  1.0000 0.0683886986
C   C68       1.0  0.37110  0.97550  0.92060  1.0000 0.0683886986
C   C69       1.0  0.00270  0.18980  0.49450  1.0000 0.064880029
C   C70       1.0  0.69530  0.50820  0.50550  1.0000 0.064880029
C   C71       1.0  0.49180  0.99730  0.18710  1.0000 0.064880029
C   C72       1.0  0.81020  0.30470  0.81290  1.0000 0.064880029
C   C73       1.0  0.20350  0.35570  0.60120  1.0000 -0.4315000319
C   C74       1.0  0.75450  0.60230  0.39880  1.0000 -0.4315000319
C   C75       1.0  0.39770  0.79650  0.15220  1.0000 -0.4315000319
C   C76       1.0  0.64430  0.24550  0.84780  1.0000 -0.4315000319
C   C77       1.0  0.65450  0.77120  0.62370  1.0000 -0.1180124401
C   C78       1.0  0.14750  0.03080  0.37630  1.0000 -0.1180124401
C   C79       1.0  0.96920  0.34550  0.11670  1.0000 -0.1180124401
C   C80       1.0  0.22880  0.85250  0.88330  1.0000 -0.1180124401
C   C81       1.0  0.54140  0.57450  0.63850  1.0000 -0.1180124401
C   C82       1.0  0.93600  0.90290  0.36150  1.0000 -0.1180124401
C   C83       1.0  0.09710  0.45860  0.03310  1.0000 -0.1180124401
C   C84       1.0  0.42550  0.06400  0.96690  1.0000 -0.1180124401
C   C85       1.0  0.85120  0.02450  0.49370  1.0000 -0.1581681186
C   C86       1.0  0.53080  0.35750  0.50630  1.0000 -0.1581681186
C   C87       1.0  0.64250  0.14880  0.17330  1.0000 -0.1581681186
C   C88       1.0  0.97550  0.46920  0.82670  1.0000 -0.1581681186
C   C89       1.0  0.01330  0.25670  0.49800  1.0000 -0.1377750164
C   C90       1.0  0.75870  0.51530  0.50200  1.0000 -0.1377750164
C   C91       1.0  0.48470  0.98670  0.24340  1.0000 -0.1377750164
C   C92       1.0  0.74330  0.24130  0.75660  1.0000 -0.1377750164
C   C93       1.0  0.75930  0.86560  0.67890  1.0000 -0.2119664208
C   C94       1.0  0.18670  0.08040  0.32110  1.0000 -0.2119664208
C   C95       1.0  0.91960  0.24070  0.10630  1.0000 -0.2119664208
C   C96       1.0  0.13440  0.81330  0.89370  1.0000 -0.2119664208
C   C97       1.0  0.64290  0.66610  0.68900  1.0000 -0.1992004209
C   C98       1.0  0.97710  0.95390  0.31100  1.0000 -0.1992004209
C   C99       1.0  0.04610  0.35710  0.02320  1.0000 -0.1992004209
C   C100      1.0  0.33390  0.02290  0.97680  1.0000 -0.1992004209
C   C101      1.0  0.70310  0.91870  0.49380  1.0000 -0.2119664208
C   C102      1.0  0.42490  0.20930  0.50620  1.0000 -0.2119664208
C   C103      1.0  0.79070  0.29690  0.21560  1.0000 -0.2119664208
C   C104      1.0  0.08130  0.57510  0.78440  1.0000 -0.2119664208
C   C105      1.0  0.87020  0.16210  0.48630  1.0000 -0.1581681186
C   C106      1.0  0.67580  0.38390  0.51370  1.0000 -0.1581681186
C   C107      1.0  0.61610  0.12980  0.29190  1.0000 -0.1581681186
C   C108      1.0  0.83790  0.32420  0.70810  1.0000 -0.1581681186
C   C109      1.0  0.74810  0.80800  0.71070  1.0000 0.2073915086
C   C110      1.0  0.09730  0.03740  0.28930  1.0000 0.2073915086
C   C111      1.0  0.96260  0.25190  0.05990  1.0000 0.2073915086
C   C112      1.0  0.19200  0.90270  0.94010  1.0000 0.2073915086
C   C113      1.0  0.72530  0.00060  0.48990  1.0000 0.2073915086
C   C114      1.0  0.51070  0.23540  0.51010  1.0000 0.2073915086
C   C115      1.0  0.76460  0.27470  0.27530  1.0000 0.2073915086
C   C116      1.0  0.99940  0.48930  0.72470  1.0000 0.2073915086
C   C117      1.0  0.84900  0.85810  0.79950  1.0000 -0.1581681186
C   C118      1.0  0.05860  0.04950  0.20050  1.0000 -0.1581681186
C   C119      1.0  0.95050  0.15100  0.00910  1.0000 -0.1581681186
C   C120      1.0  0.14190  0.94140  0.99090  1.0000 -0.1581681186
C   C121      1.0  0.42720  0.73930  0.49450  1.0000 -0.1581681186
C   C122      1.0  0.24480  0.93270  0.50550  1.0000 -0.1581681186
C   C123      1.0  0.06730  0.57280  0.31210  1.0000 -0.1581681186
C   C124      1.0  0.26070  0.75520  0.68790  1.0000 -0.1581681186
C   C125      1.0  0.94810  0.96980  0.86070  1.0000 0.5991598374
C   C126      1.0  0.10910  0.08740  0.13930  1.0000 0.5991598374
C   C127      1.0  0.91260  0.05190  0.02170  1.0000 0.5991598374
C   C128      1.0  0.03020  0.89090  0.97830  1.0000 0.5991598374
C   C129      1.0  0.31610  0.69320  0.49930  1.0000 0.6125171489
C   C130      1.0  0.19390  0.81680  0.50070  1.0000 0.6125171489
C   C131      1.0  0.18320  0.68390  0.37710  1.0000 0.6125171489
C   C132      1.0  0.30680  0.80610  0.62290  1.0000 0.6125171489
O   O1        1.0  0.69110  0.73690  0.12820  1.0000 -0.5114031577
O   O2        1.0  0.60870  0.56290  0.87180  1.0000 -0.5114031577
O   O3        1.0  0.43710  0.30890  0.04580  1.0000 -0.5114031577
O   O4        1.0  0.26310  0.39130  0.95420  1.0000 -0.5114031577
O   O5        1.0  0.75530  0.75530  0.00000  1.0000 -0.8351711178
O   O6        1.0  0.24470  0.24470  0.00000  1.0000 -0.8345435405
O   O7        1.0  0.50550  0.59370  0.01060  1.0000 -0.5193775865
O   O8        1.0  0.58310  0.49490  0.98940  1.0000 -0.5193775865
O   O9        1.0  0.50510  0.49450  0.08820  1.0000 -0.5193775865
O   O10       1.0  0.40630  0.41690  0.91180  1.0000 -0.5193775865
O   O11       1.0  0.83890  0.97230  0.06180  1.0000 -0.4759162658
O   O12       1.0  0.91050  0.77710  0.93820  1.0000 -0.4759162658
O   O13       1.0  0.22290  0.16110  0.13340  1.0000 -0.4759162658
O   O14       1.0  0.02770  0.08950  0.86660  1.0000 -0.4759162658
O   O15       1.0  0.03800  0.05300  0.09920  1.0000 -0.5358442807
O   O16       1.0  0.95380  0.93880  0.90080  1.0000 -0.5358442807
O   O17       1.0  0.06120  0.96200  0.01500  1.0000 -0.5358442807
O   O18       1.0  0.94700  0.04620  0.98500  1.0000 -0.5358442807
O   O19       1.0  0.60680  0.65240  0.22940  1.0000 -0.1473130168
O   O20       1.0  0.42300  0.37740  0.77060  1.0000 -0.1473130168
O   O21       1.0  0.62260  0.39320  0.04560  1.0000 -0.1473130168
O   O22       1.0  0.34760  0.57700  0.95440  1.0000 -0.1473130168
O   O23       1.0  0.86330  0.91860  0.76330  1.0000 -0.1882303016
O   O24       1.0  0.15530  0.10000  0.23670  1.0000 -0.1882303016
O   O25       1.0  0.90000  0.13670  0.05530  1.0000 -0.1882303016
O   O26       1.0  0.08140  0.84470  0.94470  1.0000 -0.1882303016
O   O27       1.0  0.59780  0.92060  0.49840  1.0000 -0.1377750164
O   O28       1.0  0.42220  0.09940  0.50160  1.0000 -0.1377750164
O   O29       1.0  0.90060  0.40220  0.32280  1.0000 -0.1377750164
O   O30       1.0  0.07940  0.57780  0.67720  1.0000 -0.1377750164
O   O31       1.0  0.38440  0.80490  0.49130  1.0000 -0.5193775865
O   O32       1.0  0.31360  0.89310  0.50870  1.0000 -0.5193775865
O   O33       1.0  0.10690  0.61560  0.42050  1.0000 -0.5193775865
O   O34       1.0  0.19510  0.68640  0.57950  1.0000 -0.5114031577
O   O35       1.0  0.15560  0.52780  0.48940  1.0000 -0.5640365624
O   O36       1.0  0.03840  0.66620  0.51060  1.0000 -0.5640365624
O   O37       1.0  0.33380  0.84440  0.37220  1.0000 -0.5640365624
O   O38       1.0  0.47220  0.96160  0.62780  1.0000 -0.5640365624
