# DDEC6 charges by PACMAN v1.1 (https://github.com/mtap-research/PACMAN-charge/)
data_2014[Mn][nan]3[FSR]13
_chemical_formula_sum              "Mn8 H24 C72 O48"
_cell_length_a       12.3931
_cell_length_b       14.7079
_cell_length_c       16.6458
_cell_angle_alpha    90
_cell_angle_beta     90
_cell_angle_gamma    90

_symmetry_space_group_name_H-M    "P 1"
_symmetry_Int_Tables_number       1

loop_
  _symmetry_equiv_pos_as_xyz
  'x, y, z'

loop_
  _atom_site_type_symbol
  _atom_site_label
  _atom_site_symmetry_multiplicity
  _atom_site_fract_x
  _atom_site_fract_y
  _atom_site_fract_z
  _atom_site_occupancy
  _atom_site_charge
Mn  Mn1       1.0  0.51755  0.39503  0.57893  1.0000 1.0281424538
Mn  Mn2       1.0  0.48245  0.10497  0.07893  1.0000 1.0281424538
Mn  Mn3       1.0  0.98245  0.89503  0.42107  1.0000 1.0281424538
Mn  Mn4       1.0  0.01755  0.60497  0.92107  1.0000 1.0281424538
Mn  Mn5       1.0  0.48245  0.60497  0.42107  1.0000 1.0281424538
Mn  Mn6       1.0  0.51755  0.89503  0.92107  1.0000 1.0281424538
Mn  Mn7       1.0  0.01755  0.10497  0.57893  1.0000 1.0281424538
Mn  Mn8       1.0  0.98245  0.39503  0.07893  1.0000 1.0281424538
H   H1        1.0  0.76950  0.44240  0.78700  1.0000 0.1293931308
H   H2        1.0  0.23050  0.05760  0.28700  1.0000 0.1293931308
H   H3        1.0  0.73050  0.94240  0.21300  1.0000 0.1293931308
H   H4        1.0  0.26950  0.55760  0.71300  1.0000 0.1293931308
H   H5        1.0  0.23050  0.55760  0.21300  1.0000 0.1293931308
H   H6        1.0  0.76950  0.94240  0.71300  1.0000 0.1293931308
H   H7        1.0  0.26950  0.05760  0.78700  1.0000 0.1293931308
H   H8        1.0  0.73050  0.44240  0.28700  1.0000 0.1293931308
H   H9        1.0  0.74590  0.34280  0.01300  1.0000 0.1293931308
H   H10       1.0  0.25410  0.15720  0.51300  1.0000 0.1293931308
H   H11       1.0  0.75410  0.84280  0.98700  1.0000 0.1293931308
H   H12       1.0  0.24590  0.65720  0.48700  1.0000 0.1293931308
H   H13       1.0  0.25410  0.65720  0.98700  1.0000 0.1293931308
H   H14       1.0  0.74590  0.84280  0.48700  1.0000 0.1293931308
H   H15       1.0  0.24590  0.15720  0.01300  1.0000 0.1293931308
H   H16       1.0  0.75410  0.34280  0.51300  1.0000 0.1293931308
H   H17       1.0  0.52480  0.27290  0.84540  1.0000 0.1293931308
H   H18       1.0  0.47520  0.22710  0.34540  1.0000 0.1293931308
H   H19       1.0  0.97520  0.77290  0.15460  1.0000 0.1293931308
H   H20       1.0  0.02480  0.72710  0.65460  1.0000 0.1293931308
H   H21       1.0  0.47520  0.72710  0.15460  1.0000 0.1293931308
H   H22       1.0  0.52480  0.77290  0.65460  1.0000 0.1293931308
H   H23       1.0  0.02480  0.22710  0.84540  1.0000 0.1293931308
H   H24       1.0  0.97520  0.27290  0.34540  1.0000 0.1293931308
C   C1        1.0  0.86290  0.46240  0.92910  1.0000 0.5627270058
C   C2        1.0  0.13710  0.03760  0.42910  1.0000 0.5627270058
C   C3        1.0  0.63710  0.96240  0.07090  1.0000 0.5627270058
C   C4        1.0  0.36290  0.53760  0.57090  1.0000 0.5627270058
C   C5        1.0  0.13710  0.53760  0.07090  1.0000 0.5627270058
C   C6        1.0  0.86290  0.96240  0.57090  1.0000 0.5627270058
C   C7        1.0  0.36290  0.03760  0.92910  1.0000 0.5627270058
C   C8        1.0  0.63710  0.46240  0.42910  1.0000 0.5627270058
C   C9        1.0  0.73250  0.40680  0.82580  1.0000 -0.0925671164
C   C10       1.0  0.26750  0.09320  0.32580  1.0000 -0.0925671164
C   C11       1.0  0.76750  0.90680  0.17420  1.0000 -0.0925671164
C   C12       1.0  0.23250  0.59320  0.67420  1.0000 -0.0925671164
C   C13       1.0  0.26750  0.59320  0.17420  1.0000 -0.0925671164
C   C14       1.0  0.73250  0.90680  0.67420  1.0000 -0.0925671164
C   C15       1.0  0.23250  0.09320  0.82580  1.0000 -0.0925671164
C   C16       1.0  0.76750  0.40680  0.32580  1.0000 -0.0925671164
C   C17       1.0  0.57460  0.23130  0.99510  1.0000 0.5203267276
C   C18       1.0  0.42540  0.26870  0.49510  1.0000 0.5203267276
C   C19       1.0  0.92540  0.73130  0.00490  1.0000 0.5203267276
C   C20       1.0  0.07460  0.76870  0.50490  1.0000 0.5203267276
C   C21       1.0  0.42540  0.76870  0.00490  1.0000 0.5203267276
C   C22       1.0  0.57460  0.73130  0.50490  1.0000 0.5203267276
C   C23       1.0  0.07460  0.26870  0.99510  1.0000 0.5203267276
C   C24       1.0  0.92540  0.23130  0.49510  1.0000 0.5203267276
C   C25       1.0  0.71880  0.34720  0.95970  1.0000 -0.0979081354
C   C26       1.0  0.28120  0.15280  0.45970  1.0000 -0.0979081354
C   C27       1.0  0.78120  0.84720  0.04030  1.0000 -0.0979081354
C   C28       1.0  0.21880  0.65280  0.54030  1.0000 -0.0979081354
C   C29       1.0  0.28120  0.65280  0.04030  1.0000 -0.0979081354
C   C30       1.0  0.71880  0.84720  0.54030  1.0000 -0.0979081354
C   C31       1.0  0.21880  0.15280  0.95970  1.0000 -0.0979081354
C   C32       1.0  0.78120  0.34720  0.45970  1.0000 -0.0979081354
C   C33       1.0  0.62850  0.29700  0.93760  1.0000 0.0093688528
C   C34       1.0  0.37150  0.20300  0.43760  1.0000 0.0093688528
C   C35       1.0  0.87150  0.79700  0.06240  1.0000 0.0093688528
C   C36       1.0  0.12850  0.70300  0.56240  1.0000 0.0093688528
C   C37       1.0  0.37150  0.70300  0.06240  1.0000 0.0093688528
C   C38       1.0  0.62850  0.79700  0.56240  1.0000 0.0093688528
C   C39       1.0  0.12850  0.20300  0.93760  1.0000 0.0093688528
C   C40       1.0  0.87150  0.29700  0.43760  1.0000 0.0093688528
C   C41       1.0  0.58870  0.30460  0.85990  1.0000 -0.0979081354
C   C42       1.0  0.41130  0.19540  0.35990  1.0000 -0.0979081354
C   C43       1.0  0.91130  0.80460  0.14010  1.0000 -0.0979081354
C   C44       1.0  0.08870  0.69540  0.64010  1.0000 -0.0979081354
C   C45       1.0  0.41130  0.69540  0.14010  1.0000 -0.0979081354
C   C46       1.0  0.58870  0.80460  0.64010  1.0000 -0.0979081354
C   C47       1.0  0.08870  0.19540  0.85990  1.0000 -0.0979081354
C   C48       1.0  0.91130  0.30460  0.35990  1.0000 -0.0979081354
C   C49       1.0  0.76980  0.40360  0.90470  1.0000 -0.0112553715
C   C50       1.0  0.23020  0.09640  0.40470  1.0000 -0.0112553715
C   C51       1.0  0.73020  0.90360  0.09530  1.0000 -0.0112553715
C   C52       1.0  0.26980  0.59640  0.59530  1.0000 -0.0112553715
C   C53       1.0  0.23020  0.59640  0.09530  1.0000 -0.0112553715
C   C54       1.0  0.76980  0.90360  0.59530  1.0000 -0.0112553715
C   C55       1.0  0.26980  0.09640  0.90470  1.0000 -0.0112553715
C   C56       1.0  0.73020  0.40360  0.40470  1.0000 -0.0112553715
C   C57       1.0  0.64080  0.35760  0.80340  1.0000 -0.0112553715
C   C58       1.0  0.35920  0.14240  0.30340  1.0000 -0.0112553715
C   C59       1.0  0.85920  0.85760  0.19660  1.0000 -0.0112553715
C   C60       1.0  0.14080  0.64240  0.69660  1.0000 -0.0112553715
C   C61       1.0  0.35920  0.64240  0.19660  1.0000 -0.0112553715
C   C62       1.0  0.64080  0.85760  0.69660  1.0000 -0.0112553715
C   C63       1.0  0.14080  0.14240  0.80340  1.0000 -0.0112553715
C   C64       1.0  0.85920  0.35760  0.30340  1.0000 -0.0112553715
C   C65       1.0  0.60160  0.36230  0.71750  1.0000 0.5203267276
C   C66       1.0  0.39840  0.13770  0.21750  1.0000 0.5203267276
C   C67       1.0  0.89840  0.86230  0.28250  1.0000 0.5203267276
C   C68       1.0  0.10160  0.63770  0.78250  1.0000 0.5203267276
C   C69       1.0  0.39840  0.63770  0.28250  1.0000 0.5203267276
C   C70       1.0  0.60160  0.86230  0.78250  1.0000 0.5203267276
C   C71       1.0  0.10160  0.13770  0.71750  1.0000 0.5203267276
C   C72       1.0  0.89840  0.36230  0.21750  1.0000 0.5203267276
O   O1        1.0  0.91940  0.49859  0.87398  1.0000 -0.4569207787
O   O2        1.0  0.08060  0.00141  0.37398  1.0000 -0.4569207787
O   O3        1.0  0.58060  0.99859  0.12602  1.0000 -0.4569207787
O   O4        1.0  0.41940  0.50141  0.62602  1.0000 -0.4569207787
O   O5        1.0  0.08060  0.50141  0.12602  1.0000 -0.4569207787
O   O6        1.0  0.91940  0.99859  0.62602  1.0000 -0.4569207787
O   O7        1.0  0.41940  0.00141  0.87398  1.0000 -0.4569207787
O   O8        1.0  0.58060  0.49859  0.37398  1.0000 -0.4569207787
O   O9        1.0  0.65320  0.40480  0.66667  1.0000 -0.4316713907
O   O10       1.0  0.34680  0.09520  0.16667  1.0000 -0.4316713907
O   O11       1.0  0.84680  0.90480  0.33333  1.0000 -0.4316713907
O   O12       1.0  0.15320  0.59520  0.83333  1.0000 -0.4316713907
O   O13       1.0  0.34680  0.59520  0.33333  1.0000 -0.4316713907
O   O14       1.0  0.65320  0.90480  0.83333  1.0000 -0.4316713907
O   O15       1.0  0.15320  0.09520  0.66667  1.0000 -0.4316713907
O   O16       1.0  0.84680  0.40480  0.16667  1.0000 -0.4316713907
O   O17       1.0  0.87990  0.47578  0.00315  1.0000 -0.5160981923
O   O18       1.0  0.12010  0.02422  0.50315  1.0000 -0.5160981923
O   O19       1.0  0.62010  0.97578  0.99685  1.0000 -0.5160981923
O   O20       1.0  0.37990  0.52422  0.49685  1.0000 -0.5160981923
O   O21       1.0  0.12010  0.52422  0.99685  1.0000 -0.5160981923
O   O22       1.0  0.87990  0.97578  0.49685  1.0000 -0.5160981923
O   O23       1.0  0.37990  0.02422  0.00315  1.0000 -0.5160981923
O   O24       1.0  0.62010  0.47578  0.50315  1.0000 -0.5160981923
O   O25       1.0  0.51130  0.32590  0.70191  1.0000 -0.4386002108
O   O26       1.0  0.48870  0.17410  0.20191  1.0000 -0.4386002108
O   O27       1.0  0.98870  0.82590  0.29809  1.0000 -0.4386002108
O   O28       1.0  0.01130  0.67410  0.79809  1.0000 -0.4386002108
O   O29       1.0  0.48870  0.67410  0.29809  1.0000 -0.4386002108
O   O30       1.0  0.51130  0.82590  0.79809  1.0000 -0.4386002108
O   O31       1.0  0.01130  0.17410  0.70191  1.0000 -0.4386002108
O   O32       1.0  0.98870  0.32590  0.20191  1.0000 -0.4386002108
O   O33       1.0  0.48090  0.20930  0.98469  1.0000 -0.451865001
O   O34       1.0  0.51910  0.29070  0.48469  1.0000 -0.451865001
O   O35       1.0  0.01910  0.70930  0.01531  1.0000 -0.451865001
O   O36       1.0  0.98090  0.79070  0.51531  1.0000 -0.451865001
O   O37       1.0  0.51910  0.79070  0.01531  1.0000 -0.451865001
O   O38       1.0  0.48090  0.70930  0.51531  1.0000 -0.451865001
O   O39       1.0  0.98090  0.29070  0.98469  1.0000 -0.451865001
O   O40       1.0  0.01910  0.20930  0.48469  1.0000 -0.451865001
O   O41       1.0  0.63130  0.19830  0.05136  1.0000 -0.4230214566
O   O42       1.0  0.36870  0.30170  0.55136  1.0000 -0.4230214566
O   O43       1.0  0.86870  0.69830  0.94864  1.0000 -0.4230214566
O   O44       1.0  0.13130  0.80170  0.44864  1.0000 -0.4230214566
O   O45       1.0  0.36870  0.80170  0.94864  1.0000 -0.4230214566
O   O46       1.0  0.63130  0.69830  0.44864  1.0000 -0.4230214566
O   O47       1.0  0.13130  0.30170  0.05136  1.0000 -0.4230214566
O   O48       1.0  0.86870  0.19830  0.55136  1.0000 -0.4230214566
