# DDEC6 charges by PACMAN v1.1 (https://github.com/mtap-research/PACMAN-charge/)
data_2014[Co][nan]3[FSR]3
_chemical_formula_sum              "Co6 H6 C30 O30"
_cell_length_a       15.1115
_cell_length_b       15.1115
_cell_length_c       15.1115
_cell_angle_alpha    117.76
_cell_angle_beta     117.76
_cell_angle_gamma    117.76

_symmetry_space_group_name_H-M    "P 1"
_symmetry_Int_Tables_number       1

loop_
  _symmetry_equiv_pos_as_xyz
  'x, y, z'

loop_
  _atom_site_type_symbol
  _atom_site_label
  _atom_site_symmetry_multiplicity
  _atom_site_fract_x
  _atom_site_fract_y
  _atom_site_fract_z
  _atom_site_occupancy
  _atom_site_charge
Co  Co1       1.0  0.12140  0.52960  0.80200  1.0000 0.9552017256
Co  Co2       1.0  0.52960  0.80200  0.12140  1.0000 0.9552017256
Co  Co3       1.0  0.80200  0.12140  0.52960  1.0000 0.9552017256
Co  Co4       1.0  0.87860  0.47040  0.19800  1.0000 0.9552017256
Co  Co5       1.0  0.47040  0.19800  0.87860  1.0000 0.9552017256
Co  Co6       1.0  0.19800  0.87860  0.47040  1.0000 0.9552017256
H   H1        1.0  0.66560  0.18970  0.64070  1.0000 0.141955694
H   H2        1.0  0.18970  0.64070  0.66560  1.0000 0.141955694
H   H3        1.0  0.64070  0.66560  0.18970  1.0000 0.141955694
H   H4        1.0  0.33440  0.81030  0.35930  1.0000 0.141955694
H   H5        1.0  0.81030  0.35930  0.33440  1.0000 0.141955694
H   H6        1.0  0.35930  0.33440  0.81030  1.0000 0.141955694
C   C1        1.0  0.35710  0.74770  0.18100  1.0000 0.6144194607
C   C2        1.0  0.74770  0.18100  0.35710  1.0000 0.6144194607
C   C3        1.0  0.18100  0.35710  0.74770  1.0000 0.6144194607
C   C4        1.0  0.64290  0.25230  0.81900  1.0000 0.6144194607
C   C5        1.0  0.25230  0.81900  0.64290  1.0000 0.6144194607
C   C6        1.0  0.81900  0.64290  0.25230  1.0000 0.6144194607
C   C7        1.0  0.16850  0.61800  0.08290  1.0000 -0.114454428
C   C8        1.0  0.61800  0.08290  0.16850  1.0000 -0.114454428
C   C9        1.0  0.08290  0.16850  0.61800  1.0000 -0.114454428
C   C10       1.0  0.83150  0.38200  0.91710  1.0000 -0.114454428
C   C11       1.0  0.38200  0.91710  0.83150  1.0000 -0.114454428
C   C12       1.0  0.91710  0.83150  0.38200  1.0000 -0.114454428
C   C13       1.0  0.96820  0.43730  0.86690  1.0000 0.2845248633
C   C14       1.0  0.43730  0.86690  0.96820  1.0000 0.2845248633
C   C15       1.0  0.86690  0.96820  0.43730  1.0000 0.2845248633
C   C16       1.0  0.03180  0.56270  0.13310  1.0000 0.2845248633
C   C17       1.0  0.56270  0.13310  0.03180  1.0000 0.2845248633
C   C18       1.0  0.13310  0.03180  0.56270  1.0000 0.2845248633
C   C19       1.0  0.80660  0.32620  0.79400  1.0000 -0.2207979754
C   C20       1.0  0.32620  0.79400  0.80660  1.0000 -0.2207979754
C   C21       1.0  0.79400  0.80660  0.32620  1.0000 -0.2207979754
C   C22       1.0  0.19340  0.67380  0.20600  1.0000 -0.2207979754
C   C23       1.0  0.67380  0.20600  0.19340  1.0000 -0.2207979754
C   C24       1.0  0.20600  0.19340  0.67380  1.0000 -0.2207979754
C   C25       1.0  0.16140  0.80420  0.91070  1.0000 0.7304779494
C   C26       1.0  0.80420  0.91070  0.16140  1.0000 0.7304779494
C   C27       1.0  0.91070  0.16140  0.80420  1.0000 0.7304779494
C   C28       1.0  0.83860  0.19580  0.08930  1.0000 0.7304779494
C   C29       1.0  0.19580  0.08930  0.83860  1.0000 0.7304779494
C   C30       1.0  0.08930  0.83860  0.19580  1.0000 0.7304779494
O   O1        1.0  0.33090  0.69240  0.06780  1.0000 -0.5431906676
O   O2        1.0  0.69240  0.06780  0.33090  1.0000 -0.5431906676
O   O3        1.0  0.06780  0.33090  0.69240  1.0000 -0.5431906676
O   O4        1.0  0.66910  0.30760  0.93220  1.0000 -0.5431906676
O   O5        1.0  0.30760  0.93220  0.66910  1.0000 -0.5431906676
O   O6        1.0  0.93220  0.66910  0.30760  1.0000 -0.5431906676
O   O7        1.0  0.52520  0.90130  0.36960  1.0000 -0.5262054598
O   O8        1.0  0.90130  0.36960  0.52520  1.0000 -0.5262054598
O   O9        1.0  0.36960  0.52520  0.90130  1.0000 -0.5262054598
O   O10       1.0  0.47480  0.09870  0.63040  1.0000 -0.5262054598
O   O11       1.0  0.09870  0.63040  0.47480  1.0000 -0.5262054598
O   O12       1.0  0.63040  0.47480  0.09870  1.0000 -0.5262054598
O   O13       1.0  0.92030  0.35990  0.72640  1.0000 -0.6142913695
O   O14       1.0  0.35990  0.72640  0.92030  1.0000 -0.6142913695
O   O15       1.0  0.72640  0.92030  0.35990  1.0000 -0.6142913695
O   O16       1.0  0.07970  0.64010  0.27360  1.0000 -0.6142913695
O   O17       1.0  0.64010  0.27360  0.07970  1.0000 -0.6142913695
O   O18       1.0  0.27360  0.07970  0.64010  1.0000 -0.6142913695
O   O19       1.0  0.16700  0.88280  0.90420  1.0000 -0.364236414
O   O20       1.0  0.88280  0.90420  0.16700  1.0000 -0.364236414
O   O21       1.0  0.90420  0.16700  0.88280  1.0000 -0.364236414
O   O22       1.0  0.83300  0.11720  0.09580  1.0000 -0.364236414
O   O23       1.0  0.11720  0.09580  0.83300  1.0000 -0.364236414
O   O24       1.0  0.09580  0.83300  0.11720  1.0000 -0.364236414
O   O25       1.0  0.15940  0.73440  0.92100  1.0000 -0.3434033787
O   O26       1.0  0.73440  0.92100  0.15940  1.0000 -0.3434033787
O   O27       1.0  0.92100  0.15940  0.73440  1.0000 -0.3434033787
O   O28       1.0  0.84060  0.26560  0.07900  1.0000 -0.3434033787
O   O29       1.0  0.26560  0.07900  0.84060  1.0000 -0.3434033787
O   O30       1.0  0.07900  0.84060  0.26560  1.0000 -0.3434033787
