# DDEC6 charges by PACMAN v1.1 (https://github.com/mtap-research/PACMAN-charge/)
data_2014[Sc][nan]3[FSR]5
_chemical_formula_sum              "Sc4 H24 C48 O24"
_cell_length_a       20.0674
_cell_length_b       17.7367
_cell_length_c       11.2609
_cell_angle_alpha    84.4405
_cell_angle_beta     61.6065
_cell_angle_gamma    33.9531

_symmetry_space_group_name_H-M    "P 1"
_symmetry_Int_Tables_number       1

loop_
  _symmetry_equiv_pos_as_xyz
  'x, y, z'

loop_
  _atom_site_type_symbol
  _atom_site_label
  _atom_site_symmetry_multiplicity
  _atom_site_fract_x
  _atom_site_fract_y
  _atom_site_fract_z
  _atom_site_occupancy
  _atom_site_charge
Sc  Sc1       1.0  0.26047  0.26047  0.73953  1.0000 1.8237033626
Sc  Sc2       1.0  0.73953  0.73953  0.26047  1.0000 1.8237033626
Sc  Sc3       1.0  0.98953  0.98953  0.51047  1.0000 1.8237033626
Sc  Sc4       1.0  0.51047  0.51047  0.98953  1.0000 1.8237033626
H   H1        1.0  0.38000  0.35320  0.41220  1.0000 0.1288795909
H   H2        1.0  0.85460  0.41220  0.35320  1.0000 0.1288795909
H   H3        1.0  0.41220  0.85460  0.38000  1.0000 0.1288795909
H   H4        1.0  0.35320  0.38000  0.85460  1.0000 0.1288795909
H   H5        1.0  0.87000  0.89680  0.83780  1.0000 0.1288795909
H   H6        1.0  0.39540  0.83780  0.89680  1.0000 0.1288795909
H   H7        1.0  0.83780  0.39540  0.87000  1.0000 0.1288795909
H   H8        1.0  0.89680  0.87000  0.39540  1.0000 0.1288795909
H   H9        1.0  0.46020  0.38180  0.21780  1.0000 0.1236434272
H   H10       1.0  0.94020  0.21780  0.38180  1.0000 0.1236434272
H   H11       1.0  0.21780  0.94020  0.46020  1.0000 0.1236434272
H   H12       1.0  0.38180  0.46020  0.94020  1.0000 0.1236434272
H   H13       1.0  0.78980  0.86820  0.03220  1.0000 0.1236434272
H   H14       1.0  0.30980  0.03220  0.86820  1.0000 0.1236434272
H   H15       1.0  0.03220  0.30980  0.78980  1.0000 0.1236434272
H   H16       1.0  0.86820  0.78980  0.30980  1.0000 0.1236434272
H   H17       1.0  0.46750  0.03530  0.92070  1.0000 0.1288795909
H   H18       1.0  0.57650  0.92070  0.03530  1.0000 0.1288795909
H   H19       1.0  0.92070  0.57650  0.46750  1.0000 0.1288795909
H   H20       1.0  0.03530  0.46750  0.57650  1.0000 0.1288795909
H   H21       1.0  0.78250  0.21470  0.32930  1.0000 0.1288795909
H   H22       1.0  0.67350  0.32930  0.21470  1.0000 0.1288795909
H   H23       1.0  0.32930  0.67350  0.78250  1.0000 0.1288795909
H   H24       1.0  0.21470  0.78250  0.67350  1.0000 0.1288795909
C   C1        1.0  0.52505  0.08985  0.36455  1.0000 0.6504978628
C   C2        1.0  0.02055  0.36455  0.08985  1.0000 0.6504978628
C   C3        1.0  0.36455  0.02055  0.52505  1.0000 0.6504978628
C   C4        1.0  0.08985  0.52505  0.02055  1.0000 0.6504978628
C   C5        1.0  0.72495  0.16015  0.88545  1.0000 0.6504978628
C   C6        1.0  0.22945  0.88545  0.16015  1.0000 0.6504978628
C   C7        1.0  0.88545  0.22945  0.72495  1.0000 0.6504978628
C   C8        1.0  0.16015  0.72495  0.22945  1.0000 0.6504978628
C   C9        1.0  0.57640  0.10840  0.24220  1.0000 -0.0395923052
C   C10       1.0  0.07300  0.24220  0.10840  1.0000 -0.0395923052
C   C11       1.0  0.24220  0.07300  0.57640  1.0000 -0.0395923052
C   C12       1.0  0.10840  0.57640  0.07300  1.0000 -0.0395923052
C   C13       1.0  0.67360  0.14160  0.00780  1.0000 -0.0395923052
C   C14       1.0  0.17700  0.00780  0.14160  1.0000 -0.0395923052
C   C15       1.0  0.00780  0.17700  0.67360  1.0000 -0.0395923052
C   C16       1.0  0.14160  0.67360  0.17700  1.0000 -0.0395923052
C   C17       1.0  0.48015  0.25975  0.29505  1.0000 -0.0994626014
C   C18       1.0  0.96505  0.29505  0.25975  1.0000 -0.0994626014
C   C19       1.0  0.29505  0.96505  0.48015  1.0000 -0.0994626014
C   C20       1.0  0.25975  0.48015  0.96505  1.0000 -0.0994626014
C   C21       1.0  0.76985  0.99025  0.95495  1.0000 -0.0994626014
C   C22       1.0  0.28495  0.95495  0.99025  1.0000 -0.0994626014
C   C23       1.0  0.95495  0.28495  0.76985  1.0000 -0.0994626014
C   C24       1.0  0.99025  0.76985  0.28495  1.0000 -0.0994626014
C   C25       1.0  0.52775  0.27695  0.17965  1.0000 -0.0994626014
C   C26       1.0  0.01565  0.17965  0.27695  1.0000 -0.0994626014
C   C27       1.0  0.17965  0.01565  0.52775  1.0000 -0.0994626014
C   C28       1.0  0.27695  0.52775  0.01565  1.0000 -0.0994626014
C   C29       1.0  0.72225  0.97305  0.07035  1.0000 -0.0994626014
C   C30       1.0  0.23435  0.07035  0.97305  1.0000 -0.0994626014
C   C31       1.0  0.07035  0.23435  0.72225  1.0000 -0.0994626014
C   C32       1.0  0.97305  0.72225  0.23435  1.0000 -0.0994626014
C   C33       1.0  0.61150  0.88850  0.61150  1.0000 0.6504978628
C   C34       1.0  0.88850  0.61150  0.88850  1.0000 0.6504978628
C   C35       1.0  0.63850  0.36150  0.63850  1.0000 0.6504978628
C   C36       1.0  0.36150  0.63850  0.36150  1.0000 0.6504978628
C   C37       1.0  0.68320  0.81680  0.68320  1.0000 -0.034282783
C   C38       1.0  0.81680  0.68320  0.81680  1.0000 -0.034282783
C   C39       1.0  0.56680  0.43320  0.56680  1.0000 -0.034282783
C   C40       1.0  0.43320  0.56680  0.43320  1.0000 -0.034282783
C   C41       1.0  0.58340  0.91740  0.85100  1.0000 -0.0994626014
C   C42       1.0  0.64820  0.85100  0.91740  1.0000 -0.0994626014
C   C43       1.0  0.85100  0.64820  0.58340  1.0000 -0.0994626014
C   C44       1.0  0.91740  0.58340  0.64820  1.0000 -0.0994626014
C   C45       1.0  0.66667  0.33260  0.39900  1.0000 -0.0994626014
C   C46       1.0  0.60180  0.39900  0.33260  1.0000 -0.0994626014
C   C47       1.0  0.39900  0.60180  0.66667  1.0000 -0.0994626014
C   C48       1.0  0.33260  0.66667  0.60180  1.0000 -0.0994626014
O   O1        1.0  0.39543  0.21339  0.52001  1.0000 -0.6193834925
O   O2        1.0  0.87117  0.52001  0.21339  1.0000 -0.6193834925
O   O3        1.0  0.52001  0.87117  0.39543  1.0000 -0.6193834925
O   O4        1.0  0.21339  0.39543  0.87117  1.0000 -0.6193834925
O   O5        1.0  0.85457  0.03661  0.72999  1.0000 -0.6193834925
O   O6        1.0  0.37883  0.72999  0.03661  1.0000 -0.6193834925
O   O7        1.0  0.72999  0.37883  0.85457  1.0000 -0.6193834925
O   O8        1.0  0.03661  0.85457  0.37883  1.0000 -0.6193834925
O   O9        1.0  0.61097  0.95401  0.30839  1.0000 -0.6513035158
O   O10       1.0  0.12663  0.30839  0.95401  1.0000 -0.6513035158
O   O11       1.0  0.30839  0.12663  0.61097  1.0000 -0.6513035158
O   O12       1.0  0.95401  0.61097  0.12663  1.0000 -0.6513035158
O   O13       1.0  0.63903  0.29599  0.94161  1.0000 -0.6513035158
O   O14       1.0  0.12337  0.94161  0.29599  1.0000 -0.6513035158
O   O15       1.0  0.94161  0.12337  0.63903  1.0000 -0.6513035158
O   O16       1.0  0.29599  0.63903  0.12337  1.0000 -0.6513035158
O   O17       1.0  0.47367  0.04687  0.69253  1.0000 -0.6431925753
O   O18       1.0  0.78693  0.69253  0.04687  1.0000 -0.6431925753
O   O19       1.0  0.69253  0.78693  0.47367  1.0000 -0.6431925753
O   O20       1.0  0.04687  0.47367  0.78693  1.0000 -0.6431925753
O   O21       1.0  0.77633  0.20313  0.55747  1.0000 -0.6431925753
O   O22       1.0  0.46307  0.55747  0.20313  1.0000 -0.6431925753
O   O23       1.0  0.55747  0.46307  0.77633  1.0000 -0.6431925753
O   O24       1.0  0.20313  0.77633  0.46307  1.0000 -0.6431925753
