# DDEC6 charges by PACMAN v1.1 (https://github.com/mtap-research/PACMAN-charge/)
data_2014[Fe][dia]3[FSR]1
_chemical_formula_sum              "Fe4 H32 C48 N8 O18"
_cell_length_a       10.4839
_cell_length_b       11.84
_cell_length_c       14.034
_cell_angle_alpha    105.645
_cell_angle_beta     101.222
_cell_angle_gamma    112.358

_symmetry_space_group_name_H-M    "P 1"
_symmetry_Int_Tables_number       1

loop_
  _symmetry_equiv_pos_as_xyz
  'x, y, z'

loop_
  _atom_site_type_symbol
  _atom_site_label
  _atom_site_symmetry_multiplicity
  _atom_site_fract_x
  _atom_site_fract_y
  _atom_site_fract_z
  _atom_site_occupancy
  _atom_site_charge
Fe  Fe1       1.0  0.81388  0.00651  0.78586  1.0000 0.8537853769
Fe  Fe2       1.0  0.18612  0.99349  0.21414  1.0000 0.8537853769
Fe  Fe3       1.0  0.44780  0.72517  0.69139  1.0000 0.8647529893
Fe  Fe4       1.0  0.55220  0.27483  0.30861  1.0000 0.8647529893
H   H1        1.0  0.05130  0.10430  0.98620  1.0000 0.1104827533
H   H2        1.0  0.94870  0.89570  0.01380  1.0000 0.1104827533
H   H3        1.0  0.44980  0.19230  0.96330  1.0000 0.1370407752
H   H4        1.0  0.55020  0.80770  0.03670  1.0000 0.1370407752
H   H5        1.0  0.09390  0.03960  0.70970  1.0000 0.1015075352
H   H6        1.0  0.90610  0.96040  0.29030  1.0000 0.1015075352
H   H7        1.0  0.34030  0.10930  0.78030  1.0000 0.1492763571
H   H8        1.0  0.65970  0.89070  0.21970  1.0000 0.1492763571
H   H9        1.0  0.40040  0.82920  0.89910  1.0000 0.1104827533
H   H10       1.0  0.59960  0.17080  0.10090  1.0000 0.1104827533
H   H11       1.0  0.99370  0.78020  0.87010  1.0000 0.1323076747
H   H12       1.0  0.00630  0.21980  0.12990  1.0000 0.1323076747
H   H13       1.0  0.70470  0.04910  0.58560  1.0000 0.1195752757
H   H14       1.0  0.29530  0.95090  0.41440  1.0000 0.1195752757
H   H15       1.0  0.98140  0.48220  0.80570  1.0000 0.1323076747
H   H16       1.0  0.01860  0.51780  0.19430  1.0000 0.1323076747
H   H17       1.0  0.97090  0.31480  0.86190  1.0000 0.1104827533
H   H18       1.0  0.02910  0.68520  0.13810  1.0000 0.1104827533
H   H19       1.0  0.84560  0.43170  0.63470  1.0000 0.1195752757
H   H20       1.0  0.15440  0.56830  0.36530  1.0000 0.1195752757
H   H21       1.0  0.38580  0.48530  0.50910  1.0000 0.1195752757
H   H22       1.0  0.61420  0.51470  0.49090  1.0000 0.1195752757
H   H23       1.0  0.11320  0.67480  0.61900  1.0000 0.1015075352
H   H24       1.0  0.88680  0.32520  0.38100  1.0000 0.1015075352
H   H25       1.0  0.93810  0.69750  0.68780  1.0000 0.1323076747
H   H26       1.0  0.06190  0.30250  0.31220  1.0000 0.1323076747
H   H27       1.0  0.24540  0.49110  0.74690  1.0000 0.1104827533
H   H28       1.0  0.75460  0.50890  0.25310  1.0000 0.1104827533
H   H29       1.0  0.14330  0.14370  0.52910  1.0000 0.1370407752
H   H30       1.0  0.85670  0.85630  0.47090  1.0000 0.1370407752
H   H31       1.0  0.12980  0.26400  0.68450  1.0000 0.1323076747
H   H32       1.0  0.87020  0.73600  0.31550  1.0000 0.1323076747
C   C1        1.0  0.11110  0.10811  0.94487  1.0000 0.0632275157
C   C2        1.0  0.88890  0.89189  0.05513  1.0000 0.0632275157
C   C3        1.0  0.25960  0.15451  0.99427  1.0000 -0.0716006657
C   C4        1.0  0.74040  0.84549  0.00573  1.0000 -0.0716006657
C   C5        1.0  0.34930  0.15900  0.93286  1.0000 -0.03957716
C   C6        1.0  0.65070  0.84100  0.06714  1.0000 -0.03957716
C   C7        1.0  0.13570  0.06920  0.78213  1.0000 0.0632275157
C   C8        1.0  0.86430  0.93080  0.21787  1.0000 0.0632275157
C   C9        1.0  0.28430  0.11190  0.82397  1.0000 -0.1320277937
C   C10       1.0  0.71570  0.88810  0.17603  1.0000 -0.1320277937
C   C11       1.0  0.31200  0.18928  0.11118  1.0000 0.5775801949
C   C12       1.0  0.68800  0.81072  0.88882  1.0000 0.5775801949
C   C13       1.0  0.30550  0.79991  0.85627  1.0000 0.0706337895
C   C14       1.0  0.69450  0.20009  0.14373  1.0000 0.0706337895
C   C15       1.0  0.20440  0.81208  0.90405  1.0000 -0.0716006657
C   C16       1.0  0.79560  0.18792  0.09595  1.0000 -0.0716006657
C   C17       1.0  0.06390  0.77301  0.84083  1.0000 -0.0596315376
C   C18       1.0  0.93610  0.22699  0.15917  1.0000 -0.0596315376
C   C19       1.0  0.76000  0.13734  0.63036  1.0000 0.0706337895
C   C20       1.0  0.24000  0.86266  0.36964  1.0000 0.0706337895
C   C21       1.0  0.92360  0.39480  0.75988  1.0000 -0.1558555775
C   C22       1.0  0.07640  0.60520  0.24012  1.0000 -0.1558555775
C   C23       1.0  0.91730  0.29360  0.79299  1.0000 0.0706337895
C   C24       1.0  0.08270  0.70640  0.20701  1.0000 0.0706337895
C   C25       1.0  0.75950  0.23289  0.59158  1.0000 -0.0596315376
C   C26       1.0  0.24050  0.76711  0.40842  1.0000 -0.0596315376
C   C27       1.0  0.84350  0.36490  0.65822  1.0000 -0.0596315376
C   C28       1.0  0.15650  0.63510  0.34178  1.0000 -0.0596315376
C   C29       1.0  0.33470  0.43986  0.54515  1.0000 0.0706337895
C   C30       1.0  0.66530  0.56014  0.45485  1.0000 0.0706337895
C   C31       1.0  0.25490  0.87117  0.02246  1.0000 0.5517047606
C   C32       1.0  0.74510  0.12883  0.97754  1.0000 0.5517047606
C   C33       1.0  0.29500  0.23382  0.40689  1.0000 0.5775801949
C   C34       1.0  0.70500  0.76618  0.59311  1.0000 0.5775801949
C   C35       1.0  0.13730  0.71060  0.69151  1.0000 0.0632275157
C   C36       1.0  0.86270  0.28940  0.30849  1.0000 0.0632275157
C   C37       1.0  0.03070  0.72270  0.73231  1.0000 -0.1558555775
C   C38       1.0  0.96930  0.27730  0.26769  1.0000 -0.1558555775
C   C39       1.0  0.66740  0.19203  0.47942  1.0000 0.5517047606
C   C40       1.0  0.33260  0.80797  0.52058  1.0000 0.5517047606
C   C41       1.0  0.27080  0.30341  0.50364  1.0000 -0.0716006657
C   C42       1.0  0.72920  0.69659  0.49636  1.0000 -0.0716006657
C   C43       1.0  0.25150  0.44380  0.68472  1.0000 0.0917429291
C   C44       1.0  0.74850  0.55620  0.31528  1.0000 0.0917429291
C   C45       1.0  0.19040  0.23550  0.55567  1.0000 -0.0474494435
C   C46       1.0  0.80960  0.76450  0.44433  1.0000 -0.0474494435
C   C47       1.0  0.18190  0.30710  0.64770  1.0000 -0.1399201043
C   C48       1.0  0.81810  0.69290  0.35230  1.0000 -0.1399201043
N   N1        1.0  0.04902  0.06856  0.84100  1.0000 -0.2501595703
N   N2        1.0  0.95098  0.93144  0.15900  1.0000 -0.2501595703
N   N3        1.0  0.27412  0.74846  0.75216  1.0000 -0.2501595703
N   N4        1.0  0.72588  0.25154  0.24784  1.0000 -0.2501595703
N   N5        1.0  0.83664  0.16589  0.72951  1.0000 -0.2501595703
N   N6        1.0  0.16336  0.83411  0.27049  1.0000 -0.2501595703
N   N7        1.0  0.32698  0.51021  0.63441  1.0000 -0.2314439528
N   N8        1.0  0.67302  0.48979  0.36559  1.0000 -0.2314439528
O   O1        1.0  0.44759  0.25845  0.16001  1.0000 -0.531591434
O   O2        1.0  0.55241  0.74155  0.83999  1.0000 -0.531591434
O   O3        1.0  0.21583  0.14511  0.15080  1.0000 -0.5375614203
O   O4        1.0  0.78417  0.85489  0.84920  1.0000 -0.5375614203
O   O5        1.0  0.57459  0.94110  0.74247  1.0000 -0.2314439528
O   O6        1.0  0.42541  0.05890  0.25753  1.0000 -0.2314439528
O   O7        1.0  0.39677  0.30250  0.38165  1.0000 -0.5248099752
O   O8        1.0  0.60323  0.69750  0.61835  1.0000 -0.5248099752
O   O9        1.0  0.15885  0.87205  0.06435  1.0000 -0.5626187809
O   O10       1.0  0.84115  0.12795  0.93565  1.0000 -0.5626187809
O   O11       1.0  0.21066  0.11131  0.36027  1.0000 -0.5375614203
O   O12       1.0  0.78934  0.88869  0.63973  1.0000 -0.5375614203
O   O13       1.0  0.66502  0.28485  0.45179  1.0000 -0.5626187809
O   O14       1.0  0.33498  0.71515  0.54821  1.0000 -0.5626187809
O   O15       1.0  0.60069  0.07212  0.42347  1.0000 -0.4814093672
O   O16       1.0  0.39931  0.92788  0.57653  1.0000 -0.4814093672
O   O17       1.0  0.38789  0.91699  0.07018  1.0000 -0.4814093672
O   O18       1.0  0.61211  0.08301  0.92982  1.0000 -0.4814093672
