# DDEC6 charges by PACMAN v1.1 (https://github.com/mtap-research/PACMAN-charge/)
data_2014[Zn][sxb]3[FSR]1
_chemical_formula_sum              "Zn8 H46 C56 N2 O30"
_cell_length_a       11.4723
_cell_length_b       11.4723
_cell_length_c       19.5354
_cell_angle_alpha    74.0257
_cell_angle_beta     105.974
_cell_angle_gamma    121.872

_symmetry_space_group_name_H-M    "P 1"
_symmetry_Int_Tables_number       1

loop_
  _symmetry_equiv_pos_as_xyz
  'x, y, z'

loop_
  _atom_site_type_symbol
  _atom_site_label
  _atom_site_symmetry_multiplicity
  _atom_site_fract_x
  _atom_site_fract_y
  _atom_site_fract_z
  _atom_site_occupancy
  _atom_site_charge
Zn  Zn1       1.0  0.87992  0.70316  0.76772  1.0000 0.9332850903
Zn  Zn2       1.0  0.29684  0.12008  0.26772  1.0000 0.9332850903
Zn  Zn3       1.0  0.01174  0.56308  0.90195  1.0000 0.9672599166
Zn  Zn4       1.0  0.43692  0.98826  0.40195  1.0000 0.9672599166
Zn  Zn5       1.0  0.15495  0.71199  0.76155  1.0000 0.9332850903
Zn  Zn6       1.0  0.28801  0.84505  0.26155  1.0000 0.9332850903
Zn  Zn7       1.0  0.87185  0.42279  0.76031  1.0000 0.9672599166
Zn  Zn8       1.0  0.57721  0.12815  0.26031  1.0000 0.9672599166
H   H1        1.0  0.19690  0.93330  0.54770  1.0000 0.1289652009
H   H2        1.0  0.06670  0.80310  0.04770  1.0000 0.1289652009
H   H3        1.0  0.99350  0.06690  0.37200  1.0000 0.1200343604
H   H4        1.0  0.93310  0.00650  0.87200  1.0000 0.1200343604
H   H5        1.0  0.83360  0.02500  0.43810  1.0000 0.1140670805
H   H6        1.0  0.97500  0.16640  0.93810  1.0000 0.1140670805
H   H7        1.0  0.85490  0.93330  0.56200  1.0000 0.1200343604
H   H8        1.0  0.06670  0.14510  0.06200  1.0000 0.1200343604
H   H9        1.0  0.52790  0.05470  0.84320  1.0000 0.1289652009
H   H10       1.0  0.94530  0.47210  0.34320  1.0000 0.1289652009
H   H11       1.0  0.76390  0.18210  0.03000  1.0000 0.1200343604
H   H12       1.0  0.81790  0.23610  0.53000  1.0000 0.1200343604
H   H13       1.0  0.59790  0.98550  0.09230  1.0000 0.1200343604
H   H14       1.0  0.01450  0.40210  0.59230  1.0000 0.1200343604
H   H15       1.0  0.39370  0.83010  0.02970  1.0000 0.1200343604
H   H16       1.0  0.16990  0.60630  0.52970  1.0000 0.1200343604
H   H17       1.0  0.43340  0.57340  0.75980  1.0000 0.1289652009
H   H18       1.0  0.42660  0.56660  0.25980  1.0000 0.1289652009
H   H19       1.0  0.44580  0.22320  0.77550  1.0000 0.1200343604
H   H20       1.0  0.77680  0.55420  0.27550  1.0000 0.1200343604
H   H21       1.0  0.21360  0.09220  0.78910  1.0000 0.1289652009
H   H22       1.0  0.90780  0.78640  0.28910  1.0000 0.1289652009
H   H23       1.0  0.09130  0.20170  0.78230  1.0000 0.1200343604
H   H24       1.0  0.79830  0.90870  0.28230  1.0000 0.1200343604
H   H25       1.0  0.62680  0.19880  0.67890  1.0000 0.1693237155
H   H26       1.0  0.80120  0.37320  0.17890  1.0000 0.1693237155
H   H27       1.0  0.52340  0.23980  0.62130  1.0000 0.1594495802
H   H28       1.0  0.76020  0.47660  0.12130  1.0000 0.1594495802
H   H29       1.0  0.60260  0.18340  0.59820  1.0000 0.154605481
H   H30       1.0  0.81660  0.39740  0.09820  1.0000 0.154605481
H   H31       1.0  0.52670  0.29030  0.50440  1.0000 0.1289652009
H   H32       1.0  0.70970  0.47330  0.00440  1.0000 0.1289652009
H   H33       1.0  0.54000  0.43360  0.46260  1.0000 0.1200343604
H   H34       1.0  0.56640  0.46000  0.96260  1.0000 0.1200343604
H   H35       1.0  0.62520  0.37640  0.44620  1.0000 0.1289652009
H   H36       1.0  0.62360  0.37480  0.94620  1.0000 0.1289652009
H   H37       1.0  0.88300  0.62760  0.56380  1.0000 0.1289652009
H   H38       1.0  0.37240  0.11700  0.06380  1.0000 0.1289652009
H   H39       1.0  0.86140  0.60220  0.48530  1.0000 0.1200343604
H   H40       1.0  0.39780  0.13860  0.98530  1.0000 0.1200343604
H   H41       1.0  0.77630  0.65830  0.50300  1.0000 0.1200343604
H   H42       1.0  0.34170  0.22370  0.00300  1.0000 0.1200343604
H   H43       1.0  0.09970  0.36970  0.97380  1.0000 0.3256458371
H   H44       1.0  0.63030  0.90030  0.47380  1.0000 0.3256458371
H   H45       1.0  0.17750  0.50370  0.94700  1.0000 0.3505921095
H   H46       1.0  0.49630  0.82250  0.44700  1.0000 0.3505921095
C   C1        1.0  0.03180  0.85340  0.64320  1.0000 0.5869303226
C   C2        1.0  0.14660  0.96820  0.14320  1.0000 0.5869303226
C   C3        1.0  0.21480  0.03240  0.40850  1.0000 0.5823750625
C   C4        1.0  0.96760  0.78520  0.90850  1.0000 0.5823750625
C   C5        1.0  0.02630  0.92310  0.56620  1.0000 -0.0306285319
C   C6        1.0  0.07690  0.97370  0.06620  1.0000 -0.0306285319
C   C7        1.0  0.12360  0.95080  0.52560  1.0000 -0.1004087136
C   C8        1.0  0.04920  0.87640  0.02560  1.0000 -0.1004087136
C   C9        1.0  0.11210  0.00470  0.45250  1.0000 -0.0306285319
C   C10       1.0  0.99530  0.88790  0.95250  1.0000 -0.0306285319
C   C11       1.0  0.00220  0.03120  0.42090  1.0000 -0.0803808168
C   C12       1.0  0.96880  0.99780  0.92090  1.0000 -0.0909021467
C   C13       1.0  0.90610  0.00610  0.46010  1.0000 -0.1104660552
C   C14       1.0  0.99390  0.09390  0.96010  1.0000 -0.1104660552
C   C15       1.0  0.91890  0.95070  0.53470  1.0000 -0.1104660552
C   C16       1.0  0.04930  0.08110  0.03470  1.0000 -0.1104660552
C   C17       1.0  0.30940  0.82540  0.88970  1.0000 0.5823750625
C   C18       1.0  0.17460  0.69060  0.38970  1.0000 0.5823750625
C   C19       1.0  0.76390  0.26690  0.88880  1.0000 0.5823750625
C   C20       1.0  0.73310  0.23610  0.38880  1.0000 0.5823750625
C   C21       1.0  0.44080  0.92660  0.93030  1.0000 -0.0306285319
C   C22       1.0  0.07340  0.55920  0.43030  1.0000 -0.0306285319
C   C23       1.0  0.54130  0.04170  0.89330  1.0000 -0.1104660552
C   C24       1.0  0.95830  0.45870  0.39330  1.0000 -0.1104660552
C   C25       1.0  0.66210  0.13770  0.93050  1.0000 -0.0306285319
C   C26       1.0  0.86230  0.33790  0.43050  1.0000 -0.0306285319
C   C27       1.0  0.68350  0.11790  0.00490  1.0000 -0.1004087136
C   C28       1.0  0.88210  0.31650  0.50490  1.0000 -0.1004087136
C   C29       1.0  0.58310  0.00070  0.04220  1.0000 -0.0803808168
C   C30       1.0  0.99930  0.41690  0.54220  1.0000 -0.0803808168
C   C31       1.0  0.46130  0.90650  0.00460  1.0000 -0.1004087136
C   C32       1.0  0.09350  0.53870  0.50460  1.0000 -0.1004087136
C   C33       1.0  0.16240  0.46600  0.76020  1.0000 0.5869303226
C   C34       1.0  0.53400  0.83760  0.26020  1.0000 0.5869303226
C   C35       1.0  0.61610  0.49370  0.75990  1.0000 0.5704434245
C   C36       1.0  0.50630  0.38390  0.25990  1.0000 0.5704434245
C   C37       1.0  0.24700  0.39740  0.76730  1.0000 -0.0306285319
C   C38       1.0  0.60260  0.75300  0.26730  1.0000 -0.0306285319
C   C39       1.0  0.38930  0.47710  0.76430  1.0000 -0.1168710411
C   C40       1.0  0.52290  0.61070  0.26430  1.0000 -0.1168710411
C   C41       1.0  0.46510  0.41110  0.76820  1.0000 -0.0178803996
C   C42       1.0  0.58890  0.53490  0.26820  1.0000 -0.0178803996
C   C43       1.0  0.39700  0.26740  0.77520  1.0000 -0.1004087136
C   C44       1.0  0.73260  0.60300  0.27520  1.0000 -0.1004087136
C   C45       1.0  0.25740  0.18880  0.78190  1.0000 -0.0909021467
C   C46       1.0  0.81120  0.74260  0.28190  1.0000 -0.0909021467
C   C47       1.0  0.18500  0.25460  0.77780  1.0000 -0.1004087136
C   C48       1.0  0.74540  0.81500  0.27780  1.0000 -0.1004087136
C   C49       1.0  0.72960  0.38880  0.61470  1.0000 0.5615532129
C   C50       1.0  0.61120  0.27040  0.11470  1.0000 0.5615532129
C   C51       1.0  0.60920  0.23840  0.62970  1.0000 -0.5940219433
C   C52       1.0  0.76160  0.39080  0.12970  1.0000 -0.5940219433
C   C53       1.0  0.58900  0.38220  0.48320  1.0000 -0.3371622831
C   C54       1.0  0.61780  0.41100  0.98320  1.0000 -0.3371622831
C   C55       1.0  0.81620  0.59820  0.52130  1.0000 -0.3293872148
C   C56       1.0  0.40180  0.18380  0.02130  1.0000 -0.3293872148
N   N1        1.0  0.70510  0.45370  0.53940  1.0000 -0.0421943635
N   N2        1.0  0.54630  0.29490  0.03940  1.0000 -0.0421943635
O   O1        1.0  0.93940  0.82600  0.67600  1.0000 -0.5199225963
O   O2        1.0  0.17400  0.06060  0.17600  1.0000 -0.5199225963
O   O3        1.0  0.09360  0.44080  0.94970  1.0000 -0.6369852394
O   O4        1.0  0.55920  0.90640  0.44970  1.0000 -0.6369852394
O   O5        1.0  0.12930  0.82670  0.66900  1.0000 -0.5301541955
O   O6        1.0  0.17330  0.87070  0.16900  1.0000 -0.5301541955
O   O7        1.0  0.32890  0.04450  0.43920  1.0000 -0.5137257249
O   O8        1.0  0.95550  0.67110  0.93920  1.0000 -0.5137257249
O   O9        1.0  0.17360  0.04520  0.34040  1.0000 -0.5488262247
O   O10       1.0  0.95480  0.82640  0.84040  1.0000 -0.5488262247
O   O11       1.0  0.21660  0.72980  0.92280  1.0000 -0.5488262247
O   O12       1.0  0.27020  0.78340  0.42280  1.0000 -0.5488262247
O   O13       1.0  0.30490  0.84510  0.82130  1.0000 -0.5301541955
O   O14       1.0  0.15490  0.69510  0.32130  1.0000 -0.5301541955
O   O15       1.0  0.82510  0.37730  0.91470  1.0000 -0.5389958492
O   O16       1.0  0.62270  0.17490  0.41470  1.0000 -0.5389958492
O   O17       1.0  0.77820  0.25560  0.82900  1.0000 -0.5389958492
O   O18       1.0  0.74440  0.22180  0.32900  1.0000 -0.5389958492
O   O19       1.0  0.22590  0.59710  0.75140  1.0000 -0.5389958492
O   O20       1.0  0.40290  0.77410  0.25140  1.0000 -0.5389958492
O   O21       1.0  0.03540  0.38960  0.76250  1.0000 -0.5488262247
O   O22       1.0  0.61040  0.96460  0.26250  1.0000 -0.5488262247
O   O23       1.0  0.97960  0.59840  0.79650  1.0000 -1.0161264808
O   O24       1.0  0.40160  0.02040  0.29650  1.0000 -1.0161264808
O   O25       1.0  0.66790  0.43150  0.74720  1.0000 -0.5668809087
O   O26       1.0  0.56850  0.33210  0.24720  1.0000 -0.5668809087
O   O27       1.0  0.67940  0.61880  0.76710  1.0000 -0.5199225963
O   O28       1.0  0.38120  0.32060  0.26710  1.0000 -0.5199225963
O   O29       1.0  0.82950  0.44890  0.65360  1.0000 -0.4524920554
O   O30       1.0  0.55110  0.17050  0.15360  1.0000 -0.4524920554
