# DDEC6 charges by PACMAN v1.1 (https://github.com/mtap-research/PACMAN-charge/)
data_2014[Co][etf]3[FSR]1
_chemical_formula_sum              "Co6 H34 C66 N12 Cl6 O30"
_cell_length_a       16.8704
_cell_length_b       16.8704
_cell_length_c       8.4209
_cell_angle_alpha    80.3716
_cell_angle_beta     99.6284
_cell_angle_gamma    62.6993

_symmetry_space_group_name_H-M    "P 1"
_symmetry_Int_Tables_number       1

loop_
  _symmetry_equiv_pos_as_xyz
  'x, y, z'

loop_
  _atom_site_type_symbol
  _atom_site_label
  _atom_site_symmetry_multiplicity
  _atom_site_fract_x
  _atom_site_fract_y
  _atom_site_fract_z
  _atom_site_occupancy
  _atom_site_charge
Co  Co1       1.0  0.46063  0.10543  0.65524  1.0000 1.0057247961
Co  Co2       1.0  0.89457  0.53937  0.15524  1.0000 1.0057247961
Co  Co3       1.0  0.60556  0.81562  0.30007  1.0000 1.0368554676
Co  Co4       1.0  0.18438  0.39444  0.80007  1.0000 1.0368554676
Co  Co5       1.0  0.47339  0.38169  0.23382  1.0000 1.0840640152
Co  Co6       1.0  0.61831  0.52661  0.73382  1.0000 1.0840640152
H   H1        1.0  0.48950  0.21650  0.77710  1.0000 0.4115590537
H   H2        1.0  0.78350  0.51050  0.27710  1.0000 0.4115590537
H   H3        1.0  0.64200  0.12680  0.68140  1.0000 0.1269081081
H   H4        1.0  0.87320  0.35800  0.18140  1.0000 0.1269081081
H   H5        1.0  0.70390  0.20350  0.53550  1.0000 0.1601100151
H   H6        1.0  0.79650  0.29610  0.03550  1.0000 0.1601100151
H   H7        1.0  0.89690  0.96070  0.49230  1.0000 0.1235778639
H   H8        1.0  0.03930  0.10310  0.99230  1.0000 0.1235778639
H   H9        1.0  0.83110  0.88450  0.62730  1.0000 0.1269081081
H   H10       1.0  0.11550  0.16890  0.12730  1.0000 0.1269081081
H   H11       1.0  0.39700  0.21900  0.75800  1.0000 0.3878650749
H   H12       1.0  0.78100  0.60300  0.25800  1.0000 0.3878650749
H   H13       1.0  0.74390  0.69570  0.52690  1.0000 0.3207271242
H   H14       1.0  0.30430  0.25610  0.02690  1.0000 0.3207271242
H   H15       1.0  0.89740  0.95980  0.99140  1.0000 0.1235778639
H   H16       1.0  0.04020  0.10260  0.49140  1.0000 0.1235778639
H   H17       1.0  0.80860  0.79500  0.34760  1.0000 0.1269081081
H   H18       1.0  0.20500  0.19140  0.84760  1.0000 0.1269081081
H   H19       1.0  0.94680  0.71720  0.27800  1.0000 0.1601100151
H   H20       1.0  0.28280  0.05320  0.77800  1.0000 0.1601100151
H   H21       1.0  0.75640  0.03700  0.05400  1.0000 0.1235778639
H   H22       1.0  0.96300  0.24360  0.55400  1.0000 0.1235778639
H   H23       1.0  0.67100  0.69100  0.53600  1.0000 0.3207271242
H   H24       1.0  0.30900  0.32900  0.03600  1.0000 0.3207271242
H   H25       1.0  0.33370  0.41350  0.33020  1.0000 0.3755136812
H   H26       1.0  0.58650  0.66630  0.83020  1.0000 0.3755136812
H   H27       1.0  0.18180  0.81820  0.63540  1.0000 0.1235778639
H   H28       1.0  0.18180  0.81820  0.13540  1.0000 0.1235778639
H   H29       1.0  0.13180  0.62480  0.87140  1.0000 0.1601100151
H   H30       1.0  0.37520  0.86820  0.37140  1.0000 0.1601100151
H   H31       1.0  0.27040  0.56340  0.07740  1.0000 0.1269081081
H   H32       1.0  0.43660  0.72960  0.57740  1.0000 0.1269081081
H   H33       1.0  0.32270  0.75310  0.83440  1.0000 0.1269081081
H   H34       1.0  0.24690  0.67730  0.33440  1.0000 0.1269081081
C   C1        1.0  0.80604  0.08844  0.50120  1.0000 0.152515092
C   C2        1.0  0.91156  0.19396  0.00120  1.0000 0.152515092
C   C3        1.0  0.69217  0.09377  0.64150  1.0000 -0.0869130557
C   C4        1.0  0.90623  0.30783  0.14150  1.0000 -0.0869130557
C   C5        1.0  0.73014  0.99774  0.66770  1.0000 0.0221531922
C   C6        1.0  0.00226  0.26986  0.16770  1.0000 0.0221531922
C   C7        1.0  0.72962  0.13962  0.55590  1.0000 -0.1315187206
C   C8        1.0  0.86038  0.27038  0.05590  1.0000 -0.1315187206
C   C9        1.0  0.73177  0.74737  0.06410  1.0000 0.5683677877
C   C10       1.0  0.25263  0.26823  0.56410  1.0000 0.5683677877
C   C11       1.0  0.68636  0.84256  0.94230  1.0000 0.0488294795
C   C12       1.0  0.15744  0.31364  0.44230  1.0000 0.0488294795
C   C13       1.0  0.84513  0.99373  0.52840  1.0000 -0.1595449959
C   C14       1.0  0.00627  0.15487  0.02840  1.0000 -0.1595449959
C   C15       1.0  0.69034  0.95054  0.76160  1.0000 0.3207271242
C   C16       1.0  0.04946  0.30966  0.26160  1.0000 0.3207271242
C   C17       1.0  0.51464  0.95144  0.94580  1.0000 0.5764254118
C   C18       1.0  0.04856  0.48536  0.44580  1.0000 0.5764254118
C   C19       1.0  0.80621  0.94821  0.61060  1.0000 -0.0869130557
C   C20       1.0  0.05179  0.19379  0.11060  1.0000 -0.0869130557
C   C21       1.0  0.60338  0.92458  0.89990  1.0000 0.0078407315
C   C22       1.0  0.07542  0.39662  0.39990  1.0000 0.0078407315
C   C23       1.0  0.56826  0.07866  0.32550  1.0000 0.0488294795
C   C24       1.0  0.92134  0.43174  0.82550  1.0000 0.0488294795
C   C25       1.0  0.76682  0.92322  0.20420  1.0000 0.0221531922
C   C26       1.0  0.07678  0.23318  0.70420  1.0000 0.0221531922
C   C27       1.0  0.87866  0.92706  0.06130  1.0000 -0.1595449959
C   C28       1.0  0.07294  0.12134  0.56130  1.0000 -0.1595449959
C   C29       1.0  0.93421  0.83161  0.12980  1.0000 0.152515092
C   C30       1.0  0.16839  0.06579  0.62980  1.0000 0.152515092
C   C31       1.0  0.82539  0.82799  0.27370  1.0000 -0.0869130557
C   C32       1.0  0.17201  0.17461  0.77370  1.0000 -0.0869130557
C   C33       1.0  0.90897  0.78117  0.23440  1.0000 -0.1381226247
C   C34       1.0  0.21883  0.09103  0.73440  1.0000 -0.1381226247
C   C35       1.0  0.68024  0.97024  0.25150  1.0000 0.3207271242
C   C36       1.0  0.02976  0.31976  0.75150  1.0000 0.3207271242
C   C37       1.0  0.50498  0.97038  0.43790  1.0000 0.5764254118
C   C38       1.0  0.02962  0.49502  0.93790  1.0000 0.5764254118
C   C39       1.0  0.56761  0.99601  0.36470  1.0000 0.0078407315
C   C40       1.0  0.00399  0.43239  0.86470  1.0000 0.0078407315
C   C41       1.0  0.51832  0.17412  0.35140  1.0000 0.5683677877
C   C42       1.0  0.82588  0.48168  0.85140  1.0000 0.5683677877
C   C43       1.0  0.79430  0.97310  0.09900  1.0000 -0.0869130557
C   C44       1.0  0.02690  0.20570  0.59900  1.0000 -0.0869130557
C   C45       1.0  0.31217  0.65037  0.97720  1.0000 0.0221531922
C   C46       1.0  0.34963  0.68783  0.47720  1.0000 0.0221531922
C   C47       1.0  0.20077  0.76617  0.72320  1.0000 -0.1595449959
C   C48       1.0  0.23383  0.79923  0.22320  1.0000 -0.1595449959
C   C49       1.0  0.51109  0.60749  0.29690  1.0000 0.0488294795
C   C50       1.0  0.39251  0.48891  0.79690  1.0000 0.0488294795
C   C51       1.0  0.14475  0.72655  0.73510  1.0000 0.152515092
C   C52       1.0  0.27345  0.85525  0.23510  1.0000 0.152515092
C   C53       1.0  0.16999  0.65059  0.86550  1.0000 -0.1381226247
C   C54       1.0  0.34941  0.83001  0.36550  1.0000 -0.1381226247
C   C55       1.0  0.25322  0.61362  0.98730  1.0000 -0.0834792768
C   C56       1.0  0.38638  0.74678  0.48730  1.0000 -0.0834792768
C   C57       1.0  0.28436  0.72776  0.84270  1.0000 -0.0869130557
C   C58       1.0  0.27224  0.71564  0.34270  1.0000 -0.0869130557
C   C59       1.0  0.39849  0.61069  0.11010  1.0000 0.3207271242
C   C60       1.0  0.38931  0.60151  0.61010  1.0000 0.3207271242
C   C61       1.0  0.57335  0.43615  0.47010  1.0000 0.5683677877
C   C62       1.0  0.56385  0.42665  0.97010  1.0000 0.5683677877
C   C63       1.0  0.51127  0.52387  0.33680  1.0000 0.0078407315
C   C64       1.0  0.47613  0.48873  0.83680  1.0000 0.0078407315
C   C65       1.0  0.56013  0.65233  0.37280  1.0000 0.5683677877
C   C66       1.0  0.34767  0.43987  0.87280  1.0000 0.5683677877
N   N1        1.0  0.60567  0.99187  0.78500  1.0000 -0.4183690911
N   N2        1.0  0.00813  0.39433  0.28500  1.0000 -0.4183690911
N   N3        1.0  0.73955  0.86055  0.85110  1.0000 -0.2599375834
N   N4        1.0  0.13945  0.26045  0.35110  1.0000 -0.2599375834
N   N5        1.0  0.63726  0.92866  0.31720  1.0000 -0.4183690911
N   N6        1.0  0.07134  0.36274  0.81720  1.0000 -0.4183690911
N   N7        1.0  0.63966  0.06066  0.25080  1.0000 -0.2800710713
N   N8        1.0  0.93934  0.36034  0.75080  1.0000 -0.2800710713
N   N9        1.0  0.44206  0.52626  0.21930  1.0000 -0.4111483013
N   N10       1.0  0.47374  0.55794  0.71930  1.0000 -0.4111483013
N   N11       1.0  0.43954  0.66074  0.15160  1.0000 -0.2599375834
N   N12       1.0  0.33926  0.56046  0.65160  1.0000 -0.2599375834
Cl  Cl1       1.0  0.85379  0.14605  0.39493  1.0000 -0.0608596966
Cl  Cl2       1.0  0.85395  0.14621  0.89493  1.0000 -0.0608596966
Cl  Cl3       1.0  0.03921  0.77499  0.08007  1.0000 -0.0608596966
Cl  Cl4       1.0  0.22501  0.96079  0.58007  1.0000 -0.0608596966
Cl  Cl5       1.0  0.03969  0.77489  0.58022  1.0000 -0.0608596966
Cl  Cl6       1.0  0.22511  0.96031  0.08022  1.0000 -0.0608596966
O   O1        1.0  0.51180  0.89982  0.07020  1.0000 -0.5217692768
O   O2        1.0  0.10018  0.48820  0.57020  1.0000 -0.5217692768
O   O3        1.0  0.69778  0.73454  0.18230  1.0000 -0.5706040179
O   O4        1.0  0.26546  0.30222  0.68230  1.0000 -0.5706040179
O   O5        1.0  0.45609  0.19549  0.79870  1.0000 -0.6415637647
O   O6        1.0  0.80451  0.54391  0.29870  1.0000 -0.6415637647
O   O7        1.0  0.44442  0.02630  0.85420  1.0000 -0.4950691676
O   O8        1.0  0.97370  0.55558  0.35420  1.0000 -0.4950691676
O   O9        1.0  0.80414  0.68698  0.04110  1.0000 -0.4785385644
O   O10       1.0  0.31302  0.19586  0.54110  1.0000 -0.4785385644
O   O11       1.0  0.45104  0.02062  0.50990  1.0000 -0.5102958595
O   O12       1.0  0.97938  0.54896  0.00990  1.0000 -0.5102958595
O   O13       1.0  0.69070  0.72610  0.53300  1.0000 -0.5902548348
O   O14       1.0  0.27390  0.30930  0.03300  1.0000 -0.5902548348
O   O15       1.0  0.47190  0.18624  0.45620  1.0000 -0.5217692768
O   O16       1.0  0.81376  0.52810  0.95620  1.0000 -0.5217692768
O   O17       1.0  0.53058  0.23406  0.26820  1.0000 -0.4570272928
O   O18       1.0  0.76594  0.46942  0.76820  1.0000 -0.4570272928
O   O19       1.0  0.51023  0.89461  0.42030  1.0000 -0.4889310812
O   O20       1.0  0.10539  0.48977  0.92030  1.0000 -0.4889310812
O   O21       1.0  0.62757  0.43281  0.59810  1.0000 -0.5251014745
O   O22       1.0  0.56719  0.37243  0.09810  1.0000 -0.5251014745
O   O23       1.0  0.38818  0.37678  0.38240  1.0000 -0.6974241649
O   O24       1.0  0.62322  0.61182  0.88240  1.0000 -0.6974241649
O   O25       1.0  0.60762  0.61794  0.52400  1.0000 -0.5555747365
O   O26       1.0  0.38206  0.39238  0.02400  1.0000 -0.5555747365
O   O27       1.0  0.54903  0.72519  0.27650  1.0000 -0.4889310812
O   O28       1.0  0.27481  0.45097  0.77650  1.0000 -0.4889310812
O   O29       1.0  0.56875  0.36575  0.44960  1.0000 -0.4570272928
O   O30       1.0  0.63425  0.43125  0.94960  1.0000 -0.4570272928
