# DDEC6 charges by PACMAN v1.1 (https://github.com/mtap-research/PACMAN-charge/)
data_2014[Mn][nan]3[FSR]16
_chemical_formula_sum              "Mn8 H24 C72 O48"
_cell_length_a       12.4737
_cell_length_b       14.9204
_cell_length_c       16.5884
_cell_angle_alpha    90
_cell_angle_beta     90
_cell_angle_gamma    90

_symmetry_space_group_name_H-M    "P 1"
_symmetry_Int_Tables_number       1

loop_
  _symmetry_equiv_pos_as_xyz
  'x, y, z'

loop_
  _atom_site_type_symbol
  _atom_site_label
  _atom_site_symmetry_multiplicity
  _atom_site_fract_x
  _atom_site_fract_y
  _atom_site_fract_z
  _atom_site_occupancy
  _atom_site_charge
Mn  Mn1       1.0  0.51442  0.39600  0.58142  1.0000 1.0163110576
Mn  Mn2       1.0  0.48558  0.10400  0.08142  1.0000 1.0163110576
Mn  Mn3       1.0  0.98558  0.89600  0.41858  1.0000 1.0163110576
Mn  Mn4       1.0  0.01442  0.60400  0.91858  1.0000 1.0163110576
Mn  Mn5       1.0  0.48558  0.60400  0.41858  1.0000 1.0163110576
Mn  Mn6       1.0  0.51442  0.89600  0.91858  1.0000 1.0163110576
Mn  Mn7       1.0  0.01442  0.10400  0.58142  1.0000 1.0163110576
Mn  Mn8       1.0  0.98558  0.39600  0.08142  1.0000 1.0163110576
H   H1        1.0  0.52500  0.27560  0.85000  1.0000 0.1301011606
H   H2        1.0  0.47500  0.22440  0.35000  1.0000 0.1301011606
H   H3        1.0  0.97500  0.77560  0.15000  1.0000 0.1301011606
H   H4        1.0  0.02500  0.72440  0.65000  1.0000 0.1301011606
H   H5        1.0  0.47500  0.72440  0.15000  1.0000 0.1301011606
H   H6        1.0  0.52500  0.77560  0.65000  1.0000 0.1301011606
H   H7        1.0  0.02500  0.22440  0.85000  1.0000 0.1301011606
H   H8        1.0  0.97500  0.27560  0.35000  1.0000 0.1301011606
H   H9        1.0  0.76360  0.44360  0.79160  1.0000 0.1301011606
H   H10       1.0  0.23640  0.05640  0.29160  1.0000 0.1301011606
H   H11       1.0  0.73640  0.94360  0.20840  1.0000 0.1301011606
H   H12       1.0  0.26360  0.55640  0.70840  1.0000 0.1301011606
H   H13       1.0  0.23640  0.55640  0.20840  1.0000 0.1301011606
H   H14       1.0  0.76360  0.94360  0.70840  1.0000 0.1301011606
H   H15       1.0  0.26360  0.05640  0.79160  1.0000 0.1301011606
H   H16       1.0  0.73640  0.44360  0.29160  1.0000 0.1301011606
H   H17       1.0  0.74590  0.34390  0.01490  1.0000 0.1301011606
H   H18       1.0  0.25410  0.15610  0.51490  1.0000 0.1301011606
H   H19       1.0  0.75410  0.84390  0.98510  1.0000 0.1301011606
H   H20       1.0  0.24590  0.65610  0.48510  1.0000 0.1301011606
H   H21       1.0  0.25410  0.65610  0.98510  1.0000 0.1301011606
H   H22       1.0  0.74590  0.84390  0.48510  1.0000 0.1301011606
H   H23       1.0  0.24590  0.15610  0.01490  1.0000 0.1301011606
H   H24       1.0  0.75410  0.34390  0.51490  1.0000 0.1301011606
C   C1        1.0  0.59720  0.36470  0.72160  1.0000 0.5166904301
C   C2        1.0  0.40280  0.13530  0.22160  1.0000 0.5166904301
C   C3        1.0  0.90280  0.86470  0.27840  1.0000 0.5166904301
C   C4        1.0  0.09720  0.63530  0.77840  1.0000 0.5166904301
C   C5        1.0  0.40280  0.63530  0.27840  1.0000 0.5166904301
C   C6        1.0  0.59720  0.86470  0.77840  1.0000 0.5166904301
C   C7        1.0  0.09720  0.13530  0.72160  1.0000 0.5166904301
C   C8        1.0  0.90280  0.36470  0.22160  1.0000 0.5166904301
C   C9        1.0  0.63860  0.35960  0.80730  1.0000 -0.0117622355
C   C10       1.0  0.36140  0.14040  0.30730  1.0000 -0.0117622355
C   C11       1.0  0.86140  0.85960  0.19270  1.0000 -0.0117622355
C   C12       1.0  0.13860  0.64040  0.69270  1.0000 -0.0117622355
C   C13       1.0  0.36140  0.64040  0.19270  1.0000 -0.0117622355
C   C14       1.0  0.63860  0.85960  0.69270  1.0000 -0.0117622355
C   C15       1.0  0.13860  0.14040  0.80730  1.0000 -0.0117622355
C   C16       1.0  0.86140  0.35960  0.30730  1.0000 -0.0117622355
C   C17       1.0  0.58750  0.30590  0.86390  1.0000 -0.0995095958
C   C18       1.0  0.41250  0.19410  0.36390  1.0000 -0.0995095958
C   C19       1.0  0.91250  0.80590  0.13610  1.0000 -0.0995095958
C   C20       1.0  0.08750  0.69410  0.63610  1.0000 -0.0995095958
C   C21       1.0  0.41250  0.69410  0.13610  1.0000 -0.0995095958
C   C22       1.0  0.58750  0.80590  0.63610  1.0000 -0.0995095958
C   C23       1.0  0.08750  0.19410  0.86390  1.0000 -0.0995095958
C   C24       1.0  0.91250  0.30590  0.36390  1.0000 -0.0995095958
C   C25       1.0  0.72900  0.40780  0.82940  1.0000 -0.0995095958
C   C26       1.0  0.27100  0.09220  0.32940  1.0000 -0.0995095958
C   C27       1.0  0.77100  0.90780  0.17060  1.0000 -0.0995095958
C   C28       1.0  0.22900  0.59220  0.67060  1.0000 -0.0995095958
C   C29       1.0  0.27100  0.59220  0.17060  1.0000 -0.0995095958
C   C30       1.0  0.72900  0.90780  0.67060  1.0000 -0.0995095958
C   C31       1.0  0.22900  0.09220  0.82940  1.0000 -0.0995095958
C   C32       1.0  0.77100  0.40780  0.32940  1.0000 -0.0995095958
C   C33       1.0  0.62960  0.29700  0.94140  1.0000 0.0064351266
C   C34       1.0  0.37040  0.20300  0.44140  1.0000 0.0064351266
C   C35       1.0  0.87040  0.79700  0.05860  1.0000 0.0064351266
C   C36       1.0  0.12960  0.70300  0.55860  1.0000 0.0064351266
C   C37       1.0  0.37040  0.70300  0.05860  1.0000 0.0064351266
C   C38       1.0  0.62960  0.79700  0.55860  1.0000 0.0064351266
C   C39       1.0  0.12960  0.20300  0.94140  1.0000 0.0064351266
C   C40       1.0  0.87040  0.29700  0.44140  1.0000 0.0064351266
C   C41       1.0  0.76820  0.40320  0.90750  1.0000 -0.0117622355
C   C42       1.0  0.23180  0.09680  0.40750  1.0000 -0.0117622355
C   C43       1.0  0.73180  0.90320  0.09250  1.0000 -0.0117622355
C   C44       1.0  0.26820  0.59680  0.59250  1.0000 -0.0117622355
C   C45       1.0  0.23180  0.59680  0.09250  1.0000 -0.0117622355
C   C46       1.0  0.76820  0.90320  0.59250  1.0000 -0.0117622355
C   C47       1.0  0.26820  0.09680  0.90750  1.0000 -0.0117622355
C   C48       1.0  0.73180  0.40320  0.40750  1.0000 -0.0117622355
C   C49       1.0  0.57770  0.23130  0.99900  1.0000 0.5166904301
C   C50       1.0  0.42230  0.26870  0.49900  1.0000 0.5166904301
C   C51       1.0  0.92230  0.73130  0.00100  1.0000 0.5166904301
C   C52       1.0  0.07770  0.76870  0.50100  1.0000 0.5166904301
C   C53       1.0  0.42230  0.76870  0.00100  1.0000 0.5166904301
C   C54       1.0  0.57770  0.73130  0.50100  1.0000 0.5166904301
C   C55       1.0  0.07770  0.26870  0.99900  1.0000 0.5166904301
C   C56       1.0  0.92230  0.23130  0.49900  1.0000 0.5166904301
C   C57       1.0  0.71900  0.34760  0.96270  1.0000 -0.0995095958
C   C58       1.0  0.28100  0.15240  0.46270  1.0000 -0.0995095958
C   C59       1.0  0.78100  0.84760  0.03730  1.0000 -0.0995095958
C   C60       1.0  0.21900  0.65240  0.53730  1.0000 -0.0995095958
C   C61       1.0  0.28100  0.65240  0.03730  1.0000 -0.0995095958
C   C62       1.0  0.71900  0.84760  0.53730  1.0000 -0.0995095958
C   C63       1.0  0.21900  0.15240  0.96270  1.0000 -0.0995095958
C   C64       1.0  0.78100  0.34760  0.46270  1.0000 -0.0995095958
C   C65       1.0  0.86110  0.46130  0.93210  1.0000 0.5640148751
C   C66       1.0  0.13890  0.03870  0.43210  1.0000 0.5640148751
C   C67       1.0  0.63890  0.96130  0.06790  1.0000 0.5640148751
C   C68       1.0  0.36110  0.53870  0.56790  1.0000 0.5640148751
C   C69       1.0  0.13890  0.53870  0.06790  1.0000 0.5640148751
C   C70       1.0  0.86110  0.96130  0.56790  1.0000 0.5640148751
C   C71       1.0  0.36110  0.03870  0.93210  1.0000 0.5640148751
C   C72       1.0  0.63890  0.46130  0.43210  1.0000 0.5640148751
O   O1        1.0  0.64750  0.40720  0.67086  1.0000 -0.4232508011
O   O2        1.0  0.35250  0.09280  0.17086  1.0000 -0.4232508011
O   O3        1.0  0.85250  0.90720  0.32914  1.0000 -0.4232508011
O   O4        1.0  0.14750  0.59280  0.82914  1.0000 -0.4232508011
O   O5        1.0  0.35250  0.59280  0.32914  1.0000 -0.4232508011
O   O6        1.0  0.64750  0.90720  0.82914  1.0000 -0.4232508011
O   O7        1.0  0.14750  0.09280  0.67086  1.0000 -0.4232508011
O   O8        1.0  0.85250  0.40720  0.17086  1.0000 -0.4232508011
O   O9        1.0  0.50850  0.32960  0.70604  1.0000 -0.434474311
O   O10       1.0  0.49150  0.17040  0.20604  1.0000 -0.434474311
O   O11       1.0  0.99150  0.82960  0.29396  1.0000 -0.434474311
O   O12       1.0  0.00850  0.67040  0.79396  1.0000 -0.434474311
O   O13       1.0  0.49150  0.67040  0.29396  1.0000 -0.434474311
O   O14       1.0  0.50850  0.82960  0.79396  1.0000 -0.434474311
O   O15       1.0  0.00850  0.17040  0.70604  1.0000 -0.434474311
O   O16       1.0  0.99150  0.32960  0.20604  1.0000 -0.434474311
O   O17       1.0  0.61950  0.47240  0.50571  1.0000 -0.5118956335
O   O18       1.0  0.38050  0.02760  0.00571  1.0000 -0.5118956335
O   O19       1.0  0.88050  0.97240  0.49429  1.0000 -0.5118956335
O   O20       1.0  0.11950  0.52760  0.99429  1.0000 -0.5118956335
O   O21       1.0  0.38050  0.52760  0.49429  1.0000 -0.5118956335
O   O22       1.0  0.61950  0.97240  0.99429  1.0000 -0.5118956335
O   O23       1.0  0.11950  0.02760  0.50571  1.0000 -0.5118956335
O   O24       1.0  0.88050  0.47240  0.00571  1.0000 -0.5118956335
O   O25       1.0  0.41460  0.50140  0.62340  1.0000 -0.4592492349
O   O26       1.0  0.58540  0.99860  0.12340  1.0000 -0.4592492349
O   O27       1.0  0.08540  0.00140  0.37660  1.0000 -0.4592492349
O   O28       1.0  0.91460  0.49860  0.87660  1.0000 -0.4592492349
O   O29       1.0  0.58540  0.49860  0.37660  1.0000 -0.4592492349
O   O30       1.0  0.41460  0.00140  0.87660  1.0000 -0.4592492349
O   O31       1.0  0.91460  0.99860  0.62340  1.0000 -0.4592492349
O   O32       1.0  0.08540  0.50140  0.12340  1.0000 -0.4592492349
O   O33       1.0  0.51510  0.29180  0.48870  1.0000 -0.4469676681
O   O34       1.0  0.48490  0.20820  0.98870  1.0000 -0.4469676681
O   O35       1.0  0.98490  0.79180  0.51130  1.0000 -0.4469676681
O   O36       1.0  0.01510  0.70820  0.01130  1.0000 -0.4469676681
O   O37       1.0  0.48490  0.70820  0.51130  1.0000 -0.4469676681
O   O38       1.0  0.51510  0.79180  0.01130  1.0000 -0.4469676681
O   O39       1.0  0.01510  0.20820  0.48870  1.0000 -0.4469676681
O   O40       1.0  0.98490  0.29180  0.98870  1.0000 -0.4469676681
O   O41       1.0  0.36640  0.30170  0.55350  1.0000 -0.4125544942
O   O42       1.0  0.63360  0.19830  0.05350  1.0000 -0.4125544942
O   O43       1.0  0.13360  0.80170  0.44650  1.0000 -0.4125544942
O   O44       1.0  0.86640  0.69830  0.94650  1.0000 -0.4125544942
O   O45       1.0  0.63360  0.69830  0.44650  1.0000 -0.4125544942
O   O46       1.0  0.36640  0.80170  0.94650  1.0000 -0.4125544942
O   O47       1.0  0.86640  0.19830  0.55350  1.0000 -0.4125544942
O   O48       1.0  0.13360  0.30170  0.05350  1.0000 -0.4125544942
