# DDEC6 charges by PACMAN v1.1 (https://github.com/mtap-research/PACMAN-charge/)
data_2014[Zn][sra]3[FSR]2
_chemical_formula_sum              "Zn8 H24 C72 O48"
_cell_length_a       9.575
_cell_length_b       12.193
_cell_length_c       32.407
_cell_angle_alpha    90
_cell_angle_beta     90
_cell_angle_gamma    90

_symmetry_space_group_name_H-M    "P 1"
_symmetry_Int_Tables_number       1

loop_
  _symmetry_equiv_pos_as_xyz
  'x, y, z'

loop_
  _atom_site_type_symbol
  _atom_site_label
  _atom_site_symmetry_multiplicity
  _atom_site_fract_x
  _atom_site_fract_y
  _atom_site_fract_z
  _atom_site_occupancy
  _atom_site_charge
Zn  Zn1       1.0  0.45653  0.39104  0.33180  1.0000 0.9611474365
Zn  Zn2       1.0  0.54347  0.89104  0.66820  1.0000 0.9611474365
Zn  Zn3       1.0  0.04347  0.39104  0.83180  1.0000 0.9611474365
Zn  Zn4       1.0  0.95653  0.89104  0.16820  1.0000 0.9611474365
Zn  Zn5       1.0  0.75620  0.43638  0.41776  1.0000 0.9611474365
Zn  Zn6       1.0  0.24380  0.93638  0.58224  1.0000 0.9611474365
Zn  Zn7       1.0  0.74380  0.43638  0.91776  1.0000 0.9611474365
Zn  Zn8       1.0  0.25620  0.93638  0.08224  1.0000 0.9611474365
H   H1        1.0  0.48870  0.68120  0.46820  1.0000 0.1377533229
H   H2        1.0  0.51130  0.18120  0.53180  1.0000 0.1377533229
H   H3        1.0  0.01130  0.68120  0.96820  1.0000 0.1377533229
H   H4        1.0  0.98870  0.18120  0.03180  1.0000 0.1377533229
H   H5        1.0  0.63540  0.61790  0.24420  1.0000 0.1314202388
H   H6        1.0  0.36460  0.11790  0.75580  1.0000 0.1314202388
H   H7        1.0  0.86460  0.61790  0.74420  1.0000 0.1314202388
H   H8        1.0  0.13540  0.11790  0.25580  1.0000 0.1314202388
H   H9        1.0  0.09040  0.69370  0.50360  1.0000 0.1314202388
H   H10       1.0  0.90960  0.19370  0.49640  1.0000 0.1314202388
H   H11       1.0  0.40960  0.69370  0.00360  1.0000 0.1314202388
H   H12       1.0  0.59040  0.19370  0.99640  1.0000 0.1314202388
H   H13       1.0  0.23010  0.65500  0.21910  1.0000 0.1314202388
H   H14       1.0  0.76990  0.15500  0.78090  1.0000 0.1314202388
H   H15       1.0  0.26990  0.65500  0.71910  1.0000 0.1314202388
H   H16       1.0  0.73010  0.15500  0.28090  1.0000 0.1314202388
H   H17       1.0  0.51230  0.83300  0.15960  1.0000 0.1377533229
H   H18       1.0  0.48770  0.33300  0.84040  1.0000 0.1377533229
H   H19       1.0  0.98770  0.83300  0.65960  1.0000 0.1377533229
H   H20       1.0  0.01230  0.33300  0.34040  1.0000 0.1377533229
H   H21       1.0  0.20910  0.47830  0.41690  1.0000 0.1377533229
H   H22       1.0  0.79090  0.97830  0.58310  1.0000 0.1377533229
H   H23       1.0  0.29090  0.47830  0.91690  1.0000 0.1377533229
H   H24       1.0  0.70910  0.97830  0.08310  1.0000 0.1377533229
C   C1        1.0  0.59870  0.73280  0.20130  1.0000 -0.0028498827
C   C2        1.0  0.40130  0.23280  0.79870  1.0000 -0.0028498827
C   C3        1.0  0.90130  0.73280  0.70130  1.0000 -0.0028498827
C   C4        1.0  0.09870  0.23280  0.29870  1.0000 -0.0028498827
C   C5        1.0  0.35320  0.75610  0.18670  1.0000 -0.0291715948
C   C6        1.0  0.64680  0.25610  0.81330  1.0000 -0.0291715948
C   C7        1.0  0.14680  0.75610  0.68670  1.0000 -0.0291715948
C   C8        1.0  0.85320  0.25610  0.31330  1.0000 -0.0291715948
C   C9        1.0  0.42700  0.62360  0.23720  1.0000 -0.0028498827
C   C10       1.0  0.57300  0.12360  0.76280  1.0000 -0.0028498827
C   C11       1.0  0.07300  0.62360  0.73720  1.0000 -0.0028498827
C   C12       1.0  0.92700  0.12360  0.26280  1.0000 -0.0028498827
C   C13       1.0  0.33320  0.78890  0.52220  1.0000 0.5408209502
C   C14       1.0  0.66680  0.28890  0.47780  1.0000 0.5408209502
C   C15       1.0  0.16680  0.78890  0.02220  1.0000 0.5408209502
C   C16       1.0  0.83320  0.28890  0.97780  1.0000 0.5408209502
C   C17       1.0  0.39790  0.65450  0.46680  1.0000 -0.0899128295
C   C18       1.0  0.60210  0.15450  0.53320  1.0000 -0.0899128295
C   C19       1.0  0.10210  0.65450  0.96680  1.0000 -0.0899128295
C   C20       1.0  0.89790  0.15450  0.03320  1.0000 -0.0899128295
C   C21       1.0  0.56440  0.65290  0.22970  1.0000 -0.0899128295
C   C22       1.0  0.43560  0.15290  0.77030  1.0000 -0.0899128295
C   C23       1.0  0.93560  0.65290  0.72970  1.0000 -0.0964594483
C   C24       1.0  0.06440  0.15290  0.27030  1.0000 -0.0899128295
C   C25       1.0  0.16070  0.66220  0.48770  1.0000 -0.0899128295
C   C26       1.0  0.83930  0.16220  0.51230  1.0000 -0.0899128295
C   C27       1.0  0.33930  0.66220  0.98770  1.0000 -0.0899128295
C   C28       1.0  0.66070  0.16220  0.01230  1.0000 -0.0899128295
C   C29       1.0  0.97710  0.54150  0.45690  1.0000 0.5408209502
C   C30       1.0  0.02290  0.04150  0.54310  1.0000 0.5408209502
C   C31       1.0  0.52290  0.54150  0.95690  1.0000 0.5408209502
C   C32       1.0  0.47710  0.04150  0.04310  1.0000 0.5408209502
C   C33       1.0  0.32270  0.67540  0.21490  1.0000 -0.0899128295
C   C34       1.0  0.67730  0.17540  0.78510  1.0000 -0.0899128295
C   C35       1.0  0.17730  0.67540  0.71490  1.0000 -0.0899128295
C   C36       1.0  0.82270  0.17540  0.28510  1.0000 -0.0840795323
C   C37       1.0  0.49080  0.78120  0.17970  1.0000 -0.0964594483
C   C38       1.0  0.50920  0.28120  0.82030  1.0000 -0.0964594483
C   C39       1.0  0.00920  0.78120  0.67970  1.0000 -0.0964594483
C   C40       1.0  0.99080  0.28120  0.32030  1.0000 -0.0964594483
C   C41       1.0  0.39160  0.53950  0.27060  1.0000 0.5311876997
C   C42       1.0  0.60840  0.03950  0.72940  1.0000 0.5311876997
C   C43       1.0  0.10840  0.53950  0.77060  1.0000 0.5311876997
C   C44       1.0  0.89160  0.03950  0.22940  1.0000 0.5311876997
C   C45       1.0  0.48030  0.51510  0.41530  1.0000 0.592648381
C   C46       1.0  0.51970  0.01510  0.58470  1.0000 0.592648381
C   C47       1.0  0.01970  0.51510  0.91530  1.0000 0.592648381
C   C48       1.0  0.98030  0.01510  0.08470  1.0000 0.592648381
C   C49       1.0  0.24010  0.81720  0.16440  1.0000 0.5970779002
C   C50       1.0  0.75990  0.31720  0.83560  1.0000 0.5970779002
C   C51       1.0  0.25990  0.81720  0.66440  1.0000 0.5970779002
C   C52       1.0  0.74010  0.31720  0.33560  1.0000 0.5970779002
C   C53       1.0  0.36750  0.57030  0.43940  1.0000 -0.0110011731
C   C54       1.0  0.63250  0.07030  0.56060  1.0000 -0.0110011731
C   C55       1.0  0.13250  0.57030  0.93940  1.0000 -0.0110011731
C   C56       1.0  0.86750  0.07030  0.06060  1.0000 -0.0110011731
C   C57       1.0  0.23100  0.53330  0.43570  1.0000 -0.0899128295
C   C58       1.0  0.76900  0.03330  0.56430  1.0000 -0.0899128295
C   C59       1.0  0.26900  0.53330  0.93570  1.0000 -0.0899128295
C   C60       1.0  0.73100  0.03330  0.06430  1.0000 -0.0899128295
C   C61       1.0  0.29630  0.69940  0.49180  1.0000 -0.0110011731
C   C62       1.0  0.70370  0.19940  0.50820  1.0000 -0.0110011731
C   C63       1.0  0.20370  0.69940  0.99180  1.0000 -0.0110011731
C   C64       1.0  0.79630  0.19940  0.00820  1.0000 -0.0110011731
C   C65       1.0  0.12750  0.57850  0.46020  1.0000 -0.0110011731
C   C66       1.0  0.87250  0.07850  0.53980  1.0000 -0.0110011731
C   C67       1.0  0.37250  0.57850  0.96020  1.0000 -0.0110011731
C   C68       1.0  0.62750  0.07850  0.03980  1.0000 -0.0110011731
C   C69       1.0  0.74870  0.76790  0.19560  1.0000 0.5311876997
C   C70       1.0  0.25130  0.26790  0.80440  1.0000 0.5311876997
C   C71       1.0  0.75130  0.76790  0.69560  1.0000 0.5311876997
C   C72       1.0  0.24870  0.26790  0.30440  1.0000 0.5311876997
O   O1        1.0  0.77790  0.81620  0.16300  1.0000 -0.4334672451
O   O2        1.0  0.22210  0.31620  0.83700  1.0000 -0.4334672451
O   O3        1.0  0.72210  0.81620  0.66300  1.0000 -0.4334672451
O   O4        1.0  0.27790  0.31620  0.33700  1.0000 -0.4334672451
O   O5        1.0  0.27640  0.89560  0.14160  1.0000 -0.5109922275
O   O6        1.0  0.72360  0.39560  0.85840  1.0000 -0.5109922275
O   O7        1.0  0.22360  0.89560  0.64160  1.0000 -0.5109922275
O   O8        1.0  0.77640  0.39560  0.35840  1.0000 -0.5109922275
O   O9        1.0  0.11490  0.78950  0.17230  1.0000 -0.4812879116
O   O10       1.0  0.88510  0.28950  0.82770  1.0000 -0.4812879116
O   O11       1.0  0.38510  0.78950  0.67230  1.0000 -0.4812879116
O   O12       1.0  0.61490  0.28950  0.32770  1.0000 -0.4812879116
O   O13       1.0  0.44600  0.44830  0.38830  1.0000 -0.5109922275
O   O14       1.0  0.55400  0.94830  0.61170  1.0000 -0.5109922275
O   O15       1.0  0.05400  0.44830  0.88830  1.0000 -0.5109922275
O   O16       1.0  0.94600  0.94830  0.11170  1.0000 -0.5109922275
O   O17       1.0  0.49610  0.50120  0.29090  1.0000 -0.4898602525
O   O18       1.0  0.50390  0.00120  0.70910  1.0000 -0.4898602525
O   O19       1.0  0.00390  0.50120  0.79090  1.0000 -0.4812879116
O   O20       1.0  0.99610  0.00120  0.20910  1.0000 -0.4812879116
O   O21       1.0  0.44590  0.83730  0.51850  1.0000 -0.4072985113
O   O22       1.0  0.55410  0.33730  0.48150  1.0000 -0.4072985113
O   O23       1.0  0.05410  0.83730  0.01850  1.0000 -0.4040737212
O   O24       1.0  0.94590  0.33730  0.98150  1.0000 -0.4072985113
O   O25       1.0  0.60530  0.54410  0.42250  1.0000 -0.4812879116
O   O26       1.0  0.39470  0.04410  0.57750  1.0000 -0.4812879116
O   O27       1.0  0.89470  0.54410  0.92250  1.0000 -0.4812879116
O   O28       1.0  0.10530  0.04410  0.07750  1.0000 -0.4812879116
O   O29       1.0  0.94490  0.49350  0.42330  1.0000 -0.4657269378
O   O30       1.0  0.05510  0.99350  0.57670  1.0000 -0.4639699519
O   O31       1.0  0.55510  0.49350  0.92330  1.0000 -0.4657269378
O   O32       1.0  0.44490  0.99350  0.07670  1.0000 -0.4657269378
O   O33       1.0  0.89400  0.56040  0.48480  1.0000 -0.3911892931
O   O34       1.0  0.10600  0.06040  0.51520  1.0000 -0.3911892931
O   O35       1.0  0.60600  0.56040  0.98480  1.0000 -0.3911892931
O   O36       1.0  0.39400  0.06040  0.01520  1.0000 -0.3911892931
O   O37       1.0  0.27070  0.51530  0.27610  1.0000 -0.4040737212
O   O38       1.0  0.72930  0.01530  0.72390  1.0000 -0.4040737212
O   O39       1.0  0.22930  0.51530  0.77610  1.0000 -0.4072985113
O   O40       1.0  0.77070  0.01530  0.22390  1.0000 -0.4072985113
O   O41       1.0  0.24370  0.80450  0.55000  1.0000 -0.4898602525
O   O42       1.0  0.75630  0.30450  0.45000  1.0000 -0.4898602525
O   O43       1.0  0.25630  0.80450  0.05000  1.0000 -0.4898602525
O   O44       1.0  0.74370  0.30450  0.95000  1.0000 -0.4898602525
O   O45       1.0  0.83290  0.75040  0.22290  1.0000 -0.3911892931
O   O46       1.0  0.16710  0.25040  0.77710  1.0000 -0.3911892931
O   O47       1.0  0.66710  0.75040  0.72290  1.0000 -0.3835408301
O   O48       1.0  0.33290  0.25040  0.27710  1.0000 -0.3835408301
