# DDEC6 charges by PACMAN v1.1 (https://github.com/mtap-research/PACMAN-charge/)
data_2014[Cd][pcu]3[FSR]4
_chemical_formula_sum              "Cd6 H72 C68 N60 O4"
_cell_length_a       11.054
_cell_length_b       22.723
_cell_length_c       14.666
_cell_angle_alpha    90
_cell_angle_beta     96.8
_cell_angle_gamma    90

_symmetry_space_group_name_H-M    "P 1"
_symmetry_Int_Tables_number       1

loop_
  _symmetry_equiv_pos_as_xyz
  'x, y, z'

loop_
  _atom_site_type_symbol
  _atom_site_label
  _atom_site_symmetry_multiplicity
  _atom_site_fract_x
  _atom_site_fract_y
  _atom_site_fract_z
  _atom_site_occupancy
  _atom_site_charge
Cd  Cd1       1.0  0.00000  0.00000  0.00000  1.0000 0.6818449451
Cd  Cd2       1.0  0.00000  0.50000  0.50000  1.0000 0.6818449451
Cd  Cd3       1.0  0.86075  0.07545  0.78894  1.0000 0.7313007666
Cd  Cd4       1.0  0.13925  0.57545  0.71106  1.0000 0.7313007666
Cd  Cd5       1.0  0.13925  0.92455  0.21106  1.0000 0.7313007666
Cd  Cd6       1.0  0.86075  0.42455  0.28894  1.0000 0.7313007666
H   H1        1.0  0.90920  0.28750  0.30640  1.0000 0.1009336375
H   H2        1.0  0.09080  0.78750  0.19360  1.0000 0.1009336375
H   H3        1.0  0.09080  0.71250  0.69360  1.0000 0.1009336375
H   H4        1.0  0.90920  0.21250  0.80640  1.0000 0.1009336375
H   H5        1.0  0.92330  0.20200  0.22570  1.0000 0.1394761199
H   H6        1.0  0.07670  0.70200  0.27430  1.0000 0.1394761199
H   H7        1.0  0.07670  0.79800  0.77430  1.0000 0.1394761199
H   H8        1.0  0.92330  0.29800  0.72570  1.0000 0.1394761199
H   H9        1.0  0.83340  0.29310  0.99440  1.0000 0.1311766714
H   H10       1.0  0.16660  0.79310  0.50560  1.0000 0.1311766714
H   H11       1.0  0.16660  0.70690  0.00560  1.0000 0.1311766714
H   H12       1.0  0.83340  0.20690  0.49440  1.0000 0.1311766714
H   H13       1.0  0.82080  0.37570  0.08180  1.0000 0.0928873702
H   H14       1.0  0.17920  0.87570  0.41820  1.0000 0.0928873702
H   H15       1.0  0.17920  0.62430  0.91820  1.0000 0.0928873702
H   H16       1.0  0.82080  0.12430  0.58180  1.0000 0.0928873702
H   H17       1.0  0.66810  0.05970  0.92910  1.0000 0.1009336375
H   H18       1.0  0.33190  0.55970  0.57090  1.0000 0.1009336375
H   H19       1.0  0.33190  0.94030  0.07090  1.0000 0.1009336375
H   H20       1.0  0.66810  0.44030  0.42910  1.0000 0.1009336375
H   H21       1.0  0.46830  0.05370  0.95010  1.0000 0.1394761199
H   H22       1.0  0.53170  0.55370  0.54990  1.0000 0.1394761199
H   H23       1.0  0.53170  0.94630  0.04990  1.0000 0.1452641739
H   H24       1.0  0.46830  0.44630  0.45010  1.0000 0.1394761199
H   H25       1.0  0.38130  0.10310  0.68890  1.0000 0.1311766714
H   H26       1.0  0.61870  0.60310  0.81110  1.0000 0.1311766714
H   H27       1.0  0.61870  0.89690  0.31110  1.0000 0.1311766714
H   H28       1.0  0.38130  0.39690  0.18890  1.0000 0.1311766714
H   H29       1.0  0.58540  0.10500  0.67320  1.0000 0.1009336375
H   H30       1.0  0.41460  0.60500  0.82680  1.0000 0.1009336375
H   H31       1.0  0.41460  0.89500  0.32680  1.0000 0.1009336375
H   H32       1.0  0.58540  0.39500  0.17320  1.0000 0.1009336375
H   H33       1.0  0.79560  0.90390  0.44570  1.0000 0.1186005096
H   H34       1.0  0.20440  0.40390  0.05430  1.0000 0.1186005096
H   H35       1.0  0.20440  0.09610  0.55430  1.0000 0.1186005096
H   H36       1.0  0.79560  0.59610  0.94570  1.0000 0.1186005096
H   H37       1.0  0.89380  0.94590  0.41040  1.0000 0.1186005096
H   H38       1.0  0.10620  0.44590  0.08960  1.0000 0.1186005096
H   H39       1.0  0.10620  0.05410  0.58960  1.0000 0.1186005096
H   H40       1.0  0.89380  0.55410  0.91040  1.0000 0.1186005096
H   H41       1.0  0.03150  0.91280  0.51440  1.0000 0.1009336375
H   H42       1.0  0.96850  0.41280  0.98560  1.0000 0.1009336375
H   H43       1.0  0.96850  0.08720  0.48560  1.0000 0.1009336375
H   H44       1.0  0.03150  0.58720  0.01440  1.0000 0.1009336375
H   H45       1.0  0.93550  0.86780  0.54510  1.0000 0.1186005096
H   H46       1.0  0.06450  0.36780  0.95490  1.0000 0.1186005096
H   H47       1.0  0.06450  0.13220  0.45490  1.0000 0.1186005096
H   H48       1.0  0.93550  0.63220  0.04510  1.0000 0.1186005096
H   H49       1.0  0.68330  0.00660  0.40910  1.0000 0.1311766714
H   H50       1.0  0.31670  0.50660  0.09090  1.0000 0.1311766714
H   H51       1.0  0.31670  0.99340  0.59090  1.0000 0.1311766714
H   H52       1.0  0.68330  0.49340  0.90910  1.0000 0.1311766714
H   H53       1.0  0.63540  0.00670  0.50550  1.0000 0.1311766714
H   H54       1.0  0.36460  0.50670  0.99450  1.0000 0.1311766714
H   H55       1.0  0.36460  0.99330  0.49450  1.0000 0.1311766714
H   H56       1.0  0.63540  0.49330  0.00550  1.0000 0.1311766714
H   H57       1.0  0.72140  0.05730  0.47920  1.0000 0.1186005096
H   H58       1.0  0.27860  0.55730  0.02080  1.0000 0.1186005096
H   H59       1.0  0.27860  0.94270  0.52080  1.0000 0.1186005096
H   H60       1.0  0.72140  0.44270  0.97920  1.0000 0.1186005096
H   H61       1.0  0.06620  0.90180  0.69450  1.0000 0.1311766714
H   H62       1.0  0.93380  0.40180  0.80550  1.0000 0.1311766714
H   H63       1.0  0.93380  0.09820  0.30550  1.0000 0.1311766714
H   H64       1.0  0.06620  0.59820  0.19450  1.0000 0.1311766714
H   H65       1.0  0.06040  0.96920  0.71620  1.0000 0.1311766714
H   H66       1.0  0.93960  0.46920  0.78380  1.0000 0.1311766714
H   H67       1.0  0.93960  0.03080  0.28380  1.0000 0.1311766714
H   H68       1.0  0.06040  0.53080  0.21620  1.0000 0.1311766714
H   H69       1.0  0.96110  0.92660  0.74640  1.0000 0.1394761199
H   H70       1.0  0.03890  0.42660  0.75360  1.0000 0.1394761199
H   H71       1.0  0.03890  0.07340  0.25360  1.0000 0.1394761199
H   H72       1.0  0.96110  0.57340  0.24640  1.0000 0.1394761199
C   C1        1.0  0.89430  0.28857  0.24270  1.0000 0.075655262
C   C2        1.0  0.10570  0.78857  0.25730  1.0000 0.075655262
C   C3        1.0  0.10570  0.71143  0.75730  1.0000 0.075655262
C   C4        1.0  0.89430  0.21143  0.74270  1.0000 0.075655262
C   C5        1.0  0.90330  0.23700  0.19470  1.0000 -0.1844420479
C   C6        1.0  0.09670  0.73700  0.30530  1.0000 -0.1892309533
C   C7        1.0  0.09670  0.76300  0.80530  1.0000 -0.1892309533
C   C8        1.0  0.90330  0.26300  0.69470  1.0000 -0.1844420479
C   C9        1.0  0.88240  0.23790  0.09987  1.0000 0.0928873702
C   C10       1.0  0.11760  0.73790  0.40013  1.0000 0.0928873702
C   C11       1.0  0.11760  0.76210  0.90013  1.0000 0.0928873702
C   C12       1.0  0.88240  0.26210  0.59987  1.0000 0.0928873702
C   C13       1.0  0.85000  0.29089  0.05790  1.0000 -0.1892309533
C   C14       1.0  0.15000  0.79089  0.44210  1.0000 -0.1960776768
C   C15       1.0  0.15000  0.70911  0.94210  1.0000 -0.1960776768
C   C16       1.0  0.85000  0.20911  0.55790  1.0000 -0.1892309533
C   C17       1.0  0.84260  0.34032  0.11100  1.0000 0.0617105766
C   C18       1.0  0.15740  0.84032  0.38900  1.0000 0.0617105766
C   C19       1.0  0.15740  0.65968  0.88900  1.0000 0.0617105766
C   C20       1.0  0.84260  0.15968  0.61100  1.0000 0.0617105766
C   C21       1.0  0.89280  0.18402  0.04684  1.0000 0.2186077321
C   C22       1.0  0.10720  0.68402  0.45316  1.0000 0.2186077321
C   C23       1.0  0.10720  0.81598  0.95316  1.0000 0.2186077321
C   C24       1.0  0.89280  0.31598  0.54684  1.0000 0.2186077321
C   C25       1.0  0.60970  0.06745  0.87960  1.0000 0.0676313146
C   C26       1.0  0.39030  0.56745  0.62040  1.0000 0.0676313146
C   C27       1.0  0.39030  0.93255  0.12040  1.0000 0.0676313146
C   C28       1.0  0.60970  0.43255  0.37960  1.0000 0.0676313146
C   C29       1.0  0.48990  0.06404  0.89280  1.0000 -0.1699711838
C   C30       1.0  0.51010  0.56404  0.60720  1.0000 -0.1699711838
C   C31       1.0  0.51010  0.93596  0.10720  1.0000 -0.1699711838
C   C32       1.0  0.48990  0.43596  0.39280  1.0000 -0.1699711838
C   C33       1.0  0.39980  0.07602  0.82040  1.0000 0.0928873702
C   C34       1.0  0.60020  0.57602  0.67960  1.0000 0.0928873702
C   C35       1.0  0.60020  0.92398  0.17960  1.0000 0.0928873702
C   C36       1.0  0.39980  0.42398  0.32040  1.0000 0.0928873702
C   C37       1.0  0.43800  0.09284  0.73830  1.0000 -0.1960776768
C   C38       1.0  0.56200  0.59284  0.76170  1.0000 -0.1960776768
C   C39       1.0  0.56200  0.90716  0.26170  1.0000 -0.1960776768
C   C40       1.0  0.43800  0.40716  0.23830  1.0000 -0.1960776768
C   C41       1.0  0.56150  0.09440  0.72960  1.0000 0.075655262
C   C42       1.0  0.43850  0.59440  0.77040  1.0000 0.075655262
C   C43       1.0  0.43850  0.90560  0.27040  1.0000 0.075655262
C   C44       1.0  0.56150  0.40560  0.22960  1.0000 0.075655262
C   C45       1.0  0.27160  0.06833  0.83464  1.0000 0.2186077321
C   C46       1.0  0.72840  0.56833  0.66536  1.0000 0.2186077321
C   C47       1.0  0.72840  0.93167  0.16536  1.0000 0.2186077321
C   C48       1.0  0.27160  0.43167  0.33464  1.0000 0.2186077321
C   C49       1.0  0.85590  0.98621  0.59760  1.0000 0.4729460432
C   C50       1.0  0.14410  0.48621  0.90240  1.0000 0.4729460432
C   C51       1.0  0.14410  0.01379  0.40240  1.0000 0.4729460432
C   C52       1.0  0.85590  0.51379  0.09760  1.0000 0.4729460432
C   C53       1.0  0.85790  0.93300  0.46420  1.0000 -0.1568107949
C   C54       1.0  0.14210  0.43300  0.03580  1.0000 -0.1568107949
C   C55       1.0  0.14210  0.06700  0.53580  1.0000 -0.1568107949
C   C56       1.0  0.85790  0.56700  0.96420  1.0000 -0.1568107949
C   C57       1.0  0.95090  0.90900  0.53370  1.0000 -0.143996329
C   C58       1.0  0.04910  0.40900  0.96630  1.0000 -0.143996329
C   C59       1.0  0.04910  0.09100  0.46630  1.0000 -0.143996329
C   C60       1.0  0.95090  0.59100  0.03370  1.0000 -0.143996329
C   C61       1.0  0.70330  0.01610  0.47290  1.0000 -0.3123079659
C   C62       1.0  0.29670  0.51610  0.02710  1.0000 -0.3123079659
C   C63       1.0  0.29670  0.98390  0.52710  1.0000 -0.3123079659
C   C64       1.0  0.70330  0.48390  0.97290  1.0000 -0.3123079659
C   C65       1.0  0.01290  0.93460  0.69980  1.0000 -0.3123079659
C   C66       1.0  0.98710  0.43460  0.80020  1.0000 -0.3123079659
C   C67       1.0  0.98710  0.06540  0.30020  1.0000 -0.3123079659
C   C68       1.0  0.01290  0.56540  0.19980  1.0000 -0.3123079659
N   N1        1.0  0.86520  0.34004  0.20208  1.0000 -0.2141109155
N   N2        1.0  0.13480  0.84004  0.29792  1.0000 -0.2151720272
N   N3        1.0  0.13480  0.65996  0.79792  1.0000 -0.2151720272
N   N4        1.0  0.86520  0.15996  0.70208  1.0000 -0.2141109155
N   N5        1.0  0.93040  0.13258  0.08311  1.0000 -0.2510005692
N   N6        1.0  0.06960  0.63258  0.41689  1.0000 -0.2510005692
N   N7        1.0  0.06960  0.86742  0.91689  1.0000 -0.2510005692
N   N8        1.0  0.93040  0.36742  0.58311  1.0000 -0.2510005692
N   N9        1.0  0.92660  0.09679  0.01201  1.0000 -0.0508784065
N   N10       1.0  0.07340  0.59679  0.48799  1.0000 -0.0508784065
N   N11       1.0  0.07340  0.90321  0.98799  1.0000 -0.0508784065
N   N12       1.0  0.92660  0.40321  0.51201  1.0000 -0.0508784065
N   N13       1.0  0.88710  0.12547  0.93583  1.0000 -0.0688891606
N   N14       1.0  0.11290  0.62547  0.56417  1.0000 -0.0688891606
N   N15       1.0  0.11290  0.87453  0.06417  1.0000 -0.0688891606
N   N16       1.0  0.88710  0.37453  0.43583  1.0000 -0.0688891606
N   N17       1.0  0.86580  0.18099  0.95622  1.0000 -0.2799195768
N   N18       1.0  0.13420  0.68099  0.54378  1.0000 -0.2799195768
N   N19       1.0  0.13420  0.81901  0.04378  1.0000 -0.2799195768
N   N20       1.0  0.86580  0.31901  0.45622  1.0000 -0.2799195768
N   N21       1.0  0.64790  0.08144  0.79818  1.0000 -0.2256458075
N   N22       1.0  0.35210  0.58144  0.70182  1.0000 -0.2256458075
N   N23       1.0  0.35210  0.91856  0.20182  1.0000 -0.2256458075
N   N24       1.0  0.64790  0.41856  0.29818  1.0000 -0.2256458075
N   N25       1.0  0.23880  0.04084  0.90770  1.0000 -0.2579954834
N   N26       1.0  0.76120  0.54084  0.59230  1.0000 -0.2579954834
N   N27       1.0  0.76120  0.95916  0.09230  1.0000 -0.2579954834
N   N28       1.0  0.23880  0.45916  0.40770  1.0000 -0.2579954834
N   N29       1.0  0.11880  0.04101  0.89517  1.0000 -0.0508784065
N   N30       1.0  0.88120  0.54101  0.60483  1.0000 -0.0508784065
N   N31       1.0  0.88120  0.95899  0.10483  1.0000 -0.0508784065
N   N32       1.0  0.11880  0.45899  0.39517  1.0000 -0.0508784065
N   N33       1.0  0.07980  0.06808  0.81757  1.0000 -0.0688891606
N   N34       1.0  0.92020  0.56808  0.68243  1.0000 -0.0688891606
N   N35       1.0  0.92020  0.93192  0.18243  1.0000 -0.0688891606
N   N36       1.0  0.07980  0.43192  0.31757  1.0000 -0.0688891606
N   N37       1.0  0.17540  0.08596  0.77706  1.0000 -0.2799195768
N   N38       1.0  0.82460  0.58596  0.72294  1.0000 -0.2799195768
N   N39       1.0  0.82460  0.91404  0.22294  1.0000 -0.2799195768
N   N40       1.0  0.17540  0.41404  0.27706  1.0000 -0.2799195768
N   N41       1.0  0.85730  0.99138  0.87474  1.0000 -0.5484395968
N   N42       1.0  0.14270  0.49138  0.62526  1.0000 -0.5484395968
N   N43       1.0  0.14270  0.00862  0.12526  1.0000 -0.5484395968
N   N44       1.0  0.85730  0.50862  0.37474  1.0000 -0.5484395968
N   N45       1.0  0.78100  0.95485  0.86530  1.0000 0.427252884
N   N46       1.0  0.21900  0.45485  0.63470  1.0000 0.427252884
N   N47       1.0  0.21900  0.04515  0.13470  1.0000 0.427252884
N   N48       1.0  0.78100  0.54515  0.36530  1.0000 0.427252884
N   N49       1.0  0.70690  0.91990  0.85660  1.0000 -0.3345576571
N   N50       1.0  0.29310  0.41990  0.64340  1.0000 -0.3357696431
N   N51       1.0  0.29310  0.08010  0.14340  1.0000 -0.3345576571
N   N52       1.0  0.70690  0.58010  0.35660  1.0000 -0.3357696431
N   N53       1.0  0.94020  0.94398  0.61440  1.0000 -0.0944850044
N   N54       1.0  0.05980  0.44398  0.88560  1.0000 -0.0944850044
N   N55       1.0  0.05980  0.05602  0.38560  1.0000 -0.0944850044
N   N56       1.0  0.94020  0.55602  0.11440  1.0000 -0.0944850044
N   N57       1.0  0.80690  0.98271  0.50980  1.0000 -0.1078759478
N   N58       1.0  0.19310  0.48271  0.99020  1.0000 -0.1078759478
N   N59       1.0  0.19310  0.01729  0.49020  1.0000 -0.1078759478
N   N60       1.0  0.80690  0.51729  0.00980  1.0000 -0.1078759478
O   O1        1.0  0.82770  0.02356  0.65239  1.0000 -0.5484395968
O   O2        1.0  0.17230  0.52356  0.84761  1.0000 -0.5484395968
O   O3        1.0  0.17230  0.97644  0.34761  1.0000 -0.5484395968
O   O4        1.0  0.82770  0.47644  0.15239  1.0000 -0.5484395968
