# DDEC6 charges by PACMAN v1.1 (https://github.com/mtap-research/PACMAN-charge/)
data_2014[Zn][nan]3[FSR]13
_chemical_formula_sum              "Zn20 P20 H68 C72 N20 O80"
_cell_length_a       5.1242
_cell_length_b       25.0641
_cell_length_c       27.5836
_cell_angle_alpha    90
_cell_angle_beta     99.7645
_cell_angle_gamma    90

_symmetry_space_group_name_H-M    "P 1"
_symmetry_Int_Tables_number       1

loop_
  _symmetry_equiv_pos_as_xyz
  'x, y, z'

loop_
  _atom_site_type_symbol
  _atom_site_label
  _atom_site_symmetry_multiplicity
  _atom_site_fract_x
  _atom_site_fract_y
  _atom_site_fract_z
  _atom_site_occupancy
  _atom_site_charge
Zn  Zn1       1.0  0.95756  0.28725  0.36119  1.0000 0.9681520429
Zn  Zn2       1.0  0.04244  0.78725  0.13881  1.0000 0.9681520429
Zn  Zn3       1.0  0.04244  0.71275  0.63881  1.0000 0.9681520429
Zn  Zn4       1.0  0.95756  0.21275  0.86119  1.0000 0.9681520429
Zn  Zn5       1.0  0.47779  0.10867  0.37489  1.0000 1.053866681
Zn  Zn6       1.0  0.52221  0.60867  0.12511  1.0000 1.053866681
Zn  Zn7       1.0  0.52221  0.89133  0.62511  1.0000 1.053866681
Zn  Zn8       1.0  0.47779  0.39133  0.87489  1.0000 1.053866681
Zn  Zn9       1.0  0.01769  0.06007  0.28323  1.0000 1.0731852915
Zn  Zn10      1.0  0.98231  0.56007  0.21677  1.0000 1.0731852915
Zn  Zn11      1.0  0.98231  0.93993  0.71677  1.0000 1.0731852915
Zn  Zn12      1.0  0.01769  0.43993  0.78323  1.0000 1.0731852915
Zn  Zn13      1.0  0.38377  0.96038  0.21156  1.0000 1.0973145034
Zn  Zn14      1.0  0.61623  0.46038  0.28844  1.0000 1.0973145034
Zn  Zn15      1.0  0.61623  0.03962  0.78844  1.0000 1.0973145034
Zn  Zn16      1.0  0.38377  0.53962  0.71156  1.0000 1.0973145034
Zn  Zn17      1.0  0.70122  0.00086  0.43441  1.0000 1.0577057268
Zn  Zn18      1.0  0.29878  0.50086  0.06559  1.0000 1.0577057268
Zn  Zn19      1.0  0.29878  0.99914  0.56559  1.0000 1.0577057268
Zn  Zn20      1.0  0.70122  0.49914  0.93441  1.0000 1.0577057268
P   P1        1.0  0.94966  0.16511  0.34126  1.0000 1.5200762119
P   P2        1.0  0.05034  0.66511  0.15874  1.0000 1.5200762119
P   P3        1.0  0.05034  0.83489  0.65874  1.0000 1.5200762119
P   P4        1.0  0.94966  0.33489  0.84126  1.0000 1.5200762119
P   P5        1.0  0.87256  0.01981  0.17576  1.0000 1.5492313714
P   P6        1.0  0.12744  0.51981  0.32424  1.0000 1.5492313714
P   P7        1.0  0.12744  0.98019  0.82424  1.0000 1.5492313714
P   P8        1.0  0.87256  0.48019  0.67576  1.0000 1.5492313714
P   P9        1.0  0.57928  0.85701  0.16108  1.0000 1.5492313714
P   P10       1.0  0.42072  0.35701  0.33892  1.0000 1.5492313714
P   P11       1.0  0.42072  0.14299  0.83892  1.0000 1.5492313714
P   P12       1.0  0.57928  0.64299  0.66108  1.0000 1.5446926619
P   P13       1.0  0.53115  0.00071  0.32035  1.0000 1.5291116502
P   P14       1.0  0.46885  0.50071  0.17965  1.0000 1.5291116502
P   P15       1.0  0.46885  0.99929  0.67965  1.0000 1.5291116502
P   P16       1.0  0.53115  0.49929  0.82035  1.0000 1.5291116502
P   P17       1.0  0.74555  0.93658  0.53235  1.0000 1.5492313714
P   P18       1.0  0.25445  0.43658  0.96765  1.0000 1.5492313714
P   P19       1.0  0.25445  0.06342  0.46765  1.0000 1.5492313714
P   P20       1.0  0.74555  0.56342  0.03235  1.0000 1.5492313714
H   H1        1.0  0.90750  0.07070  0.10960  1.0000 0.4081923853
H   H2        1.0  0.09250  0.57070  0.39040  1.0000 0.4081923853
H   H3        1.0  0.09250  0.92930  0.89040  1.0000 0.4081923853
H   H4        1.0  0.90750  0.42930  0.60960  1.0000 0.4081923853
H   H5        1.0  0.61750  0.91690  0.09830  1.0000 0.4330305275
H   H6        1.0  0.38250  0.41690  0.40170  1.0000 0.4330305275
H   H7        1.0  0.38250  0.08310  0.90170  1.0000 0.4330305275
H   H8        1.0  0.61750  0.58310  0.59830  1.0000 0.4330305275
H   H9        1.0  0.67400  0.20510  0.68230  1.0000 0.3004410531
H   H10       1.0  0.32600  0.70510  0.81770  1.0000 0.3004410531
H   H11       1.0  0.32600  0.79490  0.31770  1.0000 0.3004410531
H   H12       1.0  0.67400  0.29490  0.18230  1.0000 0.3004410531
H   H13       1.0  0.60020  0.34560  0.75410  1.0000 0.3082709338
H   H14       1.0  0.39980  0.84560  0.74590  1.0000 0.3154151406
H   H15       1.0  0.39980  0.65440  0.24590  1.0000 0.3154151406
H   H16       1.0  0.60020  0.15440  0.25410  1.0000 0.3154151406
H   H17       1.0  0.76020  0.07130  0.62200  1.0000 0.3082709338
H   H18       1.0  0.23980  0.57130  0.87800  1.0000 0.3082709338
H   H19       1.0  0.23980  0.92870  0.37800  1.0000 0.3082709338
H   H20       1.0  0.76020  0.42870  0.12200  1.0000 0.3082709338
H   H21       1.0  0.43960  0.23390  0.41850  1.0000 0.1408389922
H   H22       1.0  0.56040  0.73390  0.08150  1.0000 0.1408389922
H   H23       1.0  0.56040  0.76610  0.58150  1.0000 0.1408389922
H   H24       1.0  0.43960  0.26610  0.91850  1.0000 0.1408389922
H   H25       1.0  0.62110  0.21350  0.49720  1.0000 0.1563412492
H   H26       1.0  0.37890  0.71350  0.00280  1.0000 0.1563412492
H   H27       1.0  0.37890  0.78650  0.50280  1.0000 0.1563412492
H   H28       1.0  0.62110  0.28650  0.99720  1.0000 0.1563412492
H   H29       1.0  0.06180  0.29980  0.54370  1.0000 0.1408389922
H   H30       1.0  0.93820  0.79980  0.95630  1.0000 0.1408389922
H   H31       1.0  0.93820  0.70020  0.45630  1.0000 0.1408389922
H   H32       1.0  0.06180  0.20020  0.04370  1.0000 0.1408389922
H   H33       1.0  0.88320  0.31660  0.46220  1.0000 0.1190628313
H   H34       1.0  0.11680  0.81660  0.03780  1.0000 0.1190628313
H   H35       1.0  0.11680  0.68340  0.53780  1.0000 0.1190628313
H   H36       1.0  0.88320  0.18340  0.96220  1.0000 0.1190628313
H   H37       1.0  0.10520  0.34460  0.62610  1.0000 0.1342990066
H   H38       1.0  0.89480  0.84460  0.87390  1.0000 0.1342990066
H   H39       1.0  0.89480  0.65540  0.37390  1.0000 0.1342990066
H   H40       1.0  0.10520  0.15540  0.12610  1.0000 0.1342990066
H   H41       1.0  0.46870  0.38020  0.67590  1.0000 0.1408389922
H   H42       1.0  0.53130  0.88020  0.82410  1.0000 0.1408389922
H   H43       1.0  0.53130  0.61980  0.32410  1.0000 0.1408389922
H   H44       1.0  0.46870  0.11980  0.17590  1.0000 0.1408389922
H   H45       1.0  0.39260  0.27960  0.78230  1.0000 0.152260117
H   H46       1.0  0.60740  0.77960  0.71770  1.0000 0.152260117
H   H47       1.0  0.60740  0.72040  0.21770  1.0000 0.152260117
H   H48       1.0  0.39260  0.22040  0.28230  1.0000 0.152260117
H   H49       1.0  0.01970  0.24200  0.73620  1.0000 0.1563412492
H   H50       1.0  0.98030  0.74200  0.76380  1.0000 0.152260117
H   H51       1.0  0.98030  0.75800  0.26380  1.0000 0.1563412492
H   H52       1.0  0.01970  0.25800  0.23620  1.0000 0.1563412492
H   H53       1.0  0.33990  0.15710  0.69430  1.0000 0.152260117
H   H54       1.0  0.66010  0.65710  0.80570  1.0000 0.152260117
H   H55       1.0  0.66010  0.84290  0.30570  1.0000 0.152260117
H   H56       1.0  0.33990  0.34290  0.19430  1.0000 0.152260117
H   H57       1.0  0.01430  0.09420  0.69720  1.0000 0.152260117
H   H58       1.0  0.98570  0.59420  0.80280  1.0000 0.1563412492
H   H59       1.0  0.98570  0.90580  0.30280  1.0000 0.1563412492
H   H60       1.0  0.01430  0.40580  0.19720  1.0000 0.1563412492
H   H61       1.0  0.79750  0.10200  0.55380  1.0000 0.152260117
H   H62       1.0  0.20250  0.60200  0.94620  1.0000 0.152260117
H   H63       1.0  0.20250  0.89800  0.44620  1.0000 0.152260117
H   H64       1.0  0.79750  0.39800  0.05380  1.0000 0.152260117
H   H65       1.0  0.11380  0.16590  0.54780  1.0000 0.1563412492
H   H66       1.0  0.88620  0.66590  0.95220  1.0000 0.1563412492
H   H67       1.0  0.88620  0.83410  0.45220  1.0000 0.1563412492
H   H68       1.0  0.11380  0.33410  0.04780  1.0000 0.1563412492
C   C1        1.0  0.35870  0.24680  0.44390  1.0000 0.1190628313
C   C2        1.0  0.64130  0.74680  0.05610  1.0000 0.1190628313
C   C3        1.0  0.64130  0.75320  0.55610  1.0000 0.1190628313
C   C4        1.0  0.35870  0.25320  0.94390  1.0000 0.1190628313
C   C5        1.0  0.47160  0.23510  0.49110  1.0000 -0.1541164328
C   C6        1.0  0.52840  0.73510  0.00890  1.0000 -0.1541164328
C   C7        1.0  0.52840  0.76490  0.50890  1.0000 -0.1541164328
C   C8        1.0  0.47160  0.26490  0.99110  1.0000 -0.1541164328
C   C9        1.0  0.36430  0.25530  0.52950  1.0000 0.1072747673
C   C10       1.0  0.63570  0.75530  0.97050  1.0000 0.1072747673
C   C11       1.0  0.63570  0.74470  0.47050  1.0000 0.1072747673
C   C12       1.0  0.36430  0.24470  0.02950  1.0000 0.1072747673
C   C13       1.0  0.14160  0.28570  0.51870  1.0000 -0.1740185951
C   C14       1.0  0.85840  0.78570  0.98130  1.0000 -0.1740185951
C   C15       1.0  0.85840  0.71430  0.48130  1.0000 -0.1740185951
C   C16       1.0  0.14160  0.21430  0.01870  1.0000 -0.1740185951
C   C17       1.0  0.03400  0.29540  0.46930  1.0000 0.0893157219
C   C18       1.0  0.96600  0.79540  0.03070  1.0000 0.0893157219
C   C19       1.0  0.96600  0.70460  0.53070  1.0000 0.0893157219
C   C20       1.0  0.03400  0.20460  0.96930  1.0000 0.0893157219
C   C21       1.0  0.49630  0.24670  0.58100  1.0000 0.0810855929
C   C22       1.0  0.50370  0.74670  0.91900  1.0000 0.0810855929
C   C23       1.0  0.50370  0.75330  0.41900  1.0000 0.0810855929
C   C24       1.0  0.49630  0.25330  0.08100  1.0000 0.0810855929
C   C25       1.0  0.79190  0.26510  0.64430  1.0000 0.2836776193
C   C26       1.0  0.20810  0.76510  0.85570  1.0000 0.2836776193
C   C27       1.0  0.20810  0.73490  0.35570  1.0000 0.2836776193
C   C28       1.0  0.79190  0.23490  0.14430  1.0000 0.2836776193
C   C29       1.0  0.45540  0.21180  0.61900  1.0000 0.0592315583
C   C30       1.0  0.54460  0.71180  0.88100  1.0000 0.0592315583
C   C31       1.0  0.54460  0.78820  0.38100  1.0000 0.0592315583
C   C32       1.0  0.45540  0.28820  0.11900  1.0000 0.0592315583
C   C33       1.0  0.02180  0.28890  0.67560  1.0000 0.0700784627
C   C34       1.0  0.97820  0.78890  0.82440  1.0000 0.0700784627
C   C35       1.0  0.97820  0.71110  0.32440  1.0000 0.0700784627
C   C36       1.0  0.02180  0.21110  0.17560  1.0000 0.0700784627
C   C37       1.0  0.16070  0.33110  0.65760  1.0000 -0.1740185951
C   C38       1.0  0.83930  0.83110  0.84240  1.0000 -0.1740185951
C   C39       1.0  0.83930  0.66890  0.34240  1.0000 -0.1740185951
C   C40       1.0  0.16070  0.16890  0.15760  1.0000 -0.1740185951
C   C41       1.0  0.37770  0.35190  0.68720  1.0000 0.1008765279
C   C42       1.0  0.62230  0.85190  0.81280  1.0000 0.1008765279
C   C43       1.0  0.62230  0.64810  0.31280  1.0000 0.1008765279
C   C44       1.0  0.37770  0.14810  0.18720  1.0000 0.1008765279
C   C45       1.0  0.33150  0.29220  0.75060  1.0000 0.1190628313
C   C46       1.0  0.66850  0.79220  0.74940  1.0000 0.1190628313
C   C47       1.0  0.66850  0.70780  0.24940  1.0000 0.1190628313
C   C48       1.0  0.33150  0.20780  0.25060  1.0000 0.1190628313
C   C49       1.0  0.10940  0.26940  0.72340  1.0000 -0.1794521879
C   C50       1.0  0.89060  0.76940  0.77660  1.0000 -0.1794521879
C   C51       1.0  0.89060  0.73060  0.27660  1.0000 -0.1794521879
C   C52       1.0  0.10940  0.23060  0.22340  1.0000 -0.1794521879
C   C53       1.0  0.25890  0.17060  0.62090  1.0000 0.1008765279
C   C54       1.0  0.74110  0.67060  0.87910  1.0000 0.1008765279
C   C55       1.0  0.74110  0.82940  0.37910  1.0000 0.1008765279
C   C56       1.0  0.25890  0.32940  0.12090  1.0000 0.1008765279
C   C57       1.0  0.22880  0.14710  0.66550  1.0000 -0.1942751293
C   C58       1.0  0.77120  0.64710  0.83450  1.0000 -0.1942751293
C   C59       1.0  0.77120  0.85290  0.33450  1.0000 -0.1942751293
C   C60       1.0  0.22880  0.35290  0.16550  1.0000 -0.1942751293
C   C61       1.0  0.03580  0.10910  0.66720  1.0000 0.1008765279
C   C62       1.0  0.96420  0.60910  0.83280  1.0000 0.1008765279
C   C63       1.0  0.96420  0.89090  0.33280  1.0000 0.1008765279
C   C64       1.0  0.03580  0.39090  0.16720  1.0000 0.1008765279
C   C65       1.0  0.90700  0.11390  0.58210  1.0000 0.0893157219
C   C66       1.0  0.09300  0.61390  0.91790  1.0000 0.0893157219
C   C67       1.0  0.09300  0.88610  0.41790  1.0000 0.1008765279
C   C68       1.0  0.90700  0.38610  0.08210  1.0000 0.0893157219
C   C69       1.0  0.09560  0.15230  0.57850  1.0000 -0.1566651497
C   C70       1.0  0.90440  0.65230  0.92150  1.0000 -0.1566651497
C   C71       1.0  0.90440  0.84770  0.42150  1.0000 -0.1566651497
C   C72       1.0  0.09560  0.34770  0.07850  1.0000 -0.1566651497
N   N1        1.0  0.13940  0.27560  0.43210  1.0000 -0.2231237773
N   N2        1.0  0.86060  0.77560  0.06790  1.0000 -0.2231237773
N   N3        1.0  0.86060  0.72440  0.56790  1.0000 -0.2231237773
N   N4        1.0  0.13940  0.22440  0.93210  1.0000 -0.2231237773
N   N5        1.0  0.70460  0.27980  0.59790  1.0000 -0.3823119883
N   N6        1.0  0.29540  0.77980  0.90210  1.0000 -0.3823119883
N   N7        1.0  0.29540  0.72020  0.40210  1.0000 -0.3823119883
N   N8        1.0  0.70460  0.22020  0.09790  1.0000 -0.3823119883
N   N9        1.0  0.64936  0.22424  0.65836  1.0000 -0.2700423483
N   N10       1.0  0.35064  0.72424  0.84164  1.0000 -0.2700423483
N   N11       1.0  0.35064  0.77576  0.34164  1.0000 -0.2700423483
N   N12       1.0  0.64936  0.27576  0.15836  1.0000 -0.2700423483
N   N13       1.0  0.46160  0.33180  0.73270  1.0000 -0.1140325997
N   N14       1.0  0.53840  0.83180  0.76730  1.0000 -0.1140325997
N   N15       1.0  0.53840  0.66820  0.26730  1.0000 -0.1140325997
N   N16       1.0  0.46160  0.16820  0.23270  1.0000 -0.1140325997
N   N17       1.0  0.87970  0.09380  0.62570  1.0000 -0.0828069035
N   N18       1.0  0.12030  0.59380  0.87430  1.0000 -0.0828069035
N   N19       1.0  0.12030  0.90620  0.37430  1.0000 -0.0828069035
N   N20       1.0  0.87970  0.40620  0.12570  1.0000 -0.0828069035
O   O1        1.0  0.83029  0.22043  0.33139  1.0000 -0.7938499981
O   O2        1.0  0.16971  0.72043  0.16861  1.0000 -0.7984028899
O   O3        1.0  0.16971  0.77957  0.66861  1.0000 -0.7984028899
O   O4        1.0  0.83029  0.27957  0.83139  1.0000 -0.7984028899
O   O5        1.0  0.88197  0.13206  0.29357  1.0000 -0.820382334
O   O6        1.0  0.11803  0.63206  0.20643  1.0000 -0.820382334
O   O7        1.0  0.11803  0.86794  0.70643  1.0000 -0.820382334
O   O8        1.0  0.88197  0.36794  0.79357  1.0000 -0.820382334
O   O9        1.0  0.83176  0.13641  0.38256  1.0000 -0.7693781886
O   O10       1.0  0.16824  0.63641  0.11744  1.0000 -0.7693781886
O   O11       1.0  0.16824  0.86359  0.61744  1.0000 -0.7693781886
O   O12       1.0  0.83176  0.36359  0.88256  1.0000 -0.7693781886
O   O13       1.0  0.24883  0.16812  0.35783  1.0000 -0.8100134622
O   O14       1.0  0.75117  0.66812  0.14217  1.0000 -0.8100134622
O   O15       1.0  0.75117  0.83188  0.64217  1.0000 -0.8100134622
O   O16       1.0  0.24883  0.33188  0.85783  1.0000 -0.8100134622
O   O17       1.0  0.02091  0.05720  0.21401  1.0000 -0.820382334
O   O18       1.0  0.97909  0.55720  0.28599  1.0000 -0.820382334
O   O19       1.0  0.97909  0.94280  0.78599  1.0000 -0.820382334
O   O20       1.0  0.02091  0.44280  0.71401  1.0000 -0.820382334
O   O21       1.0  0.85985  0.04670  0.12375  1.0000 -0.6218873147
O   O22       1.0  0.14015  0.54670  0.37625  1.0000 -0.6218873147
O   O23       1.0  0.14015  0.95330  0.87625  1.0000 -0.6218873147
O   O24       1.0  0.85985  0.45330  0.62375  1.0000 -0.6218873147
O   O25       1.0  0.01939  0.96652  0.17479  1.0000 -0.7567331974
O   O26       1.0  0.98061  0.46652  0.32521  1.0000 -0.7567331974
O   O27       1.0  0.98061  0.03348  0.82521  1.0000 -0.7567331974
O   O28       1.0  0.01939  0.53348  0.67479  1.0000 -0.7567331974
O   O29       1.0  0.58547  0.01209  0.18117  1.0000 -0.8100134622
O   O30       1.0  0.41453  0.51209  0.31883  1.0000 -0.8100134622
O   O31       1.0  0.41453  0.98791  0.81883  1.0000 -0.8100134622
O   O32       1.0  0.58547  0.48791  0.68117  1.0000 -0.8100134622
O   O33       1.0  0.69270  0.89680  0.12550  1.0000 -0.6886759732
O   O34       1.0  0.30730  0.39680  0.37450  1.0000 -0.6886759732
O   O35       1.0  0.30730  0.10320  0.87450  1.0000 -0.6886759732
O   O36       1.0  0.69270  0.60320  0.62550  1.0000 -0.6886759732
O   O37       1.0  0.33420  0.83325  0.13000  1.0000 -0.820382334
O   O38       1.0  0.66580  0.33325  0.37000  1.0000 -0.820382334
O   O39       1.0  0.66580  0.16675  0.87000  1.0000 -0.820382334
O   O40       1.0  0.33420  0.66675  0.63000  1.0000 -0.820382334
O   O41       1.0  0.79041  0.81499  0.17841  1.0000 -0.7938499981
O   O42       1.0  0.20959  0.31499  0.32159  1.0000 -0.7938499981
O   O43       1.0  0.20959  0.18501  0.82159  1.0000 -0.7938499981
O   O44       1.0  0.79041  0.68501  0.67841  1.0000 -0.7938499981
O   O45       1.0  0.51849  0.88768  0.20539  1.0000 -0.7984028899
O   O46       1.0  0.48151  0.38768  0.29461  1.0000 -0.7938499981
O   O47       1.0  0.48151  0.11232  0.79461  1.0000 -0.7984028899
O   O48       1.0  0.51849  0.61232  0.70539  1.0000 -0.7984028899
O   O49       1.0  0.36518  0.96677  0.28088  1.0000 -0.8100134622
O   O50       1.0  0.63482  0.46677  0.21912  1.0000 -0.8100134622
O   O51       1.0  0.63482  0.03323  0.71912  1.0000 -0.8100134622
O   O52       1.0  0.36518  0.53323  0.78088  1.0000 -0.8100134622
O   O53       1.0  0.53536  0.97331  0.37056  1.0000 -0.7820540402
O   O54       1.0  0.46464  0.47331  0.12944  1.0000 -0.7820540402
O   O55       1.0  0.46464  0.02669  0.62944  1.0000 -0.7820540402
O   O56       1.0  0.53536  0.52669  0.87056  1.0000 -0.7820540402
O   O57       1.0  0.38632  0.05642  0.32112  1.0000 -0.820382334
O   O58       1.0  0.61368  0.55642  0.17888  1.0000 -0.820382334
O   O59       1.0  0.61368  0.94358  0.67888  1.0000 -0.820382334
O   O60       1.0  0.38632  0.44358  0.82112  1.0000 -0.820382334
O   O61       1.0  0.81151  0.00890  0.31201  1.0000 -0.7984028899
O   O62       1.0  0.18849  0.50890  0.18799  1.0000 -0.7984028899
O   O63       1.0  0.18849  0.99110  0.68799  1.0000 -0.7984028899
O   O64       1.0  0.81151  0.49110  0.81201  1.0000 -0.7984028899
O   O65       1.0  0.62412  0.94658  0.47932  1.0000 -0.8100134622
O   O66       1.0  0.37588  0.44658  0.02068  1.0000 -0.8100134622
O   O67       1.0  0.37588  0.05342  0.52068  1.0000 -0.8100134622
O   O68       1.0  0.62412  0.55342  0.97932  1.0000 -0.8100134622
O   O69       1.0  0.88657  0.88050  0.53427  1.0000 -0.7400619123
O   O70       1.0  0.11343  0.38050  0.96573  1.0000 -0.7400619123
O   O71       1.0  0.11343  0.11950  0.46573  1.0000 -0.7400619123
O   O72       1.0  0.88657  0.61950  0.03427  1.0000 -0.7400619123
O   O73       1.0  0.51568  0.93166  0.56298  1.0000 -0.8100134622
O   O74       1.0  0.48432  0.43166  0.93702  1.0000 -0.7984028899
O   O75       1.0  0.48432  0.06834  0.43702  1.0000 -0.8100134622
O   O76       1.0  0.51568  0.56834  0.06298  1.0000 -0.8100134622
O   O77       1.0  0.93352  0.97958  0.55552  1.0000 -0.8100134622
O   O78       1.0  0.06648  0.47958  0.94448  1.0000 -0.8100134622
O   O79       1.0  0.06648  0.02042  0.44448  1.0000 -0.8100134622
O   O80       1.0  0.93352  0.52042  0.05552  1.0000 -0.8100134622
