# DDEC6 charges by PACMAN v1.1 (https://github.com/mtap-research/PACMAN-charge/)
data_2014[Mg][acs]3[FSR]3
_chemical_formula_sum              "Mg4 H12 C12 O24"
_cell_length_a       7.4295
_cell_length_b       7.8888
_cell_length_c       13.7799
_cell_angle_alpha    90
_cell_angle_beta     90
_cell_angle_gamma    90

_symmetry_space_group_name_H-M    "P 1"
_symmetry_Int_Tables_number       1

loop_
  _symmetry_equiv_pos_as_xyz
  'x, y, z'

loop_
  _atom_site_type_symbol
  _atom_site_label
  _atom_site_symmetry_multiplicity
  _atom_site_fract_x
  _atom_site_fract_y
  _atom_site_fract_z
  _atom_site_occupancy
  _atom_site_charge
Mg  Mg1       1.0  0.25858  0.22587  0.16461  1.0000 1.2772097681
Mg  Mg2       1.0  0.75858  0.27413  0.83539  1.0000 1.2772097681
Mg  Mg3       1.0  0.24142  0.77413  0.66461  1.0000 1.2772097681
Mg  Mg4       1.0  0.74142  0.72587  0.33539  1.0000 1.2772097681
H   H1        1.0  0.97370  0.94720  0.20460  1.0000 0.1099357096
H   H2        1.0  0.47370  0.55280  0.79540  1.0000 0.1099357096
H   H3        1.0  0.52630  0.05280  0.70460  1.0000 0.1099357096
H   H4        1.0  0.02630  0.44720  0.29540  1.0000 0.1099357096
H   H5        1.0  0.50180  0.50360  0.22490  1.0000 0.1099357096
H   H6        1.0  0.00180  0.99640  0.77510  1.0000 0.1099357096
H   H7        1.0  0.99820  0.49640  0.72490  1.0000 0.1099357096
H   H8        1.0  0.49820  0.00360  0.27510  1.0000 0.1099357096
H   H9        1.0  0.97840  0.30580  0.01430  1.0000 0.1099357096
H   H10       1.0  0.47840  0.19420  0.98570  1.0000 0.1099357096
H   H11       1.0  0.52160  0.69420  0.51430  1.0000 0.1099357096
H   H12       1.0  0.02160  0.80580  0.48570  1.0000 0.1099357096
C   C1        1.0  0.99580  0.99310  0.26561  1.0000 0.5264103282
C   C2        1.0  0.49580  0.50690  0.73439  1.0000 0.5264103282
C   C3        1.0  0.50420  0.00690  0.76561  1.0000 0.5264103282
C   C4        1.0  0.00420  0.49310  0.23439  1.0000 0.5264103282
C   C5        1.0  0.49510  0.44700  0.28398  1.0000 0.5161821935
C   C6        1.0  0.99510  0.05300  0.71602  1.0000 0.5161821935
C   C7        1.0  0.00490  0.55300  0.78398  1.0000 0.5161821935
C   C8        1.0  0.50490  0.94700  0.21602  1.0000 0.5161821935
C   C9        1.0  0.00300  0.19360  0.99842  1.0000 0.5264103282
C   C10       1.0  0.50300  0.30640  0.00158  1.0000 0.5264103282
C   C11       1.0  0.49700  0.80640  0.49842  1.0000 0.5264103282
C   C12       1.0  0.99700  0.69360  0.50158  1.0000 0.5264103282
O   O1        1.0  0.10834  0.10763  0.26988  1.0000 -0.5312559661
O   O2        1.0  0.60834  0.39237  0.73012  1.0000 -0.5312559661
O   O3        1.0  0.39166  0.89237  0.76988  1.0000 -0.5312559661
O   O4        1.0  0.89166  0.60763  0.23012  1.0000 -0.5312559661
O   O5        1.0  0.90949  0.93298  0.33405  1.0000 -0.536192527
O   O6        1.0  0.40949  0.56702  0.66595  1.0000 -0.536192527
O   O7        1.0  0.59051  0.06702  0.83405  1.0000 -0.536192527
O   O8        1.0  0.09051  0.43298  0.16595  1.0000 -0.536192527
O   O9        1.0  0.40169  0.31596  0.28520  1.0000 -0.5312559661
O   O10       1.0  0.90169  0.18404  0.71480  1.0000 -0.5312559661
O   O11       1.0  0.09831  0.68404  0.78520  1.0000 -0.5312559661
O   O12       1.0  0.59831  0.81596  0.21480  1.0000 -0.5312559661
O   O13       1.0  0.57951  0.51044  0.35145  1.0000 -0.5098667946
O   O14       1.0  0.07951  0.98956  0.64855  1.0000 -0.5098667946
O   O15       1.0  0.92049  0.48956  0.85145  1.0000 -0.5098667946
O   O16       1.0  0.42049  0.01044  0.14855  1.0000 -0.5098667946
O   O17       1.0  0.11786  0.12016  0.04889  1.0000 -0.536192527
O   O18       1.0  0.61786  0.37984  0.95111  1.0000 -0.536192527
O   O19       1.0  0.38214  0.87984  0.54889  1.0000 -0.536192527
O   O20       1.0  0.88214  0.62016  0.45111  1.0000 -0.536192527
O   O21       1.0  0.91832  0.13351  0.92960  1.0000 -0.5312559661
O   O22       1.0  0.41832  0.36649  0.07040  1.0000 -0.5312559661
O   O23       1.0  0.58168  0.86649  0.42960  1.0000 -0.5312559661
O   O24       1.0  0.08168  0.63351  0.57040  1.0000 -0.5312559661
