# DDEC6 charges by PACMAN v1.1 (https://github.com/mtap-research/PACMAN-charge/)
data_2014[Co][nan]3[FSR]25
_chemical_formula_sum              "Co6 H6 C24 O18"
_cell_length_a       15.0999
_cell_length_b       15.0999
_cell_length_c       15.0999
_cell_angle_alpha    117.803
_cell_angle_beta     117.803
_cell_angle_gamma    117.803

_symmetry_space_group_name_H-M    "P 1"
_symmetry_Int_Tables_number       1

loop_
  _symmetry_equiv_pos_as_xyz
  'x, y, z'

loop_
  _atom_site_type_symbol
  _atom_site_label
  _atom_site_symmetry_multiplicity
  _atom_site_fract_x
  _atom_site_fract_y
  _atom_site_fract_z
  _atom_site_occupancy
  _atom_site_charge
Co  Co1       1.0  0.88700  0.18550  0.60750  1.0000 1.0282605384
Co  Co2       1.0  0.18550  0.60750  0.88700  1.0000 1.0282605384
Co  Co3       1.0  0.60750  0.88700  0.18550  1.0000 1.0282605384
Co  Co4       1.0  0.18550  0.88700  0.60750  1.0000 1.0282605384
Co  Co5       1.0  0.88700  0.60750  0.18550  1.0000 1.0282605384
Co  Co6       1.0  0.60750  0.18550  0.88700  1.0000 1.0282605384
H   H1        1.0  0.75715  0.27670  0.75715  1.0000 0.1559241806
H   H2        1.0  0.27670  0.75715  0.75715  1.0000 0.1559241806
H   H3        1.0  0.75715  0.75715  0.27670  1.0000 0.1559241806
H   H4        1.0  0.46350  0.89200  0.46350  1.0000 0.1374635939
H   H5        1.0  0.89200  0.46350  0.46350  1.0000 0.1374635939
H   H6        1.0  0.46350  0.46350  0.89200  1.0000 0.1374635939
C   C1        1.0  0.05950  0.49810  0.96540  1.0000 0.3501178418
C   C2        1.0  0.49810  0.96540  0.05950  1.0000 0.3501178418
C   C3        1.0  0.96540  0.05950  0.49810  1.0000 0.3501178418
C   C4        1.0  0.49810  0.05950  0.96540  1.0000 0.3501178418
C   C5        1.0  0.05950  0.96540  0.49810  1.0000 0.3501178418
C   C6        1.0  0.96540  0.49810  0.05950  1.0000 0.3501178418
C   C7        1.0  0.91765  0.42070  0.91765  1.0000 -0.339240184
C   C8        1.0  0.42070  0.91765  0.91765  1.0000 -0.339240184
C   C9        1.0  0.91765  0.91765  0.42070  1.0000 -0.339240184
C   C10       1.0  0.27160  0.68340  0.17880  1.0000 -0.1787759866
C   C11       1.0  0.68340  0.17880  0.27160  1.0000 -0.1787759866
C   C12       1.0  0.17880  0.27160  0.68340  1.0000 -0.1787759866
C   C13       1.0  0.68340  0.27160  0.17880  1.0000 -0.1787759866
C   C14       1.0  0.27160  0.17880  0.68340  1.0000 -0.1787759866
C   C15       1.0  0.17880  0.68340  0.27160  1.0000 -0.1787759866
C   C16       1.0  0.44830  0.80310  0.26040  1.0000 0.6465229486
C   C17       1.0  0.80310  0.26040  0.44830  1.0000 0.6465229486
C   C18       1.0  0.26040  0.44830  0.80310  1.0000 0.6465229486
C   C19       1.0  0.80310  0.44830  0.26040  1.0000 0.6465229486
C   C20       1.0  0.44830  0.26040  0.80310  1.0000 0.6465229486
C   C21       1.0  0.26040  0.80310  0.44830  1.0000 0.6465229486
C   C22       1.0  0.32500  0.76820  0.32500  1.0000 -0.0676040705
C   C23       1.0  0.76820  0.32500  0.32500  1.0000 -0.0676040705
C   C24       1.0  0.32500  0.32500  0.76820  1.0000 -0.0676040705
O   O1        1.0  0.00370  0.41990  0.82160  1.0000 -0.6195052172
O   O2        1.0  0.41990  0.82160  0.00370  1.0000 -0.6195052172
O   O3        1.0  0.82160  0.00370  0.41990  1.0000 -0.6195052172
O   O4        1.0  0.41990  0.00370  0.82160  1.0000 -0.6195052172
O   O5        1.0  0.00370  0.82160  0.41990  1.0000 -0.6195052172
O   O6        1.0  0.82160  0.41990  0.00370  1.0000 -0.6195052172
O   O7        1.0  0.40560  0.74810  0.13190  1.0000 -0.6113520767
O   O8        1.0  0.74810  0.13190  0.40560  1.0000 -0.6113520767
O   O9        1.0  0.13190  0.40560  0.74810  1.0000 -0.6113520767
O   O10       1.0  0.74810  0.40560  0.13190  1.0000 -0.6113520767
O   O11       1.0  0.40560  0.13190  0.74810  1.0000 -0.6113520767
O   O12       1.0  0.13190  0.74810  0.40560  1.0000 -0.6113520767
O   O13       1.0  0.63080  0.95280  0.45200  1.0000 -0.5585398083
O   O14       1.0  0.95280  0.45200  0.63080  1.0000 -0.5585398083
O   O15       1.0  0.45200  0.63080  0.95280  1.0000 -0.5585398083
O   O16       1.0  0.95280  0.63080  0.45200  1.0000 -0.5585398083
O   O17       1.0  0.63080  0.45200  0.95280  1.0000 -0.5585398083
O   O18       1.0  0.45200  0.95280  0.63080  1.0000 -0.5585398083
