# DDEC6 charges by PACMAN v1.1 (https://github.com/mtap-research/PACMAN-charge/)
data_2014[Fe][nan]3[FSR]5
_chemical_formula_sum              "Fe8 H104 C160 N16 O40"
_cell_length_a       9.021
_cell_length_b       13.841
_cell_length_c       30.183
_cell_angle_alpha    90
_cell_angle_beta     90
_cell_angle_gamma    90

_symmetry_space_group_name_H-M    "P 1"
_symmetry_Int_Tables_number       1

loop_
  _symmetry_equiv_pos_as_xyz
  'x, y, z'

loop_
  _atom_site_type_symbol
  _atom_site_label
  _atom_site_symmetry_multiplicity
  _atom_site_fract_x
  _atom_site_fract_y
  _atom_site_fract_z
  _atom_site_occupancy
  _atom_site_charge
Fe  Fe1       1.0  0.19364  0.61714  0.28520  1.0000 0.9312558809
Fe  Fe2       1.0  0.30636  0.38286  0.28520  1.0000 0.9312558809
Fe  Fe3       1.0  0.80636  0.61714  0.21480  1.0000 0.9312558809
Fe  Fe4       1.0  0.69364  0.38286  0.21480  1.0000 0.9312558809
Fe  Fe5       1.0  0.80636  0.38286  0.71480  1.0000 0.9312558809
Fe  Fe6       1.0  0.69364  0.61714  0.71480  1.0000 0.9312558809
Fe  Fe7       1.0  0.19364  0.38286  0.78520  1.0000 0.9312558809
Fe  Fe8       1.0  0.30636  0.61714  0.78520  1.0000 0.9312558809
H   H1        1.0  0.00000  0.36850  0.25000  1.0000 0.1038984993
H   H2        1.0  0.50000  0.63150  0.25000  1.0000 0.1038984993
H   H3        1.0  0.00000  0.63150  0.75000  1.0000 0.1038984993
H   H4        1.0  0.50000  0.36850  0.75000  1.0000 0.1038984993
H   H5        1.0  0.39850  0.63250  0.15500  1.0000 0.1195134687
H   H6        1.0  0.10150  0.36750  0.15500  1.0000 0.1195134687
H   H7        1.0  0.60150  0.63250  0.34500  1.0000 0.1195134687
H   H8        1.0  0.89850  0.36750  0.34500  1.0000 0.1195134687
H   H9        1.0  0.60150  0.36750  0.84500  1.0000 0.1195134687
H   H10       1.0  0.89850  0.63250  0.84500  1.0000 0.1195134687
H   H11       1.0  0.39850  0.36750  0.65500  1.0000 0.1195134687
H   H12       1.0  0.10150  0.63250  0.65500  1.0000 0.1195134687
H   H13       1.0  0.47850  0.62980  0.08200  1.0000 0.1273560656
H   H14       1.0  0.02150  0.37020  0.08200  1.0000 0.1273560656
H   H15       1.0  0.52150  0.62980  0.41800  1.0000 0.1273560656
H   H16       1.0  0.97850  0.37020  0.41800  1.0000 0.1273560656
H   H17       1.0  0.52150  0.37020  0.91800  1.0000 0.1273560656
H   H18       1.0  0.97850  0.62980  0.91800  1.0000 0.1273560656
H   H19       1.0  0.47850  0.37020  0.58200  1.0000 0.1273560656
H   H20       1.0  0.02150  0.62980  0.58200  1.0000 0.1273560656
H   H21       1.0  0.08170  0.72580  0.04300  1.0000 0.1377132592
H   H22       1.0  0.41830  0.27420  0.04300  1.0000 0.1377132592
H   H23       1.0  0.91830  0.72580  0.45700  1.0000 0.1377132592
H   H24       1.0  0.58170  0.27420  0.45700  1.0000 0.1377132592
H   H25       1.0  0.91830  0.27420  0.95700  1.0000 0.1377132592
H   H26       1.0  0.58170  0.72580  0.95700  1.0000 0.1377132592
H   H27       1.0  0.08170  0.27420  0.54300  1.0000 0.1377132592
H   H28       1.0  0.41830  0.72580  0.54300  1.0000 0.1377132592
H   H29       1.0  0.00330  0.73010  0.11580  1.0000 0.1124567664
H   H30       1.0  0.49670  0.26990  0.11580  1.0000 0.1124567664
H   H31       1.0  0.99670  0.73010  0.38420  1.0000 0.1124567664
H   H32       1.0  0.50330  0.26990  0.38420  1.0000 0.1124567664
H   H33       1.0  0.99670  0.26990  0.88420  1.0000 0.1124567664
H   H34       1.0  0.50330  0.73010  0.88420  1.0000 0.1124567664
H   H35       1.0  0.00330  0.26990  0.61580  1.0000 0.1124567664
H   H36       1.0  0.49670  0.73010  0.61580  1.0000 0.1124567664
H   H37       1.0  0.25000  0.50000  0.04430  1.0000 0.1479206049
H   H38       1.0  0.75000  0.50000  0.45570  1.0000 0.1479206049
H   H39       1.0  0.75000  0.50000  0.95570  1.0000 0.1479206049
H   H40       1.0  0.25000  0.50000  0.54430  1.0000 0.1479206049
H   H41       1.0  0.31960  0.63850  0.92900  1.0000 0.1273560656
H   H42       1.0  0.18040  0.36150  0.92900  1.0000 0.1273560656
H   H43       1.0  0.68040  0.63850  0.57100  1.0000 0.1273560656
H   H44       1.0  0.81960  0.36150  0.57100  1.0000 0.1273560656
H   H45       1.0  0.68040  0.36150  0.07100  1.0000 0.1273560656
H   H46       1.0  0.81960  0.63850  0.07100  1.0000 0.1273560656
H   H47       1.0  0.31960  0.36150  0.42900  1.0000 0.1273560656
H   H48       1.0  0.18040  0.63850  0.42900  1.0000 0.1273560656
H   H49       1.0  0.33850  0.83910  0.25190  1.0000 0.1195134687
H   H50       1.0  0.16150  0.16090  0.25190  1.0000 0.1195134687
H   H51       1.0  0.66150  0.83910  0.24810  1.0000 0.1195134687
H   H52       1.0  0.83850  0.16090  0.24810  1.0000 0.1195134687
H   H53       1.0  0.66150  0.16090  0.74810  1.0000 0.1195134687
H   H54       1.0  0.83850  0.83910  0.74810  1.0000 0.1195134687
H   H55       1.0  0.33850  0.16090  0.75190  1.0000 0.1195134687
H   H56       1.0  0.16150  0.83910  0.75190  1.0000 0.1195134687
H   H57       1.0  0.43190  0.95920  0.30420  1.0000 0.1195134687
H   H58       1.0  0.06810  0.04080  0.30420  1.0000 0.1195134687
H   H59       1.0  0.56810  0.95920  0.19580  1.0000 0.1195134687
H   H60       1.0  0.93190  0.04080  0.19580  1.0000 0.1195134687
H   H61       1.0  0.56810  0.04080  0.69580  1.0000 0.1195134687
H   H62       1.0  0.93190  0.95920  0.69580  1.0000 0.1195134687
H   H63       1.0  0.43190  0.04080  0.80420  1.0000 0.1195134687
H   H64       1.0  0.06810  0.95920  0.80420  1.0000 0.1195134687
H   H65       1.0  0.31190  0.72720  0.36930  1.0000 0.1124567664
H   H66       1.0  0.18810  0.27280  0.36930  1.0000 0.1124567664
H   H67       1.0  0.68810  0.72720  0.13070  1.0000 0.1124567664
H   H68       1.0  0.81190  0.27280  0.13070  1.0000 0.1124567664
H   H69       1.0  0.68810  0.27280  0.63070  1.0000 0.1124567664
H   H70       1.0  0.81190  0.72720  0.63070  1.0000 0.1124567664
H   H71       1.0  0.31190  0.27280  0.86930  1.0000 0.1124567664
H   H72       1.0  0.18810  0.72720  0.86930  1.0000 0.1124567664
H   H73       1.0  0.27570  0.82030  0.42960  1.0000 0.1273560656
H   H74       1.0  0.22430  0.17970  0.42960  1.0000 0.1273560656
H   H75       1.0  0.72430  0.82030  0.07040  1.0000 0.1273560656
H   H76       1.0  0.77570  0.17970  0.07040  1.0000 0.1273560656
H   H77       1.0  0.72430  0.17970  0.57040  1.0000 0.1273560656
H   H78       1.0  0.77570  0.82030  0.57040  1.0000 0.1273560656
H   H79       1.0  0.27570  0.17970  0.92960  1.0000 0.1273560656
H   H80       1.0  0.22430  0.82030  0.92960  1.0000 0.1273560656
H   H81       1.0  0.33600  0.88030  0.49780  1.0000 0.1124567664
H   H82       1.0  0.16400  0.11970  0.49780  1.0000 0.1124567664
H   H83       1.0  0.66400  0.88030  0.00220  1.0000 0.1124567664
H   H84       1.0  0.83600  0.11970  0.00220  1.0000 0.1124567664
H   H85       1.0  0.66400  0.11970  0.50220  1.0000 0.1124567664
H   H86       1.0  0.83600  0.88030  0.50220  1.0000 0.1124567664
H   H87       1.0  0.33600  0.11970  0.99780  1.0000 0.1124567664
H   H88       1.0  0.16400  0.88030  0.99780  1.0000 0.1124567664
H   H89       1.0  0.61560  0.06220  0.44180  1.0000 0.1195134687
H   H90       1.0  0.88440  0.93780  0.44180  1.0000 0.1195134687
H   H91       1.0  0.38440  0.06220  0.05820  1.0000 0.1195134687
H   H92       1.0  0.11560  0.93780  0.05820  1.0000 0.1195134687
H   H93       1.0  0.38440  0.93780  0.55820  1.0000 0.1195134687
H   H94       1.0  0.11560  0.06220  0.55820  1.0000 0.1195134687
H   H95       1.0  0.61560  0.93780  0.94180  1.0000 0.1195134687
H   H96       1.0  0.88440  0.06220  0.94180  1.0000 0.1195134687
H   H97       1.0  0.55880  0.00080  0.37320  1.0000 0.1377132592
H   H98       1.0  0.94120  0.99920  0.37320  1.0000 0.1377132592
H   H99       1.0  0.44120  0.00080  0.12680  1.0000 0.1377132592
H   H100      1.0  0.05880  0.99920  0.12680  1.0000 0.1377132592
H   H101      1.0  0.44120  0.99920  0.62680  1.0000 0.1377132592
H   H102      1.0  0.05880  0.00080  0.62680  1.0000 0.1377132592
H   H103      1.0  0.55880  0.99920  0.87320  1.0000 0.1377132592
H   H104      1.0  0.94120  0.00080  0.87320  1.0000 0.1377132592
C   C1        1.0  0.00000  0.43570  0.25000  1.0000 0.4994036072
C   C2        1.0  0.50000  0.56430  0.25000  1.0000 0.4994036072
C   C3        1.0  0.00000  0.56430  0.75000  1.0000 0.4994036072
C   C4        1.0  0.50000  0.43570  0.75000  1.0000 0.4994036072
C   C5        1.0  0.13330  0.67390  0.18996  1.0000 0.5890255981
C   C6        1.0  0.36670  0.32610  0.18996  1.0000 0.5890255981
C   C7        1.0  0.86670  0.67390  0.31004  1.0000 0.5890255981
C   C8        1.0  0.63330  0.32610  0.31004  1.0000 0.5890255981
C   C9        1.0  0.86670  0.32610  0.81004  1.0000 0.5890255981
C   C10       1.0  0.63330  0.67390  0.81004  1.0000 0.5890255981
C   C11       1.0  0.13330  0.32610  0.68996  1.0000 0.5890255981
C   C12       1.0  0.36670  0.67390  0.68996  1.0000 0.5890255981
C   C13       1.0  0.19200  0.67880  0.14317  1.0000 -0.0320044218
C   C14       1.0  0.30800  0.32120  0.14317  1.0000 -0.0320044218
C   C15       1.0  0.80800  0.67880  0.35683  1.0000 -0.0320044218
C   C16       1.0  0.69200  0.32120  0.35683  1.0000 -0.0320044218
C   C17       1.0  0.80800  0.32120  0.85683  1.0000 -0.0320044218
C   C18       1.0  0.69200  0.67880  0.85683  1.0000 -0.0320044218
C   C19       1.0  0.19200  0.32120  0.64317  1.0000 -0.0320044218
C   C20       1.0  0.30800  0.67880  0.64317  1.0000 -0.0320044218
C   C21       1.0  0.33370  0.65060  0.13248  1.0000 -0.0942244789
C   C22       1.0  0.16630  0.34940  0.13248  1.0000 -0.0942244789
C   C23       1.0  0.66630  0.65060  0.36752  1.0000 -0.0942244789
C   C24       1.0  0.83370  0.34940  0.36752  1.0000 -0.0942244789
C   C25       1.0  0.66630  0.34940  0.86752  1.0000 -0.0942244789
C   C26       1.0  0.83370  0.65060  0.86752  1.0000 -0.0942244789
C   C27       1.0  0.33370  0.34940  0.63248  1.0000 -0.0942244789
C   C28       1.0  0.16630  0.65060  0.63248  1.0000 -0.0942244789
C   C29       1.0  0.38220  0.64850  0.08885  1.0000 -0.210238994
C   C30       1.0  0.11780  0.35150  0.08885  1.0000 -0.210238994
C   C31       1.0  0.61780  0.64850  0.41115  1.0000 -0.210238994
C   C32       1.0  0.88220  0.35150  0.41115  1.0000 -0.210238994
C   C33       1.0  0.61780  0.35150  0.91115  1.0000 -0.210238994
C   C34       1.0  0.88220  0.64850  0.91115  1.0000 -0.210238994
C   C35       1.0  0.38220  0.35150  0.58885  1.0000 -0.210238994
C   C36       1.0  0.11780  0.64850  0.58885  1.0000 -0.210238994
C   C37       1.0  0.28430  0.67490  0.05567  1.0000 0.2348328048
C   C38       1.0  0.21570  0.32510  0.05567  1.0000 0.2348328048
C   C39       1.0  0.71570  0.67490  0.44433  1.0000 0.2348328048
C   C40       1.0  0.78430  0.32510  0.44433  1.0000 0.2348328048
C   C41       1.0  0.71570  0.32510  0.94433  1.0000 0.2348328048
C   C42       1.0  0.78430  0.67490  0.94433  1.0000 0.2348328048
C   C43       1.0  0.28430  0.32510  0.55567  1.0000 0.2348328048
C   C44       1.0  0.21570  0.67490  0.55567  1.0000 0.2348328048
C   C45       1.0  0.14520  0.70610  0.06554  1.0000 -0.210238994
C   C46       1.0  0.35480  0.29390  0.06554  1.0000 -0.210238994
C   C47       1.0  0.85480  0.70610  0.43446  1.0000 -0.210238994
C   C48       1.0  0.64520  0.29390  0.43446  1.0000 -0.210238994
C   C49       1.0  0.85480  0.29390  0.93446  1.0000 -0.210238994
C   C50       1.0  0.64520  0.70610  0.93446  1.0000 -0.210238994
C   C51       1.0  0.14520  0.29390  0.56554  1.0000 -0.210238994
C   C52       1.0  0.35480  0.70610  0.56554  1.0000 -0.210238994
C   C53       1.0  0.09840  0.70850  0.10912  1.0000 -0.0990123487
C   C54       1.0  0.40160  0.29150  0.10912  1.0000 -0.0990123487
C   C55       1.0  0.90160  0.70850  0.39088  1.0000 -0.0990123487
C   C56       1.0  0.59840  0.29150  0.39088  1.0000 -0.0990123487
C   C57       1.0  0.90160  0.29150  0.89088  1.0000 -0.0990123487
C   C58       1.0  0.59840  0.70850  0.89088  1.0000 -0.0990123487
C   C59       1.0  0.09840  0.29150  0.60912  1.0000 -0.0990123487
C   C60       1.0  0.40160  0.70850  0.60912  1.0000 -0.0990123487
C   C61       1.0  0.28880  0.58260  0.98968  1.0000 0.2813269311
C   C62       1.0  0.21120  0.41740  0.98968  1.0000 0.2813269311
C   C63       1.0  0.71120  0.58260  0.51032  1.0000 0.2813269311
C   C64       1.0  0.78880  0.41740  0.51032  1.0000 0.2813269311
C   C65       1.0  0.71120  0.41740  0.01032  1.0000 0.2813269311
C   C66       1.0  0.78880  0.58260  0.01032  1.0000 0.2813269311
C   C67       1.0  0.28880  0.41740  0.48968  1.0000 0.2813269311
C   C68       1.0  0.21120  0.58260  0.48968  1.0000 0.2813269311
C   C69       1.0  0.25000  0.50000  0.01346  1.0000 -0.3317635542
C   C70       1.0  0.75000  0.50000  0.48654  1.0000 -0.3317635542
C   C71       1.0  0.75000  0.50000  0.98654  1.0000 -0.3317635542
C   C72       1.0  0.25000  0.50000  0.51346  1.0000 -0.3317635542
C   C73       1.0  0.25000  0.50000  0.87091  1.0000 0.5799375588
C   C74       1.0  0.75000  0.50000  0.62909  1.0000 0.5799375588
C   C75       1.0  0.75000  0.50000  0.12909  1.0000 0.5799375588
C   C76       1.0  0.25000  0.50000  0.37091  1.0000 0.5799375588
C   C77       1.0  0.25000  0.50000  0.92078  1.0000 0.0059104917
C   C78       1.0  0.75000  0.50000  0.57922  1.0000 0.0059104917
C   C79       1.0  0.75000  0.50000  0.07922  1.0000 0.0059104917
C   C80       1.0  0.25000  0.50000  0.42078  1.0000 0.0059104917
C   C81       1.0  0.29100  0.58310  0.94419  1.0000 -0.2580139226
C   C82       1.0  0.20900  0.41690  0.94419  1.0000 -0.2580139226
C   C83       1.0  0.70900  0.58310  0.55581  1.0000 -0.2580139226
C   C84       1.0  0.79100  0.41690  0.55581  1.0000 -0.2580139226
C   C85       1.0  0.70900  0.41690  0.05581  1.0000 -0.2580139226
C   C86       1.0  0.79100  0.58310  0.05581  1.0000 -0.2580139226
C   C87       1.0  0.29100  0.41690  0.44419  1.0000 -0.2580139226
C   C88       1.0  0.20900  0.58310  0.44419  1.0000 -0.2580139226
C   C89       1.0  0.34620  0.83070  0.28236  1.0000 -0.0320044218
C   C90       1.0  0.15380  0.16930  0.28236  1.0000 -0.0320044218
C   C91       1.0  0.65380  0.83070  0.21764  1.0000 -0.0320044218
C   C92       1.0  0.84620  0.16930  0.21764  1.0000 -0.0320044218
C   C93       1.0  0.65380  0.16930  0.71764  1.0000 -0.0320044218
C   C94       1.0  0.84620  0.83070  0.71764  1.0000 -0.0320044218
C   C95       1.0  0.34620  0.16930  0.78236  1.0000 -0.0320044218
C   C96       1.0  0.15380  0.83070  0.78236  1.0000 -0.0320044218
C   C97       1.0  0.39580  0.89820  0.31119  1.0000 -0.1111043877
C   C98       1.0  0.10420  0.10180  0.31119  1.0000 -0.1111043877
C   C99       1.0  0.60420  0.89820  0.18881  1.0000 -0.1111043877
C   C100      1.0  0.89580  0.10180  0.18881  1.0000 -0.1111043877
C   C101      1.0  0.60420  0.10180  0.68881  1.0000 -0.1111043877
C   C102      1.0  0.89580  0.89820  0.68881  1.0000 -0.1111043877
C   C103      1.0  0.39580  0.10180  0.81119  1.0000 -0.1111043877
C   C104      1.0  0.10420  0.89820  0.81119  1.0000 -0.1111043877
C   C105      1.0  0.33080  0.77000  0.34622  1.0000 0.1273560656
C   C106      1.0  0.16920  0.23000  0.34622  1.0000 0.1273560656
C   C107      1.0  0.66920  0.77000  0.15378  1.0000 0.1273560656
C   C108      1.0  0.83080  0.23000  0.15378  1.0000 0.1273560656
C   C109      1.0  0.66920  0.23000  0.65378  1.0000 0.1273560656
C   C110      1.0  0.83080  0.77000  0.65378  1.0000 0.1273560656
C   C111      1.0  0.33080  0.23000  0.84622  1.0000 0.1273560656
C   C112      1.0  0.16920  0.77000  0.84622  1.0000 0.1273560656
C   C113      1.0  0.41660  0.90120  0.39473  1.0000 0.1377132592
C   C114      1.0  0.08340  0.09880  0.39473  1.0000 0.1377132592
C   C115      1.0  0.58340  0.90120  0.10527  1.0000 0.1377132592
C   C116      1.0  0.91660  0.09880  0.10527  1.0000 0.1377132592
C   C117      1.0  0.58340  0.09880  0.60527  1.0000 0.1377132592
C   C118      1.0  0.91660  0.90120  0.60527  1.0000 0.1377132592
C   C119      1.0  0.41660  0.09880  0.89473  1.0000 0.1377132592
C   C120      1.0  0.08340  0.90120  0.89473  1.0000 0.1377132592
C   C121      1.0  0.34730  0.86830  0.43191  1.0000 -0.1772661096
C   C122      1.0  0.15270  0.13170  0.43191  1.0000 -0.1772661096
C   C123      1.0  0.65270  0.86830  0.06809  1.0000 -0.1772661096
C   C124      1.0  0.84730  0.13170  0.06809  1.0000 -0.1772661096
C   C125      1.0  0.65270  0.13170  0.56809  1.0000 -0.1772661096
C   C126      1.0  0.84730  0.86830  0.56809  1.0000 -0.1772661096
C   C127      1.0  0.34730  0.13170  0.93191  1.0000 -0.1772661096
C   C128      1.0  0.15270  0.86830  0.93191  1.0000 -0.1772661096
C   C129      1.0  0.38200  0.90550  0.47275  1.0000 -0.1321524138
C   C130      1.0  0.11800  0.09450  0.47275  1.0000 -0.1321524138
C   C131      1.0  0.61800  0.90550  0.02725  1.0000 -0.1321524138
C   C132      1.0  0.88200  0.09450  0.02725  1.0000 -0.1321524138
C   C133      1.0  0.61800  0.09450  0.52725  1.0000 -0.1321524138
C   C134      1.0  0.88200  0.90550  0.52725  1.0000 -0.1321524138
C   C135      1.0  0.38200  0.09450  0.97275  1.0000 -0.1321524138
C   C136      1.0  0.11800  0.90550  0.97275  1.0000 -0.1321524138
C   C137      1.0  0.48400  0.97940  0.47761  1.0000 0.0657186249
C   C138      1.0  0.01600  0.02060  0.47761  1.0000 0.0657186249
C   C139      1.0  0.51600  0.97940  0.02239  1.0000 0.0657186249
C   C140      1.0  0.98400  0.02060  0.02239  1.0000 0.0657186249
C   C141      1.0  0.51600  0.02060  0.52239  1.0000 0.0657186249
C   C142      1.0  0.98400  0.97940  0.52239  1.0000 0.0657186249
C   C143      1.0  0.48400  0.02060  0.97761  1.0000 0.0657186249
C   C144      1.0  0.01600  0.97940  0.97761  1.0000 0.0657186249
C   C145      1.0  0.54700  0.01230  0.43987  1.0000 -0.1419862694
C   C146      1.0  0.95300  0.98770  0.43987  1.0000 -0.1419862694
C   C147      1.0  0.45300  0.01230  0.06013  1.0000 -0.1419862694
C   C148      1.0  0.04700  0.98770  0.06013  1.0000 -0.1419862694
C   C149      1.0  0.45300  0.98770  0.56013  1.0000 -0.1419862694
C   C150      1.0  0.04700  0.01230  0.56013  1.0000 -0.1419862694
C   C151      1.0  0.54700  0.98770  0.93987  1.0000 -0.1419862694
C   C152      1.0  0.95300  0.01230  0.93987  1.0000 -0.1419862694
C   C153      1.0  0.51420  0.97520  0.39836  1.0000 -0.1772661096
C   C154      1.0  0.98580  0.02480  0.39836  1.0000 -0.1772661096
C   C155      1.0  0.48580  0.97520  0.10164  1.0000 -0.1772661096
C   C156      1.0  0.01420  0.02480  0.10164  1.0000 -0.1772661096
C   C157      1.0  0.48580  0.02480  0.60164  1.0000 -0.1772661096
C   C158      1.0  0.01420  0.97520  0.60164  1.0000 -0.1772661096
C   C159      1.0  0.51420  0.02480  0.89836  1.0000 -0.1772661096
C   C160      1.0  0.98580  0.97520  0.89836  1.0000 -0.1772661096
N   N1        1.0  0.30920  0.74890  0.30449  1.0000 -0.2929590231
N   N2        1.0  0.19080  0.25110  0.30449  1.0000 -0.2929590231
N   N3        1.0  0.69080  0.74890  0.19551  1.0000 -0.2929590231
N   N4        1.0  0.80920  0.25110  0.19551  1.0000 -0.2929590231
N   N5        1.0  0.69080  0.25110  0.69551  1.0000 -0.2929590231
N   N6        1.0  0.80920  0.74890  0.69551  1.0000 -0.2929590231
N   N7        1.0  0.30920  0.25110  0.80449  1.0000 -0.2929590231
N   N8        1.0  0.19080  0.74890  0.80449  1.0000 -0.2929590231
N   N9        1.0  0.38260  0.85920  0.35236  1.0000 0.0036136854
N   N10       1.0  0.11740  0.14080  0.35236  1.0000 0.0036136854
N   N11       1.0  0.61740  0.85920  0.14764  1.0000 0.0036136854
N   N12       1.0  0.88260  0.14080  0.14764  1.0000 0.0036136854
N   N13       1.0  0.61740  0.14080  0.64764  1.0000 0.0036136854
N   N14       1.0  0.88260  0.85920  0.64764  1.0000 0.0036136854
N   N15       1.0  0.38260  0.14080  0.85236  1.0000 0.0036136854
N   N16       1.0  0.11740  0.85920  0.85236  1.0000 0.0036136854
O   O1        1.0  0.28530  0.57742  0.85194  1.0000 -0.550916571
O   O2        1.0  0.21470  0.42258  0.85194  1.0000 -0.550916571
O   O3        1.0  0.71470  0.57742  0.64806  1.0000 -0.550916571
O   O4        1.0  0.78530  0.42258  0.64806  1.0000 -0.550916571
O   O5        1.0  0.71470  0.42258  0.14806  1.0000 -0.550916571
O   O6        1.0  0.78530  0.57742  0.14806  1.0000 -0.550916571
O   O7        1.0  0.28530  0.42258  0.35194  1.0000 -0.550916571
O   O8        1.0  0.21470  0.57742  0.35194  1.0000 -0.550916571
O   O9        1.0  0.22370  0.65100  0.21960  1.0000 -0.550916571
O   O10       1.0  0.27630  0.34900  0.21960  1.0000 -0.550916571
O   O11       1.0  0.77630  0.65100  0.28040  1.0000 -0.550916571
O   O12       1.0  0.72370  0.34900  0.28040  1.0000 -0.550916571
O   O13       1.0  0.77630  0.34900  0.78040  1.0000 -0.550916571
O   O14       1.0  0.72370  0.65100  0.78040  1.0000 -0.550916571
O   O15       1.0  0.22370  0.34900  0.71960  1.0000 -0.550916571
O   O16       1.0  0.27630  0.65100  0.71960  1.0000 -0.550916571
O   O17       1.0  0.99940  0.69220  0.19619  1.0000 -0.5387700981
O   O18       1.0  0.50060  0.30780  0.19619  1.0000 -0.5387700981
O   O19       1.0  0.00060  0.69220  0.30381  1.0000 -0.5387700981
O   O20       1.0  0.49940  0.30780  0.30381  1.0000 -0.5387700981
O   O21       1.0  0.00060  0.30780  0.80381  1.0000 -0.5387700981
O   O22       1.0  0.49940  0.69220  0.80381  1.0000 -0.5387700981
O   O23       1.0  0.99940  0.30780  0.69619  1.0000 -0.5387700981
O   O24       1.0  0.50060  0.69220  0.69619  1.0000 -0.5387700981
O   O25       1.0  0.33010  0.66730  0.01138  1.0000 -0.2406317441
O   O26       1.0  0.16990  0.33270  0.01138  1.0000 -0.2406317441
O   O27       1.0  0.66990  0.66730  0.48862  1.0000 -0.2406317441
O   O28       1.0  0.83010  0.33270  0.48862  1.0000 -0.2406317441
O   O29       1.0  0.66990  0.33270  0.98862  1.0000 -0.2406317441
O   O30       1.0  0.83010  0.66730  0.98862  1.0000 -0.2406317441
O   O31       1.0  0.33010  0.33270  0.51138  1.0000 -0.2406317441
O   O32       1.0  0.16990  0.66730  0.51138  1.0000 -0.2406317441
O   O33       1.0  0.10090  0.47534  0.27182  1.0000 -0.4967084638
O   O34       1.0  0.39910  0.52466  0.27182  1.0000 -0.4967084638
O   O35       1.0  0.89910  0.47534  0.22818  1.0000 -0.4967084638
O   O36       1.0  0.60090  0.52466  0.22818  1.0000 -0.4967084638
O   O37       1.0  0.89910  0.52466  0.72818  1.0000 -0.4967084638
O   O38       1.0  0.60090  0.47534  0.72818  1.0000 -0.4967084638
O   O39       1.0  0.10090  0.52466  0.77182  1.0000 -0.4967084638
O   O40       1.0  0.39910  0.47534  0.77182  1.0000 -0.4967084638
