# DDEC6 charges by PACMAN v1.1 (https://github.com/mtap-research/PACMAN-charge/)
data_2014[Gd][cds]3[FSR]1
_chemical_formula_sum              "Gd4 H120 C144 N28 O32"
_cell_length_a       8.2096
_cell_length_b       14.998
_cell_length_c       37.652
_cell_angle_alpha    90
_cell_angle_beta     101.71
_cell_angle_gamma    90

_symmetry_space_group_name_H-M    "P 1"
_symmetry_Int_Tables_number       1

loop_
  _symmetry_equiv_pos_as_xyz
  'x, y, z'

loop_
  _atom_site_type_symbol
  _atom_site_label
  _atom_site_symmetry_multiplicity
  _atom_site_fract_x
  _atom_site_fract_y
  _atom_site_fract_z
  _atom_site_occupancy
  _atom_site_charge
Gd  Gd1       1.0  0.32133  0.90192  0.48678  1.0000 1.9621287151
Gd  Gd2       1.0  0.67867  0.90192  0.01322  1.0000 1.9621287151
Gd  Gd3       1.0  0.67867  0.09808  0.51322  1.0000 1.9621287151
Gd  Gd4       1.0  0.32133  0.09808  0.98678  1.0000 1.9621287151
H   H1        1.0  0.12760  0.04900  0.45730  1.0000 0.3536551162
H   H2        1.0  0.87240  0.04900  0.04270  1.0000 0.3536551162
H   H3        1.0  0.87240  0.95100  0.54270  1.0000 0.3536551162
H   H4        1.0  0.12760  0.95100  0.95730  1.0000 0.3536551162
H   H5        1.0  0.24810  0.08550  0.48510  1.0000 0.3843118115
H   H6        1.0  0.75190  0.08550  0.01490  1.0000 0.3843118115
H   H7        1.0  0.75190  0.91450  0.51490  1.0000 0.3843118115
H   H8        1.0  0.24810  0.91450  0.98510  1.0000 0.3843118115
H   H9        1.0  0.92110  0.09040  0.15780  1.0000 0.2881375714
H   H10       1.0  0.07890  0.09040  0.34220  1.0000 0.2881375714
H   H11       1.0  0.07890  0.90960  0.84220  1.0000 0.2881375714
H   H12       1.0  0.92110  0.90960  0.65780  1.0000 0.2881375714
H   H13       1.0  0.49250  0.97840  0.36720  1.0000 0.1296708369
H   H14       1.0  0.50750  0.97840  0.13280  1.0000 0.1296708369
H   H15       1.0  0.50750  0.02160  0.63280  1.0000 0.1296708369
H   H16       1.0  0.49250  0.02160  0.86720  1.0000 0.1296708369
H   H17       1.0  0.14970  0.33590  0.06470  1.0000 0.110898052
H   H18       1.0  0.85030  0.33590  0.43530  1.0000 0.110898052
H   H19       1.0  0.85030  0.66410  0.93530  1.0000 0.110898052
H   H20       1.0  0.14970  0.66410  0.56470  1.0000 0.110898052
H   H21       1.0  0.60680  0.28560  0.32170  1.0000 0.2881375714
H   H22       1.0  0.39320  0.28560  0.17830  1.0000 0.2881375714
H   H23       1.0  0.39320  0.71440  0.67830  1.0000 0.2881375714
H   H24       1.0  0.60680  0.71440  0.82170  1.0000 0.2881375714
H   H25       1.0  0.04830  0.08570  0.09360  1.0000 0.1396649233
H   H26       1.0  0.95170  0.08570  0.40640  1.0000 0.1396649233
H   H27       1.0  0.95170  0.91430  0.90640  1.0000 0.1396649233
H   H28       1.0  0.04830  0.91430  0.59360  1.0000 0.1396649233
H   H29       1.0  0.72590  0.04650  0.26060  1.0000 0.1005401129
H   H30       1.0  0.27410  0.04650  0.23940  1.0000 0.1005401129
H   H31       1.0  0.27410  0.95350  0.73940  1.0000 0.1005401129
H   H32       1.0  0.72590  0.95350  0.76060  1.0000 0.1005401129
H   H33       1.0  0.48000  0.28770  0.38710  1.0000 0.1296708369
H   H34       1.0  0.52000  0.28770  0.11290  1.0000 0.1296708369
H   H35       1.0  0.52000  0.71230  0.61290  1.0000 0.1296708369
H   H36       1.0  0.48000  0.71230  0.88710  1.0000 0.1296708369
H   H37       1.0  0.41770  0.18700  0.42970  1.0000 0.1296708369
H   H38       1.0  0.58230  0.18700  0.07030  1.0000 0.1296708369
H   H39       1.0  0.58230  0.81300  0.57030  1.0000 0.1296708369
H   H40       1.0  0.41770  0.81300  0.92970  1.0000 0.1296708369
H   H41       1.0  0.70610  0.31170  0.27220  1.0000 0.110898052
H   H42       1.0  0.29390  0.31170  0.22780  1.0000 0.110898052
H   H43       1.0  0.29390  0.68830  0.72780  1.0000 0.110898052
H   H44       1.0  0.70610  0.68830  0.77220  1.0000 0.110898052
H   H45       1.0  0.04420  0.39620  0.11200  1.0000 0.1215428184
H   H46       1.0  0.95580  0.39620  0.38800  1.0000 0.1215428184
H   H47       1.0  0.95580  0.60380  0.88800  1.0000 0.1215428184
H   H48       1.0  0.04420  0.60380  0.61200  1.0000 0.1215428184
H   H49       1.0  0.83160  0.06560  0.20840  1.0000 0.110898052
H   H50       1.0  0.16840  0.06560  0.29160  1.0000 0.110898052
H   H51       1.0  0.16840  0.93440  0.79160  1.0000 0.110898052
H   H52       1.0  0.83160  0.93440  0.70840  1.0000 0.110898052
H   H53       1.0  0.80350  0.32930  0.21930  1.0000 0.110898052
H   H54       1.0  0.19650  0.32930  0.28070  1.0000 0.110898052
H   H55       1.0  0.19650  0.67070  0.78070  1.0000 0.110898052
H   H56       1.0  0.80350  0.67070  0.71930  1.0000 0.110898052
H   H57       1.0  0.85950  0.75250  0.50230  1.0000 0.1452374361
H   H58       1.0  0.14050  0.75250  0.99770  1.0000 0.1452374361
H   H59       1.0  0.14050  0.24750  0.49770  1.0000 0.1452374361
H   H60       1.0  0.85950  0.24750  0.00230  1.0000 0.1452374361
H   H61       1.0  0.16930  0.66930  0.50920  1.0000 0.2967833444
H   H62       1.0  0.83070  0.66930  0.99080  1.0000 0.2967833444
H   H63       1.0  0.83070  0.33070  0.49080  1.0000 0.2967833444
H   H64       1.0  0.16930  0.33070  0.00920  1.0000 0.2967833444
H   H65       1.0  0.51680  0.62730  0.42630  1.0000 0.1215428184
H   H66       1.0  0.48320  0.62730  0.07370  1.0000 0.1215428184
H   H67       1.0  0.48320  0.37270  0.57370  1.0000 0.1215428184
H   H68       1.0  0.51680  0.37270  0.92630  1.0000 0.1215428184
H   H69       1.0  0.71290  0.52470  0.41520  1.0000 0.1296708369
H   H70       1.0  0.28710  0.52470  0.08480  1.0000 0.1296708369
H   H71       1.0  0.28710  0.47530  0.58480  1.0000 0.1296708369
H   H72       1.0  0.71290  0.47530  0.91520  1.0000 0.1296708369
H   H73       1.0  0.09010  0.75940  0.42590  1.0000 0.110898052
H   H74       1.0  0.90990  0.75940  0.07410  1.0000 0.110898052
H   H75       1.0  0.90990  0.24060  0.57410  1.0000 0.110898052
H   H76       1.0  0.09010  0.24060  0.92590  1.0000 0.110898052
H   H77       1.0  0.41610  0.62870  0.52510  1.0000 0.1296708369
H   H78       1.0  0.58390  0.62870  0.97490  1.0000 0.1296708369
H   H79       1.0  0.58390  0.37130  0.47490  1.0000 0.1296708369
H   H80       1.0  0.41610  0.37130  0.02510  1.0000 0.1296708369
H   H81       1.0  0.31540  0.42500  0.45450  1.0000 0.110898052
H   H82       1.0  0.68460  0.42500  0.04550  1.0000 0.110898052
H   H83       1.0  0.68460  0.57500  0.54550  1.0000 0.110898052
H   H84       1.0  0.31540  0.57500  0.95450  1.0000 0.110898052
H   H85       1.0  0.91400  0.70090  0.37870  1.0000 0.1215428184
H   H86       1.0  0.08600  0.70090  0.12130  1.0000 0.1215428184
H   H87       1.0  0.08600  0.29910  0.62130  1.0000 0.1215428184
H   H88       1.0  0.91400  0.29910  0.87870  1.0000 0.1215428184
H   H89       1.0  0.72700  0.73030  0.37220  1.0000 0.1296708369
H   H90       1.0  0.27300  0.73030  0.12780  1.0000 0.1296708369
H   H91       1.0  0.27300  0.26970  0.62780  1.0000 0.1296708369
H   H92       1.0  0.72700  0.26970  0.87220  1.0000 0.1296708369
H   H93       1.0  0.85030  0.77980  0.35220  1.0000 0.1296708369
H   H94       1.0  0.14970  0.77980  0.14780  1.0000 0.1296708369
H   H95       1.0  0.14970  0.22020  0.64780  1.0000 0.1296708369
H   H96       1.0  0.85030  0.22020  0.85220  1.0000 0.1296708369
H   H97       1.0  0.76950  0.92540  0.38790  1.0000 0.1215428184
H   H98       1.0  0.23050  0.92540  0.11210  1.0000 0.1215428184
H   H99       1.0  0.23050  0.07460  0.61210  1.0000 0.1215428184
H   H100      1.0  0.76950  0.07460  0.88790  1.0000 0.1215428184
H   H101      1.0  0.65660  0.85800  0.40360  1.0000 0.1396649233
H   H102      1.0  0.34340  0.85800  0.09640  1.0000 0.1396649233
H   H103      1.0  0.34340  0.14200  0.59640  1.0000 0.1396649233
H   H104      1.0  0.65660  0.14200  0.90360  1.0000 0.1396649233
H   H105      1.0  0.79500  0.91140  0.42990  1.0000 0.1630271389
H   H106      1.0  0.20500  0.91140  0.07010  1.0000 0.1630271389
H   H107      1.0  0.20500  0.08860  0.57010  1.0000 0.1630271389
H   H108      1.0  0.79500  0.08860  0.92990  1.0000 0.1630271389
H   H109      1.0  0.61980  0.03240  0.30780  1.0000 0.2685252889
H   H110      1.0  0.38020  0.03240  0.19220  1.0000 0.2685252889
H   H111      1.0  0.38020  0.96760  0.69220  1.0000 0.2685252889
H   H112      1.0  0.61980  0.96760  0.80780  1.0000 0.2685252889
H   H113      1.0  0.91380  0.34310  0.17200  1.0000 0.2766110911
H   H114      1.0  0.08620  0.34310  0.32800  1.0000 0.2766110911
H   H115      1.0  0.08620  0.65690  0.82800  1.0000 0.2766110911
H   H116      1.0  0.91380  0.65690  0.67200  1.0000 0.2766110911
H   H117      1.0  0.05610  0.48040  0.43970  1.0000 0.2766110911
H   H118      1.0  0.94390  0.48040  0.06030  1.0000 0.2766110911
H   H119      1.0  0.94390  0.51960  0.56030  1.0000 0.2766110911
H   H120      1.0  0.05610  0.51960  0.93970  1.0000 0.2766110911
C   C1        1.0  0.54470  0.09930  0.34777  1.0000 0.1005401129
C   C2        1.0  0.45530  0.09930  0.15223  1.0000 0.1005401129
C   C3        1.0  0.45530  0.90070  0.65223  1.0000 0.1005401129
C   C4        1.0  0.54470  0.90070  0.84777  1.0000 0.1005401129
C   C5        1.0  0.54330  0.76640  0.47189  1.0000 0.5565740629
C   C6        1.0  0.45670  0.76640  0.02811  1.0000 0.5565740629
C   C7        1.0  0.45670  0.23360  0.52811  1.0000 0.5565740629
C   C8        1.0  0.54330  0.23360  0.97189  1.0000 0.5565740629
C   C9        1.0  0.99210  0.18410  0.12648  1.0000 0.110898052
C   C10       1.0  0.00790  0.18410  0.37352  1.0000 0.110898052
C   C11       1.0  0.00790  0.81590  0.87352  1.0000 0.110898052
C   C12       1.0  0.99210  0.81590  0.62648  1.0000 0.110898052
C   C13       1.0  0.45510  0.07340  0.40288  1.0000 -0.0300569679
C   C14       1.0  0.54490  0.07340  0.09712  1.0000 -0.0300569679
C   C15       1.0  0.54490  0.92660  0.59712  1.0000 -0.0300569679
C   C16       1.0  0.45510  0.92660  0.90288  1.0000 -0.0300569679
C   C17       1.0  0.11010  0.20610  0.07461  1.0000 -0.0186623834
C   C18       1.0  0.88990  0.20610  0.42539  1.0000 -0.0186623834
C   C19       1.0  0.88990  0.79390  0.92539  1.0000 -0.0186623834
C   C20       1.0  0.11010  0.79390  0.57461  1.0000 -0.0186623834
C   C21       1.0  0.49660  0.03940  0.37185  1.0000 -0.2229946093
C   C22       1.0  0.50340  0.03940  0.12815  1.0000 -0.2229946093
C   C23       1.0  0.50340  0.96060  0.62815  1.0000 -0.2229946093
C   C24       1.0  0.49660  0.96060  0.87185  1.0000 -0.2229946093
C   C25       1.0  0.54020  0.19110  0.35397  1.0000 0.1005401129
C   C26       1.0  0.45980  0.19110  0.14603  1.0000 0.1005401129
C   C27       1.0  0.45980  0.80890  0.64603  1.0000 0.1005401129
C   C28       1.0  0.54020  0.80890  0.85397  1.0000 0.1005401129
C   C29       1.0  0.82960  0.19950  0.20848  1.0000 -0.0104535098
C   C30       1.0  0.17040  0.19950  0.29152  1.0000 -0.0104535098
C   C31       1.0  0.17040  0.80050  0.79152  1.0000 -0.0104535098
C   C32       1.0  0.82960  0.80050  0.70848  1.0000 -0.0104535098
C   C33       1.0  0.98970  0.27610  0.13220  1.0000 0.110898052
C   C34       1.0  0.01030  0.27610  0.36780  1.0000 0.110898052
C   C35       1.0  0.01030  0.72390  0.86780  1.0000 0.110898052
C   C36       1.0  0.98970  0.72390  0.63220  1.0000 0.110898052
C   C37       1.0  0.10840  0.29820  0.08037  1.0000 -0.1491716341
C   C38       1.0  0.89160  0.29820  0.41963  1.0000 -0.1491716341
C   C39       1.0  0.89160  0.70180  0.91963  1.0000 -0.1491716341
C   C40       1.0  0.10840  0.70180  0.58037  1.0000 -0.1491716341
C   C41       1.0  0.63640  0.16200  0.30453  1.0000 0.1970461472
C   C42       1.0  0.36360  0.16200  0.19547  1.0000 0.1970461472
C   C43       1.0  0.36360  0.83800  0.69547  1.0000 0.1970461472
C   C44       1.0  0.63640  0.83800  0.80453  1.0000 0.1970461472
C   C45       1.0  0.04980  0.14690  0.09750  1.0000 -0.2229946093
C   C46       1.0  0.95020  0.14690  0.40250  1.0000 -0.2229946093
C   C47       1.0  0.95020  0.85310  0.90250  1.0000 -0.2229946093
C   C48       1.0  0.04980  0.85310  0.59750  1.0000 -0.2229946093
C   C49       1.0  0.74260  0.10370  0.25250  1.0000 -0.1702498817
C   C50       1.0  0.25740  0.10370  0.24750  1.0000 -0.1702498817
C   C51       1.0  0.25740  0.89630  0.74750  1.0000 -0.1702498817
C   C52       1.0  0.74260  0.89630  0.75250  1.0000 -0.1702498817
C   C53       1.0  0.48810  0.22650  0.38387  1.0000 -0.1984411166
C   C54       1.0  0.51190  0.22650  0.11613  1.0000 -0.1984411166
C   C55       1.0  0.51190  0.77350  0.61613  1.0000 -0.1984411166
C   C56       1.0  0.48810  0.77350  0.88387  1.0000 -0.1984411166
C   C57       1.0  0.89520  0.21260  0.17515  1.0000 0.215506488
C   C58       1.0  0.10480  0.21260  0.32485  1.0000 0.215506488
C   C59       1.0  0.10480  0.78740  0.82485  1.0000 0.215506488
C   C60       1.0  0.89520  0.78740  0.67515  1.0000 0.215506488
C   C61       1.0  0.44880  0.16600  0.40876  1.0000 -0.1313644075
C   C62       1.0  0.55120  0.16600  0.09124  1.0000 -0.1313644075
C   C63       1.0  0.55120  0.83400  0.59124  1.0000 -0.1313644075
C   C64       1.0  0.44880  0.83400  0.90876  1.0000 -0.1313644075
C   C65       1.0  0.70480  0.17680  0.27170  1.0000 -0.0186623834
C   C66       1.0  0.29520  0.17680  0.22830  1.0000 -0.0186623834
C   C67       1.0  0.29520  0.82320  0.72830  1.0000 -0.0186623834
C   C68       1.0  0.70480  0.82320  0.77170  1.0000 -0.0186623834
C   C69       1.0  0.72960  0.26200  0.25934  1.0000 -0.1776139275
C   C70       1.0  0.27040  0.26200  0.24066  1.0000 -0.1776139275
C   C71       1.0  0.27040  0.73800  0.74066  1.0000 -0.1776139275
C   C72       1.0  0.72960  0.73800  0.75934  1.0000 -0.1776139275
C   C73       1.0  0.04710  0.33490  0.10870  1.0000 -0.2295888499
C   C74       1.0  0.95290  0.33490  0.39130  1.0000 -0.2295888499
C   C75       1.0  0.95290  0.66510  0.89130  1.0000 -0.2295888499
C   C76       1.0  0.04710  0.66510  0.60870  1.0000 -0.2295888499
C   C77       1.0  0.80570  0.11520  0.22100  1.0000 -0.1619483963
C   C78       1.0  0.19430  0.11520  0.27900  1.0000 -0.1619483963
C   C79       1.0  0.19430  0.88480  0.77900  1.0000 -0.1619483963
C   C80       1.0  0.80570  0.88480  0.72100  1.0000 -0.1619483963
C   C81       1.0  0.78970  0.27210  0.22770  1.0000 -0.1702498817
C   C82       1.0  0.21030  0.27210  0.27230  1.0000 -0.1702498817
C   C83       1.0  0.21030  0.72790  0.77230  1.0000 -0.1702498817
C   C84       1.0  0.78970  0.72790  0.72770  1.0000 -0.1702498817
C   C85       1.0  0.83000  0.70810  0.48492  1.0000 -0.192135869
C   C86       1.0  0.17000  0.70810  0.01508  1.0000 -0.192135869
C   C87       1.0  0.17000  0.29190  0.51508  1.0000 -0.192135869
C   C88       1.0  0.83000  0.29190  0.98492  1.0000 -0.192135869
C   C89       1.0  0.66860  0.70060  0.46496  1.0000 -0.0300569679
C   C90       1.0  0.33140  0.70060  0.03504  1.0000 -0.0300569679
C   C91       1.0  0.33140  0.29940  0.53504  1.0000 -0.0300569679
C   C92       1.0  0.66860  0.29940  0.96496  1.0000 -0.0300569679
C   C93       1.0  0.16530  0.56490  0.47663  1.0000 0.2881375714
C   C94       1.0  0.83470  0.56490  0.02337  1.0000 0.2881375714
C   C95       1.0  0.83470  0.43510  0.52337  1.0000 0.2881375714
C   C96       1.0  0.16530  0.43510  0.97663  1.0000 0.2881375714
C   C97       1.0  0.90570  0.57790  0.45254  1.0000 0.0856959722
C   C98       1.0  0.09430  0.57790  0.04746  1.0000 0.0856959722
C   C99       1.0  0.09430  0.42210  0.54746  1.0000 0.0856959722
C   C100      1.0  0.90570  0.42210  0.95254  1.0000 0.0856959722
C   C101      1.0  0.42590  0.01030  0.43128  1.0000 0.5943409964
C   C102      1.0  0.57410  0.01030  0.06872  1.0000 0.5943409964
C   C103      1.0  0.57410  0.98970  0.56872  1.0000 0.5943409964
C   C104      1.0  0.42590  0.98970  0.93128  1.0000 0.5943409964
C   C105      1.0  0.17940  0.16830  0.04410  1.0000 0.5445935293
C   C106      1.0  0.82060  0.16830  0.45590  1.0000 0.5445935293
C   C107      1.0  0.82060  0.83170  0.95590  1.0000 0.5445935293
C   C108      1.0  0.17940  0.83170  0.54410  1.0000 0.5445935293
C   C109      1.0  0.94490  0.64680  0.47793  1.0000 0.110898052
C   C110      1.0  0.05510  0.64680  0.02207  1.0000 0.110898052
C   C111      1.0  0.05510  0.35320  0.52207  1.0000 0.110898052
C   C112      1.0  0.94490  0.35320  0.97793  1.0000 0.110898052
C   C113      1.0  0.62600  0.63150  0.43912  1.0000 -0.1224099309
C   C114      1.0  0.37400  0.63150  0.06088  1.0000 -0.1224099309
C   C115      1.0  0.37400  0.36850  0.56088  1.0000 -0.1224099309
C   C116      1.0  0.62600  0.36850  0.93912  1.0000 -0.1224099309
C   C117      1.0  0.74210  0.56960  0.43234  1.0000 -0.2117449143
C   C118      1.0  0.25790  0.56960  0.06766  1.0000 -0.2117449143
C   C119      1.0  0.25790  0.43040  0.56766  1.0000 -0.2117449143
C   C120      1.0  0.74210  0.43040  0.93234  1.0000 -0.2117449143
C   C121      1.0  0.01970  0.80650  0.42850  1.0000 0.2594906627
C   C122      1.0  0.98030  0.80650  0.07150  1.0000 0.2594906627
C   C123      1.0  0.98030  0.19350  0.57150  1.0000 0.2594906627
C   C124      1.0  0.01970  0.19350  0.92850  1.0000 0.2594906627
C   C125      1.0  0.33800  0.53070  0.48831  1.0000 0.0092803738
C   C126      1.0  0.66200  0.53070  0.01169  1.0000 0.0092803738
C   C127      1.0  0.66200  0.46930  0.51169  1.0000 0.0092803738
C   C128      1.0  0.33800  0.46930  0.98831  1.0000 0.0092803738
C   C129      1.0  0.44990  0.57680  0.51523  1.0000 -0.1313644075
C   C130      1.0  0.55010  0.57680  0.98477  1.0000 -0.1313644075
C   C131      1.0  0.55010  0.42320  0.48477  1.0000 -0.1313644075
C   C132      1.0  0.44990  0.42320  0.01523  1.0000 -0.1313644075
C   C133      1.0  0.38850  0.45480  0.47279  1.0000 -0.1428135619
C   C134      1.0  0.61150  0.45480  0.02721  1.0000 -0.1428135619
C   C135      1.0  0.61150  0.54520  0.52721  1.0000 -0.1428135619
C   C136      1.0  0.38850  0.54520  0.97279  1.0000 -0.1428135619
C   C137      1.0  0.83930  0.75080  0.37430  1.0000 -0.3380963937
C   C138      1.0  0.16070  0.75080  0.12570  1.0000 -0.3380963937
C   C139      1.0  0.16070  0.24920  0.62570  1.0000 -0.3380963937
C   C140      1.0  0.83930  0.24920  0.87430  1.0000 -0.3380963937
C   C141      1.0  0.76650  0.88260  0.40670  1.0000 -0.2964408011
C   C142      1.0  0.23350  0.88260  0.09330  1.0000 -0.2964408011
C   C143      1.0  0.23350  0.11740  0.59330  1.0000 -0.2964408011
C   C144      1.0  0.76650  0.11740  0.90670  1.0000 -0.2964408011
N   N1        1.0  0.93250  0.14660  0.15432  1.0000 -0.3107117103
N   N2        1.0  0.06750  0.14660  0.34568  1.0000 -0.3107117103
N   N3        1.0  0.06750  0.85340  0.84568  1.0000 -0.3107117103
N   N4        1.0  0.93250  0.85340  0.65432  1.0000 -0.3107117103
N   N5        1.0  0.92820  0.29200  0.16274  1.0000 -0.3186964031
N   N6        1.0  0.07180  0.29200  0.33726  1.0000 -0.3186964031
N   N7        1.0  0.07180  0.70800  0.83726  1.0000 -0.3186964031
N   N8        1.0  0.92820  0.70800  0.66274  1.0000 -0.3186964031
N   N9        1.0  0.60520  0.08340  0.31701  1.0000 -0.3320264355
N   N10       1.0  0.39480  0.08340  0.18299  1.0000 -0.3320264355
N   N11       1.0  0.39480  0.91660  0.68299  1.0000 -0.3320264355
N   N12       1.0  0.60520  0.91660  0.81701  1.0000 -0.3320264355
N   N13       1.0  0.59750  0.22950  0.32547  1.0000 -0.3380963937
N   N14       1.0  0.40250  0.22950  0.17453  1.0000 -0.3380963937
N   N15       1.0  0.40250  0.77050  0.67453  1.0000 -0.3380963937
N   N16       1.0  0.59750  0.77050  0.82547  1.0000 -0.3380963937
N   N17       1.0  0.04760  0.52680  0.45260  1.0000 -0.3186964031
N   N18       1.0  0.95240  0.52680  0.04740  1.0000 -0.3186964031
N   N19       1.0  0.95240  0.47320  0.54740  1.0000 -0.3186964031
N   N20       1.0  0.04760  0.47320  0.95260  1.0000 -0.3186964031
N   N21       1.0  0.11070  0.63640  0.49269  1.0000 -0.3186964031
N   N22       1.0  0.88930  0.63640  0.00731  1.0000 -0.3186964031
N   N23       1.0  0.88930  0.36360  0.50731  1.0000 -0.3186964031
N   N24       1.0  0.11070  0.36360  0.99269  1.0000 -0.3186964031
N   N25       1.0  0.88010  0.81450  0.40481  1.0000 0.0381837427
N   N26       1.0  0.11990  0.81450  0.09519  1.0000 0.0381837427
N   N27       1.0  0.11990  0.18550  0.59519  1.0000 0.0381837427
N   N28       1.0  0.88010  0.18550  0.90481  1.0000 0.0381837427
O   O1        1.0  0.15240  0.08790  0.03448  1.0000 -0.5862977938
O   O2        1.0  0.84760  0.08790  0.46552  1.0000 -0.5862977938
O   O3        1.0  0.84760  0.91210  0.96552  1.0000 -0.5862977938
O   O4        1.0  0.15240  0.91210  0.53448  1.0000 -0.5862977938
O   O5        1.0  0.39150  0.76090  0.45573  1.0000 -0.6318299756
O   O6        1.0  0.60850  0.76090  0.04427  1.0000 -0.6318299756
O   O7        1.0  0.60850  0.23910  0.54427  1.0000 -0.6318299756
O   O8        1.0  0.39150  0.23910  0.95573  1.0000 -0.6318299756
O   O9        1.0  0.26940  0.21790  0.02792  1.0000 -0.6562627987
O   O10       1.0  0.73060  0.21790  0.47208  1.0000 -0.6562627987
O   O11       1.0  0.73060  0.78210  0.97208  1.0000 -0.6562627987
O   O12       1.0  0.26940  0.78210  0.52792  1.0000 -0.6562627987
O   O13       1.0  0.58880  0.82920  0.49419  1.0000 -0.6318299756
O   O14       1.0  0.41120  0.82920  0.00581  1.0000 -0.6318299756
O   O15       1.0  0.41120  0.17080  0.50581  1.0000 -0.6318299756
O   O16       1.0  0.58880  0.17080  0.99419  1.0000 -0.6318299756
O   O17       1.0  0.17800  0.04280  0.47945  1.0000 -0.7382901148
O   O18       1.0  0.82200  0.04280  0.02055  1.0000 -0.7344895438
O   O19       1.0  0.82200  0.95720  0.52055  1.0000 -0.7382901148
O   O20       1.0  0.17800  0.95720  0.97945  1.0000 -0.7382901148
O   O21       1.0  0.33650  0.94190  0.42280  1.0000 -0.6169367269
O   O22       1.0  0.66350  0.94190  0.07720  1.0000 -0.6169367269
O   O23       1.0  0.66350  0.05810  0.57720  1.0000 -0.6169367269
O   O24       1.0  0.33650  0.05810  0.92280  1.0000 -0.6169367269
O   O25       1.0  0.06270  0.85860  0.45433  1.0000 -0.5516889975
O   O26       1.0  0.93730  0.85860  0.04567  1.0000 -0.5516889975
O   O27       1.0  0.93730  0.14140  0.54567  1.0000 -0.5516889975
O   O28       1.0  0.06270  0.14140  0.95433  1.0000 -0.5516889975
O   O29       1.0  0.49420  0.02340  0.46489  1.0000 -0.7382901148
O   O30       1.0  0.50580  0.02340  0.03511  1.0000 -0.7382901148
O   O31       1.0  0.50580  0.97660  0.53511  1.0000 -0.7382901148
O   O32       1.0  0.49420  0.97660  0.96489  1.0000 -0.7382901148
