# DDEC6 charges by PACMAN v1.1 (https://github.com/mtap-research/PACMAN-charge/)
data_2014[Cu][nan]3[FSR]7
_chemical_formula_sum              "Cu16 H120 C160 N8 O48"
_cell_length_a       9.7186
_cell_length_b       19.306
_cell_length_c       25.346
_cell_angle_alpha    90
_cell_angle_beta     90
_cell_angle_gamma    90

_symmetry_space_group_name_H-M    "P 1"
_symmetry_Int_Tables_number       1

loop_
  _symmetry_equiv_pos_as_xyz
  'x, y, z'

loop_
  _atom_site_type_symbol
  _atom_site_label
  _atom_site_symmetry_multiplicity
  _atom_site_fract_x
  _atom_site_fract_y
  _atom_site_fract_z
  _atom_site_occupancy
  _atom_site_charge
Cu  Cu1       1.0  0.60847  0.55242  0.47555  1.0000 0.944941663
Cu  Cu2       1.0  0.89153  0.55242  0.52445  1.0000 0.944941663
Cu  Cu3       1.0  0.89153  0.94758  0.97555  1.0000 0.944941663
Cu  Cu4       1.0  0.60847  0.94758  0.02445  1.0000 0.944941663
Cu  Cu5       1.0  0.39153  0.44758  0.52445  1.0000 0.9507665402
Cu  Cu6       1.0  0.10847  0.44758  0.47555  1.0000 0.9507665402
Cu  Cu7       1.0  0.10847  0.05242  0.02445  1.0000 0.9507665402
Cu  Cu8       1.0  0.39153  0.05242  0.97555  1.0000 0.9507665402
Cu  Cu9       1.0  0.80833  0.44712  0.43433  1.0000 0.9507665402
Cu  Cu10      1.0  0.69167  0.44712  0.56567  1.0000 0.9507665402
Cu  Cu11      1.0  0.69167  0.05288  0.93433  1.0000 0.9553771846
Cu  Cu12      1.0  0.80833  0.05288  0.06567  1.0000 0.9507665402
Cu  Cu13      1.0  0.19167  0.55288  0.56567  1.0000 0.9553771846
Cu  Cu14      1.0  0.30833  0.55288  0.43433  1.0000 0.9553771846
Cu  Cu15      1.0  0.30833  0.94712  0.06567  1.0000 0.9507665402
Cu  Cu16      1.0  0.19167  0.94712  0.93433  1.0000 0.9507665402
H   H1        1.0  0.82490  0.82450  0.45550  1.0000 0.1271995736
H   H2        1.0  0.67510  0.82450  0.54450  1.0000 0.1271995736
H   H3        1.0  0.67510  0.67550  0.95550  1.0000 0.1271995736
H   H4        1.0  0.82490  0.67550  0.04450  1.0000 0.1271995736
H   H5        1.0  0.17510  0.17550  0.54450  1.0000 0.1271995736
H   H6        1.0  0.32490  0.17550  0.45550  1.0000 0.1271995736
H   H7        1.0  0.32490  0.32450  0.04450  1.0000 0.1271995736
H   H8        1.0  0.17510  0.32450  0.95550  1.0000 0.1271995736
H   H9        1.0  0.92450  0.92100  0.48900  1.0000 0.1142915411
H   H10       1.0  0.57550  0.92100  0.51100  1.0000 0.1142915411
H   H11       1.0  0.57550  0.57900  0.98900  1.0000 0.1142915411
H   H12       1.0  0.92450  0.57900  0.01100  1.0000 0.1142915411
H   H13       1.0  0.07550  0.07900  0.51100  1.0000 0.1142915411
H   H14       1.0  0.42450  0.07900  0.48900  1.0000 0.1142915411
H   H15       1.0  0.42450  0.42100  0.01100  1.0000 0.1142915411
H   H16       1.0  0.07550  0.42100  0.98900  1.0000 0.1142915411
H   H17       1.0  0.95080  0.01840  0.43810  1.0000 0.1200176201
H   H18       1.0  0.54920  0.01840  0.56190  1.0000 0.1200176201
H   H19       1.0  0.54920  0.48160  0.93810  1.0000 0.1200176201
H   H20       1.0  0.95080  0.48160  0.06190  1.0000 0.1200176201
H   H21       1.0  0.04920  0.98160  0.56190  1.0000 0.1200176201
H   H22       1.0  0.45080  0.98160  0.43810  1.0000 0.1200176201
H   H23       1.0  0.45080  0.51840  0.06190  1.0000 0.1200176201
H   H24       1.0  0.04920  0.51840  0.93810  1.0000 0.1200176201
H   H25       1.0  0.76240  0.92270  0.31940  1.0000 0.1271995736
H   H26       1.0  0.73760  0.92270  0.68060  1.0000 0.1271995736
H   H27       1.0  0.73760  0.57730  0.81940  1.0000 0.1271995736
H   H28       1.0  0.76240  0.57730  0.18060  1.0000 0.1271995736
H   H29       1.0  0.23760  0.07730  0.68060  1.0000 0.1271995736
H   H30       1.0  0.26240  0.07730  0.31940  1.0000 0.1271995736
H   H31       1.0  0.26240  0.42270  0.18060  1.0000 0.1271995736
H   H32       1.0  0.23760  0.42270  0.81940  1.0000 0.1271995736
H   H33       1.0  0.74810  0.82430  0.37040  1.0000 0.1200176201
H   H34       1.0  0.75190  0.82430  0.62960  1.0000 0.1200176201
H   H35       1.0  0.75190  0.67570  0.87040  1.0000 0.1200176201
H   H36       1.0  0.74810  0.67570  0.12960  1.0000 0.1200176201
H   H37       1.0  0.25190  0.17570  0.62960  1.0000 0.1200176201
H   H38       1.0  0.24810  0.17570  0.37040  1.0000 0.1200176201
H   H39       1.0  0.24810  0.32430  0.12960  1.0000 0.1200176201
H   H40       1.0  0.25190  0.32430  0.87040  1.0000 0.1200176201
H   H41       1.0  0.67530  0.07510  0.40020  1.0000 0.1200176201
H   H42       1.0  0.82470  0.07510  0.59980  1.0000 0.1200176201
H   H43       1.0  0.82470  0.42490  0.90020  1.0000 0.1200176201
H   H44       1.0  0.67530  0.42490  0.09980  1.0000 0.1200176201
H   H45       1.0  0.32470  0.92490  0.59980  1.0000 0.1200176201
H   H46       1.0  0.17530  0.92490  0.40020  1.0000 0.1200176201
H   H47       1.0  0.17530  0.57510  0.09980  1.0000 0.1200176201
H   H48       1.0  0.32470  0.57510  0.90020  1.0000 0.1200176201
H   H49       1.0  0.61830  0.18180  0.43540  1.0000 0.1142915411
H   H50       1.0  0.88170  0.18180  0.56460  1.0000 0.1142915411
H   H51       1.0  0.88170  0.31820  0.93540  1.0000 0.1142915411
H   H52       1.0  0.61830  0.31820  0.06460  1.0000 0.1142915411
H   H53       1.0  0.38170  0.81820  0.56460  1.0000 0.1142915411
H   H54       1.0  0.11830  0.81820  0.43540  1.0000 0.1142915411
H   H55       1.0  0.11830  0.68180  0.06460  1.0000 0.1142915411
H   H56       1.0  0.38170  0.68180  0.93540  1.0000 0.1142915411
H   H57       1.0  0.94840  0.26550  0.36580  1.0000 0.1200176201
H   H58       1.0  0.55160  0.26550  0.63420  1.0000 0.1200176201
H   H59       1.0  0.55160  0.23450  0.86580  1.0000 0.1200176201
H   H60       1.0  0.94840  0.23450  0.13420  1.0000 0.1200176201
H   H61       1.0  0.05160  0.73450  0.63420  1.0000 0.1200176201
H   H62       1.0  0.44840  0.73450  0.36580  1.0000 0.1200176201
H   H63       1.0  0.44840  0.76550  0.13420  1.0000 0.1200176201
H   H64       1.0  0.05160  0.76550  0.86580  1.0000 0.1200176201
H   H65       1.0  0.00450  0.15860  0.33120  1.0000 0.1200176201
H   H66       1.0  0.49550  0.15860  0.66880  1.0000 0.1200176201
H   H67       1.0  0.49550  0.34140  0.83120  1.0000 0.1200176201
H   H68       1.0  0.00450  0.34140  0.16880  1.0000 0.1200176201
H   H69       1.0  0.99550  0.84140  0.66880  1.0000 0.1200176201
H   H70       1.0  0.50450  0.84140  0.33120  1.0000 0.1200176201
H   H71       1.0  0.50450  0.65860  0.16880  1.0000 0.1200176201
H   H72       1.0  0.99550  0.65860  0.83120  1.0000 0.1200176201
H   H73       1.0  0.84810  0.11800  0.25750  1.0000 0.1200176201
H   H74       1.0  0.65190  0.11800  0.74250  1.0000 0.1200176201
H   H75       1.0  0.65190  0.38200  0.75750  1.0000 0.1200176201
H   H76       1.0  0.84810  0.38200  0.24250  1.0000 0.1200176201
H   H77       1.0  0.15190  0.88200  0.74250  1.0000 0.1200176201
H   H78       1.0  0.34810  0.88200  0.25750  1.0000 0.1200176201
H   H79       1.0  0.34810  0.61800  0.24250  1.0000 0.1200176201
H   H80       1.0  0.15190  0.61800  0.75750  1.0000 0.1200176201
H   H81       1.0  0.93340  0.10390  0.17320  1.0000 0.1271995736
H   H82       1.0  0.56660  0.10390  0.82680  1.0000 0.1271995736
H   H83       1.0  0.56660  0.39610  0.67320  1.0000 0.1271995736
H   H84       1.0  0.93340  0.39610  0.32680  1.0000 0.1271995736
H   H85       1.0  0.06660  0.89610  0.82680  1.0000 0.1271995736
H   H86       1.0  0.43340  0.89610  0.17320  1.0000 0.1271995736
H   H87       1.0  0.43340  0.60390  0.32680  1.0000 0.1271995736
H   H88       1.0  0.06660  0.60390  0.67320  1.0000 0.1271995736
H   H89       1.0  0.13190  0.93300  0.21960  1.0000 0.1200176201
H   H90       1.0  0.36810  0.93300  0.78040  1.0000 0.1200176201
H   H91       1.0  0.36810  0.56700  0.71960  1.0000 0.1200176201
H   H92       1.0  0.13190  0.56700  0.28040  1.0000 0.1200176201
H   H93       1.0  0.86810  0.06700  0.78040  1.0000 0.1200176201
H   H94       1.0  0.63190  0.06700  0.21960  1.0000 0.1200176201
H   H95       1.0  0.63190  0.43300  0.28040  1.0000 0.1200176201
H   H96       1.0  0.86810  0.43300  0.71960  1.0000 0.1200176201
H   H97       1.0  0.04560  0.94690  0.30330  1.0000 0.1200176201
H   H98       1.0  0.45440  0.94690  0.69670  1.0000 0.1200176201
H   H99       1.0  0.45440  0.55310  0.80330  1.0000 0.1200176201
H   H100      1.0  0.04560  0.55310  0.19670  1.0000 0.1200176201
H   H101      1.0  0.95440  0.05310  0.69670  1.0000 0.1200176201
H   H102      1.0  0.54560  0.05310  0.30330  1.0000 0.1200176201
H   H103      1.0  0.54560  0.44690  0.19670  1.0000 0.1200176201
H   H104      1.0  0.95440  0.44690  0.80330  1.0000 0.1200176201
H   H105      1.0  0.86500  0.57680  0.45360  1.0000 0.3791355424
H   H106      1.0  0.63500  0.57680  0.54640  1.0000 0.3791355424
H   H107      1.0  0.63500  0.92320  0.95360  1.0000 0.3791355424
H   H108      1.0  0.86500  0.92320  0.04640  1.0000 0.3791355424
H   H109      1.0  0.13500  0.42320  0.54640  1.0000 0.3791355424
H   H110      1.0  0.36500  0.42320  0.45360  1.0000 0.3791355424
H   H111      1.0  0.36500  0.07680  0.04640  1.0000 0.3791355424
H   H112      1.0  0.13500  0.07680  0.95360  1.0000 0.3791355424
H   H113      1.0  0.40590  0.60610  0.50730  1.0000 0.3634280309
H   H114      1.0  0.09410  0.60610  0.49270  1.0000 0.3634280309
H   H115      1.0  0.09410  0.89390  0.00730  1.0000 0.3634280309
H   H116      1.0  0.40590  0.89390  0.99270  1.0000 0.3634280309
H   H117      1.0  0.59410  0.39390  0.49270  1.0000 0.3634280309
H   H118      1.0  0.90590  0.39390  0.50730  1.0000 0.3634280309
H   H119      1.0  0.90590  0.10610  0.99270  1.0000 0.3634280309
H   H120      1.0  0.59410  0.10610  0.00730  1.0000 0.3634280309
C   C1        1.0  0.83410  0.86397  0.43469  1.0000 -0.114543318
C   C2        1.0  0.66590  0.86397  0.56531  1.0000 -0.114543318
C   C3        1.0  0.66590  0.63603  0.93469  1.0000 -0.1150980361
C   C4        1.0  0.83410  0.63603  0.06531  1.0000 -0.114543318
C   C5        1.0  0.16590  0.13603  0.56531  1.0000 -0.1150980361
C   C6        1.0  0.33410  0.13603  0.43469  1.0000 -0.1150980361
C   C7        1.0  0.33410  0.36397  0.06531  1.0000 -0.114543318
C   C8        1.0  0.16590  0.36397  0.93469  1.0000 -0.1150980361
C   C9        1.0  0.89330  0.92095  0.45435  1.0000 -0.0892293538
C   C10       1.0  0.60670  0.92095  0.54565  1.0000 -0.0892293538
C   C11       1.0  0.60670  0.57905  0.95435  1.0000 -0.0892293538
C   C12       1.0  0.89330  0.57905  0.04565  1.0000 -0.0892293538
C   C13       1.0  0.10670  0.07905  0.54565  1.0000 -0.0892293538
C   C14       1.0  0.39330  0.07905  0.45435  1.0000 -0.0892293538
C   C15       1.0  0.39330  0.42095  0.04565  1.0000 -0.0892293538
C   C16       1.0  0.10670  0.42095  0.95435  1.0000 -0.0892293538
C   C17       1.0  0.90870  0.97935  0.42403  1.0000 -0.1899529967
C   C18       1.0  0.59130  0.97935  0.57597  1.0000 -0.1899529967
C   C19       1.0  0.59130  0.52065  0.92403  1.0000 -0.1899529967
C   C20       1.0  0.90870  0.52065  0.07597  1.0000 -0.1899529967
C   C21       1.0  0.09130  0.02065  0.57597  1.0000 -0.1899529967
C   C22       1.0  0.40870  0.02065  0.42403  1.0000 -0.1899529967
C   C23       1.0  0.40870  0.47935  0.07597  1.0000 -0.1899529967
C   C24       1.0  0.09130  0.47935  0.92403  1.0000 -0.1899529967
C   C25       1.0  0.86170  0.98016  0.37250  1.0000 0.1670579396
C   C26       1.0  0.63830  0.98016  0.62750  1.0000 0.1670579396
C   C27       1.0  0.63830  0.51984  0.87250  1.0000 0.1670579396
C   C28       1.0  0.86170  0.51984  0.12750  1.0000 0.1670579396
C   C29       1.0  0.13830  0.01984  0.62750  1.0000 0.1670579396
C   C30       1.0  0.36170  0.01984  0.37250  1.0000 0.1670579396
C   C31       1.0  0.36170  0.48016  0.12750  1.0000 0.1670579396
C   C32       1.0  0.13830  0.48016  0.87250  1.0000 0.1670579396
C   C33       1.0  0.79850  0.92267  0.35340  1.0000 -0.176803983
C   C34       1.0  0.70150  0.92267  0.64660  1.0000 -0.176803983
C   C35       1.0  0.70150  0.57733  0.85340  1.0000 -0.176803983
C   C36       1.0  0.79850  0.57733  0.14660  1.0000 -0.176803983
C   C37       1.0  0.20150  0.07733  0.64660  1.0000 -0.176803983
C   C38       1.0  0.29850  0.07733  0.35340  1.0000 -0.176803983
C   C39       1.0  0.29850  0.42267  0.14660  1.0000 -0.176803983
C   C40       1.0  0.20150  0.42267  0.85340  1.0000 -0.176803983
C   C41       1.0  0.78770  0.86419  0.38433  1.0000 -0.0892293538
C   C42       1.0  0.71230  0.86419  0.61567  1.0000 -0.0892293538
C   C43       1.0  0.71230  0.63581  0.88433  1.0000 -0.0892293538
C   C44       1.0  0.78770  0.63581  0.11567  1.0000 -0.0892293538
C   C45       1.0  0.21230  0.13581  0.61567  1.0000 -0.0892293538
C   C46       1.0  0.28770  0.13581  0.38433  1.0000 -0.0892293538
C   C47       1.0  0.28770  0.36419  0.11567  1.0000 -0.0892293538
C   C48       1.0  0.21230  0.36419  0.88433  1.0000 -0.0892293538
C   C49       1.0  0.84610  0.10604  0.36181  1.0000 0.1759808239
C   C50       1.0  0.65390  0.10604  0.63819  1.0000 0.1759808239
C   C51       1.0  0.65390  0.39396  0.86181  1.0000 0.1759808239
C   C52       1.0  0.84610  0.39396  0.13819  1.0000 0.1759808239
C   C53       1.0  0.15390  0.89396  0.63819  1.0000 0.1759808239
C   C54       1.0  0.34610  0.89396  0.36181  1.0000 0.1759808239
C   C55       1.0  0.34610  0.60604  0.13819  1.0000 0.1759808239
C   C56       1.0  0.15390  0.60604  0.86181  1.0000 0.1759808239
C   C57       1.0  0.73050  0.11339  0.39317  1.0000 -0.1899529967
C   C58       1.0  0.76950  0.11339  0.60683  1.0000 -0.1899529967
C   C59       1.0  0.76950  0.38661  0.89317  1.0000 -0.1899529967
C   C60       1.0  0.73050  0.38661  0.10683  1.0000 -0.1899529967
C   C61       1.0  0.26950  0.88661  0.60683  1.0000 -0.1899529967
C   C62       1.0  0.23050  0.88661  0.39317  1.0000 -0.1899529967
C   C63       1.0  0.23050  0.61339  0.10683  1.0000 -0.1899529967
C   C64       1.0  0.26950  0.61339  0.89317  1.0000 -0.1899529967
C   C65       1.0  0.69610  0.17757  0.41431  1.0000 -0.0892293538
C   C66       1.0  0.80390  0.17757  0.58569  1.0000 -0.0892293538
C   C67       1.0  0.80390  0.32243  0.91431  1.0000 -0.0892293538
C   C68       1.0  0.69610  0.32243  0.08569  1.0000 -0.0892293538
C   C69       1.0  0.30390  0.82243  0.58569  1.0000 -0.0892293538
C   C70       1.0  0.19610  0.82243  0.41431  1.0000 -0.0892293538
C   C71       1.0  0.19610  0.67757  0.08569  1.0000 -0.0892293538
C   C72       1.0  0.30390  0.67757  0.91431  1.0000 -0.0892293538
C   C73       1.0  0.77601  0.23495  0.40430  1.0000 -0.0259862255
C   C74       1.0  0.72399  0.23495  0.59570  1.0000 -0.0259862255
C   C75       1.0  0.72399  0.26505  0.90430  1.0000 -0.0259862255
C   C76       1.0  0.77601  0.26505  0.09570  1.0000 -0.0259862255
C   C77       1.0  0.22399  0.76505  0.59570  1.0000 -0.0259862255
C   C78       1.0  0.27601  0.76505  0.40430  1.0000 -0.0259862255
C   C79       1.0  0.27601  0.73495  0.09570  1.0000 -0.0259862255
C   C80       1.0  0.22399  0.73495  0.90430  1.0000 -0.0259862255
C   C81       1.0  0.89290  0.22735  0.37283  1.0000 -0.0892293538
C   C82       1.0  0.60710  0.22735  0.62717  1.0000 -0.0892293538
C   C83       1.0  0.60710  0.27265  0.87283  1.0000 -0.0892293538
C   C84       1.0  0.89290  0.27265  0.12717  1.0000 -0.0892293538
C   C85       1.0  0.10710  0.77265  0.62717  1.0000 -0.0892293538
C   C86       1.0  0.39290  0.77265  0.37283  1.0000 -0.0892293538
C   C87       1.0  0.39290  0.72735  0.12717  1.0000 -0.0892293538
C   C88       1.0  0.10710  0.72735  0.87283  1.0000 -0.0892293538
C   C89       1.0  0.92640  0.16312  0.35206  1.0000 -0.1992454968
C   C90       1.0  0.57360  0.16312  0.64794  1.0000 -0.1992454968
C   C91       1.0  0.57360  0.33688  0.85206  1.0000 -0.1992454968
C   C92       1.0  0.92640  0.33688  0.14794  1.0000 -0.1992454968
C   C93       1.0  0.07360  0.83688  0.64794  1.0000 -0.1992454968
C   C94       1.0  0.42640  0.83688  0.35206  1.0000 -0.1992454968
C   C95       1.0  0.42640  0.66312  0.14794  1.0000 -0.1992454968
C   C96       1.0  0.07360  0.66312  0.85206  1.0000 -0.1992454968
C   C97       1.0  0.93579  0.03367  0.28956  1.0000 0.1868459683
C   C98       1.0  0.56421  0.03367  0.71044  1.0000 0.1868459683
C   C99       1.0  0.56421  0.46633  0.78956  1.0000 0.1868459683
C   C100      1.0  0.93579  0.46633  0.21044  1.0000 0.1868459683
C   C101      1.0  0.06421  0.96633  0.71044  1.0000 0.1868459683
C   C102      1.0  0.43579  0.96633  0.28956  1.0000 0.1868459683
C   C103      1.0  0.43579  0.53367  0.21044  1.0000 0.1868459683
C   C104      1.0  0.06421  0.53367  0.78956  1.0000 0.1868459683
C   C105      1.0  0.90464  0.08042  0.25002  1.0000 -0.1992454968
C   C106      1.0  0.59536  0.08042  0.74998  1.0000 -0.1992454968
C   C107      1.0  0.59536  0.41958  0.75002  1.0000 -0.1992454968
C   C108      1.0  0.90464  0.41958  0.24998  1.0000 -0.1992454968
C   C109      1.0  0.09536  0.91958  0.74998  1.0000 -0.1992454968
C   C110      1.0  0.40464  0.91958  0.25002  1.0000 -0.1992454968
C   C111      1.0  0.40464  0.58042  0.24998  1.0000 -0.1992454968
C   C112      1.0  0.09536  0.58042  0.75002  1.0000 -0.1992454968
C   C113      1.0  0.95649  0.07212  0.19932  1.0000 -0.0722339574
C   C114      1.0  0.54351  0.07212  0.80068  1.0000 -0.0722339574
C   C115      1.0  0.54351  0.42788  0.69932  1.0000 -0.0722339574
C   C116      1.0  0.95649  0.42788  0.30068  1.0000 -0.0722339574
C   C117      1.0  0.04351  0.92788  0.80068  1.0000 -0.0722339574
C   C118      1.0  0.45649  0.92788  0.19932  1.0000 -0.0722339574
C   C119      1.0  0.45649  0.57212  0.30068  1.0000 -0.0722339574
C   C120      1.0  0.04351  0.57212  0.69932  1.0000 -0.0722339574
C   C121      1.0  0.04163  0.01739  0.18734  1.0000 -0.0452894188
C   C122      1.0  0.45837  0.01739  0.81266  1.0000 -0.0452894188
C   C123      1.0  0.45837  0.48261  0.68734  1.0000 -0.0452894188
C   C124      1.0  0.04163  0.48261  0.31266  1.0000 -0.0452894188
C   C125      1.0  0.95837  0.98261  0.81266  1.0000 -0.0452894188
C   C126      1.0  0.54163  0.98261  0.18734  1.0000 -0.0452894188
C   C127      1.0  0.54163  0.51739  0.31266  1.0000 -0.0452894188
C   C128      1.0  0.95837  0.51739  0.68734  1.0000 -0.0452894188
C   C129      1.0  0.07450  0.97030  0.22698  1.0000 -0.0831555493
C   C130      1.0  0.42550  0.97030  0.77302  1.0000 -0.0831555493
C   C131      1.0  0.42550  0.52970  0.72698  1.0000 -0.0831555493
C   C132      1.0  0.07450  0.52970  0.27302  1.0000 -0.0831555493
C   C133      1.0  0.92550  0.02970  0.77302  1.0000 -0.0831555493
C   C134      1.0  0.57450  0.02970  0.22698  1.0000 -0.0831555493
C   C135      1.0  0.57450  0.47030  0.27302  1.0000 -0.0831555493
C   C136      1.0  0.92550  0.47030  0.72698  1.0000 -0.0831555493
C   C137      1.0  0.02240  0.97865  0.27723  1.0000 -0.1992454968
C   C138      1.0  0.47760  0.97865  0.72277  1.0000 -0.1992454968
C   C139      1.0  0.47760  0.52135  0.77723  1.0000 -0.1992454968
C   C140      1.0  0.02240  0.52135  0.22277  1.0000 -0.1992454968
C   C141      1.0  0.97760  0.02135  0.72277  1.0000 -0.1992454968
C   C142      1.0  0.52240  0.02135  0.27723  1.0000 -0.1992454968
C   C143      1.0  0.52240  0.47865  0.22277  1.0000 -0.1992454968
C   C144      1.0  0.97760  0.47865  0.77723  1.0000 -0.1992454968
C   C145      1.0  0.09764  0.00810  0.13325  1.0000 0.589127817
C   C146      1.0  0.40236  0.00810  0.86675  1.0000 0.589127817
C   C147      1.0  0.40236  0.49190  0.63325  1.0000 0.589127817
C   C148      1.0  0.09764  0.49190  0.36675  1.0000 0.589127817
C   C149      1.0  0.90236  0.99190  0.86675  1.0000 0.589127817
C   C150      1.0  0.59764  0.99190  0.13325  1.0000 0.589127817
C   C151      1.0  0.59764  0.50810  0.36675  1.0000 0.589127817
C   C152      1.0  0.90236  0.50810  0.63325  1.0000 0.589127817
C   C153      1.0  0.73652  0.30457  0.42531  1.0000 0.5623858802
C   C154      1.0  0.76348  0.30457  0.57469  1.0000 0.5623858802
C   C155      1.0  0.76348  0.19543  0.92531  1.0000 0.5623858802
C   C156      1.0  0.73652  0.19543  0.07469  1.0000 0.5623858802
C   C157      1.0  0.26348  0.69543  0.57469  1.0000 0.5623858802
C   C158      1.0  0.23652  0.69543  0.42531  1.0000 0.5623858802
C   C159      1.0  0.23652  0.80457  0.07469  1.0000 0.5623858802
C   C160      1.0  0.26348  0.80457  0.92531  1.0000 0.5623858802
N   N1        1.0  0.88011  0.04060  0.34043  1.0000 -0.1899529967
N   N2        1.0  0.61989  0.04060  0.65957  1.0000 -0.1899529967
N   N3        1.0  0.61989  0.45940  0.84043  1.0000 -0.1899529967
N   N4        1.0  0.88011  0.45940  0.15957  1.0000 -0.1899529967
N   N5        1.0  0.11989  0.95940  0.65957  1.0000 -0.1899529967
N   N6        1.0  0.38011  0.95940  0.34043  1.0000 -0.1899529967
N   N7        1.0  0.38011  0.54060  0.15957  1.0000 -0.1899529967
N   N8        1.0  0.11989  0.54060  0.84043  1.0000 -0.1899529967
O   O1        1.0  0.04499  0.04532  0.09702  1.0000 -0.5751392014
O   O2        1.0  0.45501  0.04532  0.90298  1.0000 -0.5751392014
O   O3        1.0  0.45501  0.45468  0.59702  1.0000 -0.5751392014
O   O4        1.0  0.04499  0.45468  0.40298  1.0000 -0.5751392014
O   O5        1.0  0.95501  0.95468  0.90298  1.0000 -0.5751392014
O   O6        1.0  0.54499  0.95468  0.09702  1.0000 -0.5744982131
O   O7        1.0  0.54499  0.54532  0.40298  1.0000 -0.5744982131
O   O8        1.0  0.95501  0.54532  0.59702  1.0000 -0.5744982131
O   O9        1.0  0.19273  0.96461  0.12684  1.0000 -0.5194669209
O   O10       1.0  0.30727  0.96461  0.87316  1.0000 -0.5194669209
O   O11       1.0  0.30727  0.53539  0.62684  1.0000 -0.5194669209
O   O12       1.0  0.19273  0.53539  0.37316  1.0000 -0.5194669209
O   O13       1.0  0.80727  0.03539  0.87316  1.0000 -0.5194669209
O   O14       1.0  0.69273  0.03539  0.12684  1.0000 -0.5194669209
O   O15       1.0  0.69273  0.46461  0.37316  1.0000 -0.5194669209
O   O16       1.0  0.80727  0.46461  0.62684  1.0000 -0.5194669209
O   O17       1.0  0.62898  0.31234  0.45007  1.0000 -0.5194669209
O   O18       1.0  0.87102  0.31234  0.54993  1.0000 -0.5194669209
O   O19       1.0  0.87102  0.18766  0.95007  1.0000 -0.5194669209
O   O20       1.0  0.62898  0.18766  0.04993  1.0000 -0.5194669209
O   O21       1.0  0.37102  0.68766  0.54993  1.0000 -0.5194669209
O   O22       1.0  0.12898  0.68766  0.45007  1.0000 -0.5194669209
O   O23       1.0  0.12898  0.81234  0.04993  1.0000 -0.5194669209
O   O24       1.0  0.37102  0.81234  0.95007  1.0000 -0.5194669209
O   O25       1.0  0.82408  0.35204  0.41538  1.0000 -0.5444425709
O   O26       1.0  0.67592  0.35204  0.58462  1.0000 -0.5444425709
O   O27       1.0  0.67592  0.14796  0.91538  1.0000 -0.5444425709
O   O28       1.0  0.82408  0.14796  0.08462  1.0000 -0.5444425709
O   O29       1.0  0.17592  0.64796  0.58462  1.0000 -0.5444425709
O   O30       1.0  0.32408  0.64796  0.41538  1.0000 -0.5444425709
O   O31       1.0  0.32408  0.85204  0.08462  1.0000 -0.5444425709
O   O32       1.0  0.17592  0.85204  0.91538  1.0000 -0.5444425709
O   O33       1.0  0.80237  0.54609  0.45422  1.0000 -0.8162706338
O   O34       1.0  0.69763  0.54609  0.54578  1.0000 -0.8162706338
O   O35       1.0  0.69763  0.95391  0.95422  1.0000 -0.8162706338
O   O36       1.0  0.80237  0.95391  0.04578  1.0000 -0.8162706338
O   O37       1.0  0.19763  0.45391  0.54578  1.0000 -0.8162706338
O   O38       1.0  0.30237  0.45391  0.45422  1.0000 -0.8162706338
O   O39       1.0  0.30237  0.04609  0.04578  1.0000 -0.8162706338
O   O40       1.0  0.19763  0.04609  0.95422  1.0000 -0.8162706338
O   O41       1.0  0.41886  0.56426  0.49808  1.0000 -0.877285815
O   O42       1.0  0.08114  0.56426  0.50192  1.0000 -0.877285815
O   O43       1.0  0.08114  0.93574  0.99808  1.0000 -0.877285815
O   O44       1.0  0.41886  0.93574  0.00192  1.0000 -0.877285815
O   O45       1.0  0.58114  0.43574  0.50192  1.0000 -0.877285815
O   O46       1.0  0.91886  0.43574  0.49808  1.0000 -0.877285815
O   O47       1.0  0.91886  0.06426  0.00192  1.0000 -0.877285815
O   O48       1.0  0.58114  0.06426  0.99808  1.0000 -0.877285815
