# DDEC6 charges by PACMAN v1.1 (https://github.com/mtap-research/PACMAN-charge/)
data_2014[Mn][dia]3[FSR]2
_chemical_formula_sum              "Mn4 H112 C88 N16 O24"
_cell_length_a       20.799
_cell_length_b       5.501
_cell_length_c       22.297
_cell_angle_alpha    90
_cell_angle_beta     97.543
_cell_angle_gamma    90

_symmetry_space_group_name_H-M    "P 1"
_symmetry_Int_Tables_number       1

loop_
  _symmetry_equiv_pos_as_xyz
  'x, y, z'

loop_
  _atom_site_type_symbol
  _atom_site_label
  _atom_site_symmetry_multiplicity
  _atom_site_fract_x
  _atom_site_fract_y
  _atom_site_fract_z
  _atom_site_occupancy
  _atom_site_charge
Mn  Mn1       1.0  0.20071  0.81180  0.78785  1.0000 0.920773811
Mn  Mn2       1.0  0.29929  0.31180  0.21215  1.0000 0.920773811
Mn  Mn3       1.0  0.79929  0.18820  0.21215  1.0000 0.920773811
Mn  Mn4       1.0  0.70071  0.68820  0.78785  1.0000 0.920773811
H   H1        1.0  0.03010  0.30140  0.77120  1.0000 0.0989470035
H   H2        1.0  0.46990  0.80140  0.22880  1.0000 0.0989470035
H   H3        1.0  0.96990  0.69860  0.22880  1.0000 0.0989470035
H   H4        1.0  0.53010  0.19860  0.77120  1.0000 0.0989470035
H   H5        1.0  0.93480  0.57110  0.82250  1.0000 0.0989470035
H   H6        1.0  0.56520  0.07110  0.17750  1.0000 0.0989470035
H   H7        1.0  0.06520  0.42890  0.17750  1.0000 0.0989470035
H   H8        1.0  0.43480  0.92890  0.82250  1.0000 0.0989470035
H   H9        1.0  0.97720  0.36620  0.85720  1.0000 0.0898352974
H   H10       1.0  0.52280  0.86620  0.14280  1.0000 0.0898352974
H   H11       1.0  0.02280  0.63380  0.14280  1.0000 0.0898352974
H   H12       1.0  0.47720  0.13380  0.85720  1.0000 0.0898352974
H   H13       1.0  0.87550  0.20550  0.81770  1.0000 0.0989470035
H   H14       1.0  0.62450  0.70550  0.18230  1.0000 0.0989470035
H   H15       1.0  0.12450  0.79450  0.18230  1.0000 0.0989470035
H   H16       1.0  0.37550  0.29450  0.81770  1.0000 0.0989470035
H   H17       1.0  0.93020  0.07410  0.78770  1.0000 0.11163219
H   H18       1.0  0.56980  0.57410  0.21230  1.0000 0.11163219
H   H19       1.0  0.06980  0.92590  0.21230  1.0000 0.11163219
H   H20       1.0  0.43020  0.42590  0.78770  1.0000 0.11163219
H   H21       1.0  0.85120  0.16400  0.71070  1.0000 0.11163219
H   H22       1.0  0.64880  0.66400  0.28930  1.0000 0.11163219
H   H23       1.0  0.14880  0.83600  0.28930  1.0000 0.11163219
H   H24       1.0  0.35120  0.33600  0.71070  1.0000 0.11163219
H   H25       1.0  0.94710  0.21660  0.67630  1.0000 0.0989470035
H   H26       1.0  0.55290  0.71660  0.32370  1.0000 0.0989470035
H   H27       1.0  0.05290  0.78340  0.32370  1.0000 0.0989470035
H   H28       1.0  0.44710  0.28340  0.67630  1.0000 0.0989470035
H   H29       1.0  0.90420  0.43420  0.64910  1.0000 0.0898352974
H   H30       1.0  0.59580  0.93420  0.35090  1.0000 0.0898352974
H   H31       1.0  0.09580  0.56580  0.35090  1.0000 0.0898352974
H   H32       1.0  0.40420  0.06580  0.64910  1.0000 0.0898352974
H   H33       1.0  0.01060  0.56300  0.68790  1.0000 0.0898352974
H   H34       1.0  0.48940  0.06300  0.31210  1.0000 0.0898352974
H   H35       1.0  0.98940  0.43700  0.31210  1.0000 0.0898352974
H   H36       1.0  0.51060  0.93700  0.68790  1.0000 0.0898352974
H   H37       1.0  0.95780  0.70260  0.71860  1.0000 0.11163219
H   H38       1.0  0.54220  0.20260  0.28140  1.0000 0.11163219
H   H39       1.0  0.04220  0.29740  0.28140  1.0000 0.11163219
H   H40       1.0  0.45780  0.79740  0.71860  1.0000 0.11163219
H   H41       1.0  0.10760  0.25270  0.70380  1.0000 0.1302823888
H   H42       1.0  0.39240  0.75270  0.29620  1.0000 0.1302823888
H   H43       1.0  0.89240  0.74730  0.29620  1.0000 0.1302823888
H   H44       1.0  0.60760  0.24730  0.70380  1.0000 0.1302823888
H   H45       1.0  0.07110  0.23740  0.59490  1.0000 0.1222254255
H   H46       1.0  0.42890  0.73740  0.40510  1.0000 0.1222254255
H   H47       1.0  0.92890  0.76260  0.40510  1.0000 0.1222254255
H   H48       1.0  0.57110  0.26260  0.59490  1.0000 0.1222254255
H   H49       1.0  0.16930  0.64020  0.64370  1.0000 0.1222254255
H   H50       1.0  0.33070  0.14020  0.35630  1.0000 0.1222254255
H   H51       1.0  0.83070  0.35980  0.35630  1.0000 0.1222254255
H   H52       1.0  0.66930  0.85980  0.64370  1.0000 0.1222254255
H   H53       1.0  0.14980  0.72760  0.52900  1.0000 0.1222254255
H   H54       1.0  0.35020  0.22760  0.47100  1.0000 0.1222254255
H   H55       1.0  0.85020  0.27240  0.47100  1.0000 0.1222254255
H   H56       1.0  0.64980  0.77240  0.52900  1.0000 0.1222254255
H   H57       1.0  0.10770  0.95550  0.50780  1.0000 0.1222254255
H   H58       1.0  0.39230  0.45550  0.49220  1.0000 0.1222254255
H   H59       1.0  0.89230  0.04450  0.49220  1.0000 0.1222254255
H   H60       1.0  0.60770  0.54450  0.50780  1.0000 0.1222254255
H   H61       1.0  0.99300  0.79220  0.57330  1.0000 0.1302823888
H   H62       1.0  0.50700  0.29220  0.42670  1.0000 0.1302823888
H   H63       1.0  0.00700  0.20780  0.42670  1.0000 0.1302823888
H   H64       1.0  0.49300  0.70780  0.57330  1.0000 0.1302823888
H   H65       1.0  0.90610  0.54110  0.54320  1.0000 0.1302823888
H   H66       1.0  0.59390  0.04110  0.45680  1.0000 0.1302823888
H   H67       1.0  0.09390  0.45890  0.45680  1.0000 0.1302823888
H   H68       1.0  0.40610  0.95890  0.54320  1.0000 0.1302823888
H   H69       1.0  0.30560  0.44640  0.99810  1.0000 0.1302823888
H   H70       1.0  0.19440  0.94640  0.00190  1.0000 0.1302823888
H   H71       1.0  0.69440  0.55360  0.00190  1.0000 0.1302823888
H   H72       1.0  0.80560  0.05360  0.99810  1.0000 0.1302823888
H   H73       1.0  0.22170  0.40880  0.91110  1.0000 0.1222254255
H   H74       1.0  0.27830  0.90880  0.08890  1.0000 0.1222254255
H   H75       1.0  0.77830  0.59120  0.08890  1.0000 0.1222254255
H   H76       1.0  0.72170  0.09120  0.91110  1.0000 0.1222254255
H   H77       1.0  0.32480  0.98000  0.88500  1.0000 0.1222254255
H   H78       1.0  0.17520  0.48000  0.11500  1.0000 0.1222254255
H   H79       1.0  0.67520  0.02000  0.11500  1.0000 0.1222254255
H   H80       1.0  0.82480  0.52000  0.88500  1.0000 0.1222254255
H   H81       1.0  0.38260  0.87020  0.03430  1.0000 0.1302823888
H   H82       1.0  0.11740  0.37020  0.96570  1.0000 0.1302823888
H   H83       1.0  0.61740  0.12980  0.96570  1.0000 0.1302823888
H   H84       1.0  0.88260  0.62980  0.03430  1.0000 0.1302823888
H   H85       1.0  0.40630  0.99410  0.97780  1.0000 0.1302823888
H   H86       1.0  0.09370  0.49410  0.02220  1.0000 0.1302823888
H   H87       1.0  0.59370  0.00590  0.02220  1.0000 0.1302823888
H   H88       1.0  0.90630  0.50590  0.97780  1.0000 0.1302823888
H   H89       1.0  0.47250  0.72610  0.91460  1.0000 0.1302823888
H   H90       1.0  0.02750  0.22610  0.08540  1.0000 0.1302823888
H   H91       1.0  0.52750  0.27390  0.08540  1.0000 0.1302823888
H   H92       1.0  0.97250  0.77390  0.91460  1.0000 0.1302823888
H   H93       1.0  0.55600  0.45400  0.91940  1.0000 0.1302823888
H   H94       1.0  0.94400  0.95400  0.08060  1.0000 0.1302823888
H   H95       1.0  0.44400  0.54600  0.08060  1.0000 0.1302823888
H   H96       1.0  0.05600  0.04600  0.91940  1.0000 0.1302823888
H   H97       1.0  0.11620  0.05850  0.83830  1.0000 0.2871408382
H   H98       1.0  0.38380  0.55850  0.16170  1.0000 0.2871408382
H   H99       1.0  0.88380  0.94150  0.16170  1.0000 0.2871408382
H   H100      1.0  0.61620  0.44150  0.83830  1.0000 0.2871408382
H   H101      1.0  0.27260  0.54790  0.72780  1.0000 0.2527798334
H   H102      1.0  0.22740  0.04790  0.27220  1.0000 0.2527798334
H   H103      1.0  0.72740  0.45210  0.27220  1.0000 0.2527798334
H   H104      1.0  0.77260  0.95210  0.72780  1.0000 0.2527798334
H   H105      1.0  0.14560  0.25620  0.82570  1.0000 0.3022452363
H   H106      1.0  0.35440  0.75620  0.17430  1.0000 0.3022452363
H   H107      1.0  0.85440  0.74380  0.17430  1.0000 0.3022452363
H   H108      1.0  0.64560  0.24380  0.82570  1.0000 0.3022452363
H   H109      1.0  0.25800  0.37850  0.75570  1.0000 0.2751980641
H   H110      1.0  0.24200  0.87850  0.24430  1.0000 0.2751980641
H   H111      1.0  0.74200  0.62150  0.24430  1.0000 0.2751980641
H   H112      1.0  0.75800  0.12150  0.75570  1.0000 0.2751980641
C   C1        1.0  0.06148  0.63570  0.80190  1.0000 0.5721475104
C   C2        1.0  0.43852  0.13570  0.19810  1.0000 0.5721475104
C   C3        1.0  0.93852  0.36430  0.19810  1.0000 0.5721475104
C   C4        1.0  0.56148  0.86430  0.80190  1.0000 0.5721475104
C   C5        1.0  0.00929  0.45840  0.77655  1.0000 -0.1233365045
C   C6        1.0  0.49071  0.95840  0.22345  1.0000 -0.1233365045
C   C7        1.0  0.99071  0.54160  0.22345  1.0000 -0.1233365045
C   C8        1.0  0.50929  0.04160  0.77655  1.0000 -0.1233365045
C   C9        1.0  0.95709  0.41900  0.81760  1.0000 -0.1697358026
C   C10       1.0  0.54291  0.91900  0.18240  1.0000 -0.1697358026
C   C11       1.0  0.04291  0.58100  0.18240  1.0000 -0.1697358026
C   C12       1.0  0.45709  0.08100  0.81760  1.0000 -0.1697358026
C   C13       1.0  0.90821  0.22810  0.79090  1.0000 -0.1648057631
C   C14       1.0  0.59179  0.72810  0.20910  1.0000 -0.1648057631
C   C15       1.0  0.09179  0.77190  0.20910  1.0000 -0.1648057631
C   C16       1.0  0.40821  0.27190  0.79090  1.0000 -0.1648057631
C   C17       1.0  0.87539  0.30560  0.72830  1.0000 -0.1233365045
C   C18       1.0  0.62461  0.80560  0.27170  1.0000 -0.1233365045
C   C19       1.0  0.12461  0.69440  0.27170  1.0000 -0.1233365045
C   C20       1.0  0.37539  0.19440  0.72830  1.0000 -0.1233365045
C   C21       1.0  0.92600  0.36570  0.68640  1.0000 -0.1697358026
C   C22       1.0  0.57400  0.86570  0.31360  1.0000 -0.1697358026
C   C23       1.0  0.07400  0.63430  0.31360  1.0000 -0.1697358026
C   C24       1.0  0.42600  0.13430  0.68640  1.0000 -0.1697358026
C   C25       1.0  0.97764  0.54480  0.71450  1.0000 -0.177922853
C   C26       1.0  0.52236  0.04480  0.28550  1.0000 -0.177922853
C   C27       1.0  0.02236  0.45520  0.28550  1.0000 -0.177922853
C   C28       1.0  0.47764  0.95520  0.71450  1.0000 -0.177922853
C   C29       1.0  0.82564  0.50720  0.73284  1.0000 0.5721475104
C   C30       1.0  0.67436  0.00720  0.26716  1.0000 0.5721475104
C   C31       1.0  0.17436  0.49280  0.26716  1.0000 0.5721475104
C   C32       1.0  0.32564  0.99280  0.73284  1.0000 0.5721475104
C   C33       1.0  0.11540  0.12590  0.67810  1.0000 -0.0202887889
C   C34       1.0  0.38460  0.62590  0.32190  1.0000 -0.0202887889
C   C35       1.0  0.88460  0.87410  0.32190  1.0000 -0.0202887889
C   C36       1.0  0.61540  0.37410  0.67810  1.0000 -0.0202887889
C   C37       1.0  0.09520  0.11960  0.61770  1.0000 -0.129237183
C   C38       1.0  0.40480  0.61960  0.38230  1.0000 -0.129237183
C   C39       1.0  0.90480  0.88040  0.38230  1.0000 -0.129237183
C   C40       1.0  0.59520  0.38040  0.61770  1.0000 -0.129237183
C   C41       1.0  0.14940  0.79090  0.64550  1.0000 0.0989470035
C   C42       1.0  0.35060  0.29090  0.35450  1.0000 0.0989470035
C   C43       1.0  0.85060  0.20910  0.35450  1.0000 0.0989470035
C   C44       1.0  0.64940  0.70910  0.64550  1.0000 0.0989470035
C   C45       1.0  0.11090  0.81680  0.53490  1.0000 -0.1697358026
C   C46       1.0  0.38910  0.31680  0.46510  1.0000 -0.1697358026
C   C47       1.0  0.88910  0.18320  0.46510  1.0000 -0.1697358026
C   C48       1.0  0.61090  0.68320  0.53490  1.0000 -0.1697358026
C   C49       1.0  0.05230  0.65320  0.51790  1.0000 0.0898352974
C   C50       1.0  0.44770  0.15320  0.48210  1.0000 0.0898352974
C   C51       1.0  0.94770  0.34680  0.48210  1.0000 0.0898352974
C   C52       1.0  0.55230  0.84680  0.51790  1.0000 0.0898352974
C   C53       1.0  0.99610  0.67530  0.54370  1.0000 -0.1697358026
C   C54       1.0  0.50390  0.17530  0.45630  1.0000 -0.1697358026
C   C55       1.0  0.00390  0.32470  0.45630  1.0000 -0.1697358026
C   C56       1.0  0.49610  0.82470  0.54370  1.0000 -0.1697358026
C   C57       1.0  0.94410  0.52390  0.52573  1.0000 -0.1697358026
C   C58       1.0  0.55590  0.02390  0.47427  1.0000 -0.1697358026
C   C59       1.0  0.05590  0.47610  0.47427  1.0000 -0.1697358026
C   C60       1.0  0.44410  0.97610  0.52573  1.0000 -0.1697358026
C   C61       1.0  0.29940  0.55000  0.96490  1.0000 -0.1233365045
C   C62       1.0  0.20060  0.05000  0.03510  1.0000 -0.1233365045
C   C63       1.0  0.70060  0.45000  0.03510  1.0000 -0.1233365045
C   C64       1.0  0.79940  0.95000  0.96490  1.0000 -0.1233365045
C   C65       1.0  0.25310  0.53000  0.91660  1.0000 -0.0417890406
C   C66       1.0  0.24690  0.03000  0.08340  1.0000 -0.0417890406
C   C67       1.0  0.74690  0.47000  0.08340  1.0000 -0.0417890406
C   C68       1.0  0.75310  0.97000  0.91660  1.0000 -0.0417890406
C   C69       1.0  0.30930  0.84170  0.90230  1.0000 0.0989470035
C   C70       1.0  0.19070  0.34170  0.09770  1.0000 0.0989470035
C   C71       1.0  0.69070  0.15830  0.09770  1.0000 0.0989470035
C   C72       1.0  0.80930  0.65830  0.90230  1.0000 0.0989470035
C   C73       1.0  0.39320  0.84060  0.99380  1.0000 -0.177922853
C   C74       1.0  0.10680  0.34060  0.00620  1.0000 -0.177922853
C   C75       1.0  0.60680  0.15940  0.00620  1.0000 -0.177922853
C   C76       1.0  0.89320  0.65940  0.99380  1.0000 -0.177922853
C   C77       1.0  0.44850  0.66630  0.99730  1.0000 0.0898352974
C   C78       1.0  0.05150  0.16630  0.00270  1.0000 0.0898352974
C   C79       1.0  0.55150  0.33370  0.00270  1.0000 0.0898352974
C   C80       1.0  0.94850  0.83370  0.99730  1.0000 0.0898352974
C   C81       1.0  0.48320  0.63490  0.94960  1.0000 -0.1423488659
C   C82       1.0  0.01680  0.13490  0.05040  1.0000 -0.1423488659
C   C83       1.0  0.51680  0.36510  0.05040  1.0000 -0.1423488659
C   C84       1.0  0.98320  0.86510  0.94960  1.0000 -0.1423488659
C   C85       1.0  0.53360  0.47110  0.95260  1.0000 -0.1423488659
C   C86       1.0  0.96640  0.97110  0.04740  1.0000 -0.145353832
C   C87       1.0  0.46640  0.52890  0.04740  1.0000 -0.1423488659
C   C88       1.0  0.03360  0.02890  0.95260  1.0000 -0.1423488659
N   N1        1.0  0.14917  0.91720  0.69583  1.0000 -0.2863730646
N   N2        1.0  0.35083  0.41720  0.30417  1.0000 -0.2863730646
N   N3        1.0  0.85083  0.08280  0.30417  1.0000 -0.2863730646
N   N4        1.0  0.64917  0.58280  0.69583  1.0000 -0.2863730646
N   N5        1.0  0.11750  0.90500  0.59731  1.0000 0.0400430042
N   N6        1.0  0.38250  0.40500  0.40269  1.0000 0.0400430042
N   N7        1.0  0.88250  0.09500  0.40269  1.0000 0.0400430042
N   N8        1.0  0.61750  0.59500  0.59731  1.0000 0.0400430042
N   N9        1.0  0.25951  0.71520  0.87685  1.0000 -0.2863730646
N   N10       1.0  0.24049  0.21520  0.12315  1.0000 -0.2863730646
N   N11       1.0  0.74049  0.28480  0.12315  1.0000 -0.2863730646
N   N12       1.0  0.75951  0.78480  0.87685  1.0000 -0.2863730646
N   N13       1.0  0.33544  0.75110  0.95574  1.0000 0.0400430042
N   N14       1.0  0.16456  0.25110  0.04426  1.0000 0.0400430042
N   N15       1.0  0.66456  0.24890  0.04426  1.0000 0.0400430042
N   N16       1.0  0.83544  0.74890  0.95574  1.0000 0.0400430042
O   O1        1.0  0.12041  0.57170  0.80225  1.0000 -0.5734727612
O   O2        1.0  0.37959  0.07170  0.19775  1.0000 -0.5734727612
O   O3        1.0  0.87959  0.42830  0.19775  1.0000 -0.5734727612
O   O4        1.0  0.62041  0.92830  0.80225  1.0000 -0.5734727612
O   O5        1.0  0.04491  0.83970  0.81869  1.0000 -0.5485070429
O   O6        1.0  0.45509  0.33970  0.18131  1.0000 -0.5485070429
O   O7        1.0  0.95509  0.16030  0.18131  1.0000 -0.5485070429
O   O8        1.0  0.54491  0.66030  0.81869  1.0000 -0.5485070429
O   O9        1.0  0.78331  0.46420  0.76826  1.0000 -0.5921786658
O   O10       1.0  0.71669  0.96420  0.23174  1.0000 -0.5921786658
O   O11       1.0  0.21669  0.53580  0.23174  1.0000 -0.5921786658
O   O12       1.0  0.28331  0.03580  0.76826  1.0000 -0.5921786658
O   O13       1.0  0.82704  0.69760  0.70341  1.0000 -0.5485070429
O   O14       1.0  0.67296  0.19760  0.29659  1.0000 -0.5485070429
O   O15       1.0  0.17296  0.30240  0.29659  1.0000 -0.5485070429
O   O16       1.0  0.32704  0.80240  0.70341  1.0000 -0.5485070429
O   O17       1.0  0.15227  0.10440  0.83207  1.0000 -0.6889451376
O   O18       1.0  0.34773  0.60440  0.16793  1.0000 -0.6889451376
O   O19       1.0  0.84773  0.89560  0.16793  1.0000 -0.6889451376
O   O20       1.0  0.65227  0.39560  0.83207  1.0000 -0.6889451376
O   O21       1.0  0.23932  0.50580  0.74093  1.0000 -0.6748290143
O   O22       1.0  0.26068  0.00580  0.25907  1.0000 -0.6760205707
O   O23       1.0  0.76068  0.49420  0.25907  1.0000 -0.6748290143
O   O24       1.0  0.73932  0.99420  0.74093  1.0000 -0.6760205707
