# DDEC6 charges by PACMAN v1.1 (https://github.com/mtap-research/PACMAN-charge/)
data_2014[TmCu][nan]3[FSR]1
_chemical_formula_sum              "Tm4 Cu2 H32 C48 N16 O40"
_cell_length_a       6.0408
_cell_length_b       23.577
_cell_length_c       13.3379
_cell_angle_alpha    90
_cell_angle_beta     112.745
_cell_angle_gamma    90

_symmetry_space_group_name_H-M    "P 1"
_symmetry_Int_Tables_number       1

loop_
  _symmetry_equiv_pos_as_xyz
  'x, y, z'

loop_
  _atom_site_type_symbol
  _atom_site_label
  _atom_site_symmetry_multiplicity
  _atom_site_fract_x
  _atom_site_fract_y
  _atom_site_fract_z
  _atom_site_occupancy
  _atom_site_charge
Tm  Tm1       1.0  0.09956  0.67145  0.10973  1.0000 1.988036413
Tm  Tm2       1.0  0.90044  0.17145  0.39027  1.0000 1.988036413
Tm  Tm3       1.0  0.90044  0.32855  0.89027  1.0000 1.988036413
Tm  Tm4       1.0  0.09956  0.82855  0.60973  1.0000 1.988036413
Cu  Cu1       1.0  0.00000  0.50000  0.50000  1.0000 0.7764255295
Cu  Cu2       1.0  0.00000  0.00000  0.00000  1.0000 0.7764255295
H   H1        1.0  0.53530  0.60590  0.16290  1.0000 0.3785174752
H   H2        1.0  0.46470  0.10590  0.33710  1.0000 0.3785174752
H   H3        1.0  0.46470  0.39410  0.83710  1.0000 0.3785174752
H   H4        1.0  0.53530  0.89410  0.66290  1.0000 0.3785174752
H   H5        1.0  0.35800  0.58220  0.18970  1.0000 0.3450313101
H   H6        1.0  0.64200  0.08220  0.31030  1.0000 0.3422010432
H   H7        1.0  0.64200  0.41780  0.81030  1.0000 0.3422010432
H   H8        1.0  0.35800  0.91780  0.68970  1.0000 0.3450313101
H   H9        1.0  0.03820  0.61320  0.90980  1.0000 0.4050741682
H   H10       1.0  0.96180  0.11320  0.59020  1.0000 0.4040046821
H   H11       1.0  0.96180  0.38680  0.09020  1.0000 0.4040046821
H   H12       1.0  0.03820  0.88680  0.40980  1.0000 0.4050741682
H   H13       1.0  0.84720  0.64520  0.90860  1.0000 0.3422010432
H   H14       1.0  0.15280  0.14520  0.59140  1.0000 0.3422010432
H   H15       1.0  0.15280  0.35480  0.09140  1.0000 0.3422010432
H   H16       1.0  0.84720  0.85480  0.40860  1.0000 0.3422010432
H   H17       1.0  0.67210  0.67150  0.62340  1.0000 0.1204124663
H   H18       1.0  0.32790  0.17150  0.87660  1.0000 0.1204124663
H   H19       1.0  0.32790  0.32850  0.37660  1.0000 0.1204124663
H   H20       1.0  0.67210  0.82850  0.12340  1.0000 0.1204124663
H   H21       1.0  0.96810  0.60370  0.64290  1.0000 0.1398579369
H   H22       1.0  0.03190  0.10370  0.85710  1.0000 0.1398579369
H   H23       1.0  0.03190  0.39630  0.35710  1.0000 0.1398579369
H   H24       1.0  0.96810  0.89630  0.14290  1.0000 0.1398579369
H   H25       1.0  0.74500  0.66420  0.27450  1.0000 0.1204124663
H   H26       1.0  0.25500  0.16420  0.22550  1.0000 0.1204124663
H   H27       1.0  0.25500  0.33580  0.72550  1.0000 0.1204124663
H   H28       1.0  0.74500  0.83580  0.77450  1.0000 0.1204124663
H   H29       1.0  0.03420  0.70790  0.42180  1.0000 0.1265069286
H   H30       1.0  0.96580  0.20790  0.07820  1.0000 0.1265069286
H   H31       1.0  0.96580  0.29210  0.57820  1.0000 0.1265069286
H   H32       1.0  0.03420  0.79210  0.92180  1.0000 0.1265069286
C   C1        1.0  0.64020  0.64220  0.57310  1.0000 0.0812243524
C   C2        1.0  0.35980  0.14220  0.92690  1.0000 0.0812243524
C   C3        1.0  0.35980  0.35780  0.42690  1.0000 0.0812243524
C   C4        1.0  0.64020  0.85780  0.07310  1.0000 0.0812243524
C   C5        1.0  0.82030  0.60120  0.58490  1.0000 0.0742291904
C   C6        1.0  0.17970  0.10120  0.91510  1.0000 0.0742291904
C   C7        1.0  0.17970  0.39880  0.41510  1.0000 0.0742291904
C   C8        1.0  0.82030  0.89880  0.08490  1.0000 0.0742291904
C   C9        1.0  0.56520  0.55620  0.43090  1.0000 0.0198394705
C   C10       1.0  0.43480  0.05620  0.06910  1.0000 0.0198394705
C   C11       1.0  0.43480  0.44380  0.56910  1.0000 0.0198394705
C   C12       1.0  0.56520  0.94380  0.93090  1.0000 0.0198394705
C   C13       1.0  0.53770  0.50790  0.35410  1.0000 0.5336032699
C   C14       1.0  0.46230  0.00790  0.14590  1.0000 0.5336032699
C   C15       1.0  0.46230  0.49210  0.64590  1.0000 0.5336032699
C   C16       1.0  0.53770  0.99210  0.85410  1.0000 0.5336032699
C   C17       1.0  0.38810  0.59570  0.42060  1.0000 0.0597089103
C   C18       1.0  0.61190  0.09570  0.07940  1.0000 0.0597089103
C   C19       1.0  0.61190  0.40430  0.57940  1.0000 0.0597089103
C   C20       1.0  0.38810  0.90430  0.92060  1.0000 0.0597089103
C   C21       1.0  0.70180  0.69380  0.30930  1.0000 0.0597089103
C   C22       1.0  0.29820  0.19380  0.19070  1.0000 0.0597089103
C   C23       1.0  0.29820  0.30620  0.69070  1.0000 0.0597089103
C   C24       1.0  0.70180  0.80620  0.80930  1.0000 0.0597089103
C   C25       1.0  0.87430  0.71840  0.40120  1.0000 0.0812243524
C   C26       1.0  0.12570  0.21840  0.09880  1.0000 0.0812243524
C   C27       1.0  0.12570  0.28160  0.59880  1.0000 0.0812243524
C   C28       1.0  0.87430  0.78160  0.90120  1.0000 0.0812243524
C   C29       1.0  0.58310  0.77000  0.42760  1.0000 0.0508667308
C   C30       1.0  0.41690  0.27000  0.07240  1.0000 0.0508667308
C   C31       1.0  0.41690  0.23000  0.57240  1.0000 0.0508667308
C   C32       1.0  0.58310  0.73000  0.92760  1.0000 0.0508667308
C   C33       1.0  0.41650  0.75200  0.32760  1.0000 0.0812243524
C   C34       1.0  0.58350  0.25200  0.17240  1.0000 0.0812243524
C   C35       1.0  0.58350  0.24800  0.67240  1.0000 0.0812243524
C   C36       1.0  0.41650  0.74800  0.82760  1.0000 0.0812243524
C   C37       1.0  0.17140  0.77790  0.26880  1.0000 0.5707370828
C   C38       1.0  0.82860  0.27790  0.23120  1.0000 0.5707370828
C   C39       1.0  0.82860  0.22210  0.73120  1.0000 0.5707370828
C   C40       1.0  0.17140  0.72210  0.76880  1.0000 0.5707370828
C   C41       1.0  0.52610  0.80360  0.51120  1.0000 0.6260145346
C   C42       1.0  0.47390  0.30360  0.98880  1.0000 0.6260145346
C   C43       1.0  0.47390  0.19640  0.48880  1.0000 0.6260145346
C   C44       1.0  0.52610  0.69640  0.01120  1.0000 0.6260145346
C   C45       1.0  0.13570  0.59270  0.33333  1.0000 0.6043224225
C   C46       1.0  0.86430  0.09270  0.16667  1.0000 0.6043224225
C   C47       1.0  0.86430  0.40730  0.66667  1.0000 0.6043224225
C   C48       1.0  0.13570  0.90730  0.83333  1.0000 0.6043224225
N   N1        1.0  0.77890  0.55943  0.51350  1.0000 -0.1980813702
N   N2        1.0  0.22110  0.05943  0.98650  1.0000 -0.1980813702
N   N3        1.0  0.22110  0.44057  0.48650  1.0000 -0.1980813702
N   N4        1.0  0.77890  0.94057  0.01350  1.0000 -0.1980813702
N   N5        1.0  0.42670  0.63960  0.49140  1.0000 -0.2271973861
N   N6        1.0  0.57330  0.13960  0.00860  1.0000 -0.2271973861
N   N7        1.0  0.57330  0.36040  0.50860  1.0000 -0.2271973861
N   N8        1.0  0.42670  0.86040  0.99140  1.0000 -0.2271973861
N   N9        1.0  0.47280  0.71226  0.27030  1.0000 -0.3124446829
N   N10       1.0  0.52720  0.21226  0.22970  1.0000 -0.3124446829
N   N11       1.0  0.52720  0.28774  0.72970  1.0000 -0.3124446829
N   N12       1.0  0.47280  0.78774  0.77030  1.0000 -0.3124446829
N   N13       1.0  0.81620  0.75652  0.45990  1.0000 -0.3044076224
N   N14       1.0  0.18380  0.25652  0.04010  1.0000 -0.3044076224
N   N15       1.0  0.18380  0.24348  0.54010  1.0000 -0.3044076224
N   N16       1.0  0.81620  0.74348  0.95990  1.0000 -0.3044076224
O   O1        1.0  0.36190  0.50510  0.26920  1.0000 -0.4625687485
O   O2        1.0  0.63810  0.00510  0.23080  1.0000 -0.4625687485
O   O3        1.0  0.63810  0.49490  0.73080  1.0000 -0.4625687485
O   O4        1.0  0.36190  0.99490  0.76920  1.0000 -0.4625687485
O   O5        1.0  0.38530  0.59957  0.13980  1.0000 -0.756717134
O   O6        1.0  0.61470  0.09957  0.36020  1.0000 -0.756717134
O   O7        1.0  0.61470  0.40043  0.86020  1.0000 -0.756717134
O   O8        1.0  0.38530  0.90043  0.63980  1.0000 -0.756717134
O   O9        1.0  0.70930  0.47121  0.38730  1.0000 -0.5096191575
O   O10       1.0  0.29070  0.97121  0.11270  1.0000 -0.5096191575
O   O11       1.0  0.29070  0.52879  0.61270  1.0000 -0.5096191575
O   O12       1.0  0.70930  0.02879  0.88730  1.0000 -0.5096191575
O   O13       1.0  0.95900  0.62320  0.94750  1.0000 -0.756717134
O   O14       1.0  0.04100  0.12320  0.55250  1.0000 -0.756717134
O   O15       1.0  0.04100  0.37680  0.05250  1.0000 -0.756717134
O   O16       1.0  0.95900  0.87680  0.44750  1.0000 -0.756717134
O   O17       1.0  0.09150  0.62530  0.25260  1.0000 -0.7014184703
O   O18       1.0  0.90850  0.12530  0.24740  1.0000 -0.7014184703
O   O19       1.0  0.90850  0.37470  0.74740  1.0000 -0.7014184703
O   O20       1.0  0.09150  0.87470  0.75260  1.0000 -0.7014184703
O   O21       1.0  0.99170  0.56130  0.34980  1.0000 -0.5178750937
O   O22       1.0  0.00830  0.06130  0.15020  1.0000 -0.5178750937
O   O23       1.0  0.00830  0.43870  0.65020  1.0000 -0.5178750937
O   O24       1.0  0.99170  0.93870  0.84980  1.0000 -0.5178750937
O   O25       1.0  0.02740  0.74914  0.19060  1.0000 -0.6762728651
O   O26       1.0  0.97260  0.24914  0.30940  1.0000 -0.6762728651
O   O27       1.0  0.97260  0.25086  0.80940  1.0000 -0.6762728651
O   O28       1.0  0.02740  0.75086  0.69060  1.0000 -0.6762728651
O   O29       1.0  0.13190  0.82599  0.29560  1.0000 -0.5178750937
O   O30       1.0  0.86810  0.32599  0.20440  1.0000 -0.5178750937
O   O31       1.0  0.86810  0.17401  0.70440  1.0000 -0.5178750937
O   O32       1.0  0.13190  0.67401  0.79560  1.0000 -0.5178750937
O   O33       1.0  0.33380  0.79343  0.52170  1.0000 -0.6349302044
O   O34       1.0  0.66620  0.29343  0.97830  1.0000 -0.635307323
O   O35       1.0  0.66620  0.20657  0.47830  1.0000 -0.6349302044
O   O36       1.0  0.33380  0.70657  0.02170  1.0000 -0.6349302044
O   O37       1.0  0.68770  0.83738  0.56880  1.0000 -0.6187974324
O   O38       1.0  0.31230  0.33738  0.93120  1.0000 -0.6187974324
O   O39       1.0  0.31230  0.16262  0.43120  1.0000 -0.6187974324
O   O40       1.0  0.68770  0.66262  0.06880  1.0000 -0.6187974324
