# DDEC6 charges by PACMAN v1.1 (https://github.com/mtap-research/PACMAN-charge/)
data_2014[Zn][nan]3[FSR]8
_chemical_formula_sum              "Zn6 H76 C120 N12 O28"
_cell_length_a       16.1791
_cell_length_b       16.1791
_cell_length_c       16.5899
_cell_angle_alpha    63.8018
_cell_angle_beta     116.198
_cell_angle_gamma    124.633

_symmetry_space_group_name_H-M    "P 1"
_symmetry_Int_Tables_number       1

loop_
  _symmetry_equiv_pos_as_xyz
  'x, y, z'

loop_
  _atom_site_type_symbol
  _atom_site_label
  _atom_site_symmetry_multiplicity
  _atom_site_fract_x
  _atom_site_fract_y
  _atom_site_fract_z
  _atom_site_occupancy
  _atom_site_charge
Zn  Zn1       1.0  0.44110  0.16358  0.31276  1.0000 0.7434326271
Zn  Zn2       1.0  0.16358  0.44110  0.18724  1.0000 0.7434326271
Zn  Zn3       1.0  0.55890  0.83642  0.68724  1.0000 0.7434326271
Zn  Zn4       1.0  0.83642  0.55890  0.81276  1.0000 0.7434326271
Zn  Zn5       1.0  0.21394  0.21394  0.75000  1.0000 0.7296724478
Zn  Zn6       1.0  0.78606  0.78606  0.25000  1.0000 0.7296724478
H   H1        1.0  0.48860  0.19040  0.79010  1.0000 0.1206770637
H   H2        1.0  0.19040  0.48860  0.70990  1.0000 0.1206770637
H   H3        1.0  0.51140  0.80960  0.20990  1.0000 0.1206770637
H   H4        1.0  0.80960  0.51140  0.29010  1.0000 0.1206770637
H   H5        1.0  0.60410  0.16490  0.76880  1.0000 0.1206770637
H   H6        1.0  0.16490  0.60410  0.73120  1.0000 0.1206770637
H   H7        1.0  0.39590  0.83510  0.23120  1.0000 0.1206770637
H   H8        1.0  0.83510  0.39590  0.26880  1.0000 0.1206770637
H   H9        1.0  0.35400  0.23460  0.51930  1.0000 0.1206770637
H   H10       1.0  0.23460  0.35400  0.98070  1.0000 0.1206770637
H   H11       1.0  0.64600  0.76540  0.48070  1.0000 0.1206770637
H   H12       1.0  0.76540  0.64600  0.01930  1.0000 0.1206770637
H   H13       1.0  0.77720  0.36320  0.62760  1.0000 0.1419081877
H   H14       1.0  0.36320  0.77720  0.87240  1.0000 0.1419081877
H   H15       1.0  0.22280  0.63680  0.37240  1.0000 0.1419081877
H   H16       1.0  0.63680  0.22280  0.12760  1.0000 0.1419081877
H   H17       1.0  0.93710  0.40730  0.72920  1.0000 0.1206770637
H   H18       1.0  0.40730  0.93710  0.77080  1.0000 0.1206770637
H   H19       1.0  0.06290  0.59270  0.27080  1.0000 0.1206770637
H   H20       1.0  0.59270  0.06290  0.22920  1.0000 0.1206770637
H   H21       1.0  0.98520  0.27320  0.83310  1.0000 0.1113033674
H   H22       1.0  0.27320  0.98520  0.66690  1.0000 0.1113033674
H   H23       1.0  0.01480  0.72680  0.16690  1.0000 0.1113033674
H   H24       1.0  0.72680  0.01480  0.33310  1.0000 0.1113033674
H   H25       1.0  0.86280  0.10100  0.84150  1.0000 0.1206770637
H   H26       1.0  0.10100  0.86280  0.65850  1.0000 0.1206770637
H   H27       1.0  0.13720  0.89900  0.15850  1.0000 0.1206770637
H   H28       1.0  0.89900  0.13720  0.34150  1.0000 0.1206770637
H   H29       1.0  0.66490  0.31630  0.34820  1.0000 0.1113033674
H   H30       1.0  0.31630  0.66490  0.15180  1.0000 0.1113033674
H   H31       1.0  0.33510  0.68370  0.65180  1.0000 0.1113033674
H   H32       1.0  0.68370  0.33510  0.84820  1.0000 0.1113033674
H   H33       1.0  0.82320  0.32360  0.43640  1.0000 0.1419081877
H   H34       1.0  0.32360  0.82320  0.06360  1.0000 0.1419081877
H   H35       1.0  0.17680  0.67640  0.56360  1.0000 0.1419081877
H   H36       1.0  0.67640  0.17680  0.93640  1.0000 0.1419081877
H   H37       1.0  0.68520  0.01180  0.51230  1.0000 0.1419081877
H   H38       1.0  0.01180  0.68520  0.98770  1.0000 0.1419081877
H   H39       1.0  0.31480  0.98820  0.48770  1.0000 0.1419081877
H   H40       1.0  0.98820  0.31480  0.01230  1.0000 0.1419081877
H   H41       1.0  0.52960  0.01120  0.42060  1.0000 0.1113033674
H   H42       1.0  0.01120  0.52960  0.07940  1.0000 0.1113033674
H   H43       1.0  0.47040  0.98880  0.57940  1.0000 0.1113033674
H   H44       1.0  0.98880  0.47040  0.92060  1.0000 0.1113033674
H   H45       1.0  0.96510  0.29010  0.45560  1.0000 0.1419081877
H   H46       1.0  0.29010  0.96510  0.04440  1.0000 0.1419081877
H   H47       1.0  0.03490  0.70990  0.54440  1.0000 0.1419081877
H   H48       1.0  0.70990  0.03490  0.95560  1.0000 0.1419081877
H   H49       1.0  0.12150  0.29570  0.55540  1.0000 0.1206770637
H   H50       1.0  0.29570  0.12150  0.94460  1.0000 0.1206770637
H   H51       1.0  0.87850  0.70430  0.44460  1.0000 0.1206770637
H   H52       1.0  0.70430  0.87850  0.05540  1.0000 0.1206770637
H   H53       1.0  0.98900  0.07560  0.75000  1.0000 0.1036802205
H   H54       1.0  0.07560  0.98900  0.75000  1.0000 0.1036802205
H   H55       1.0  0.01100  0.92440  0.25000  1.0000 0.1036802205
H   H56       1.0  0.92440  0.01100  0.25000  1.0000 0.1036802205
H   H57       1.0  0.82430  0.05710  0.65570  1.0000 0.1452162722
H   H58       1.0  0.05710  0.82430  0.84430  1.0000 0.1452162722
H   H59       1.0  0.17570  0.94290  0.34430  1.0000 0.1452162722
H   H60       1.0  0.94290  0.17570  0.15570  1.0000 0.1452162722
H   H61       1.0  0.47780  0.38300  0.25160  1.0000 0.1206770637
H   H62       1.0  0.38300  0.47780  0.24840  1.0000 0.1206770637
H   H63       1.0  0.52220  0.61700  0.74840  1.0000 0.1206770637
H   H64       1.0  0.61700  0.52220  0.75160  1.0000 0.1206770637
H   H65       1.0  0.50390  0.52350  0.12580  1.0000 0.1452162722
H   H66       1.0  0.52350  0.50390  0.37420  1.0000 0.1452162722
H   H67       1.0  0.49610  0.47650  0.87420  1.0000 0.1452162722
H   H68       1.0  0.47650  0.49610  0.62580  1.0000 0.1452162722
H   H69       1.0  0.47310  0.35170  0.99080  1.0000 0.1419081877
H   H70       1.0  0.35170  0.47310  0.50920  1.0000 0.1419081877
H   H71       1.0  0.52690  0.64830  0.00920  1.0000 0.1419081877
H   H72       1.0  0.64830  0.52690  0.49080  1.0000 0.1419081877
H   H73       1.0  0.44620  0.21420  0.12160  1.0000 0.1113033674
H   H74       1.0  0.21420  0.44620  0.37840  1.0000 0.1113033674
H   H75       1.0  0.55380  0.78580  0.87840  1.0000 0.1113033674
H   H76       1.0  0.78580  0.55380  0.62160  1.0000 0.1113033674
C   C1        1.0  0.33333  0.22710  0.67290  1.0000 0.533118085
C   C2        1.0  0.22710  0.33333  0.82710  1.0000 0.533118085
C   C3        1.0  0.66667  0.77290  0.32710  1.0000 0.533118085
C   C4        1.0  0.77290  0.66667  0.17290  1.0000 0.533118085
C   C5        1.0  0.41120  0.21780  0.65680  1.0000 -0.0345000624
C   C6        1.0  0.21780  0.41120  0.84320  1.0000 -0.0345000624
C   C7        1.0  0.58880  0.78220  0.34320  1.0000 -0.0345000624
C   C8        1.0  0.78220  0.58880  0.15680  1.0000 -0.0345000624
C   C9        1.0  0.48540  0.19640  0.73050  1.0000 -0.1054523727
C   C10       1.0  0.19640  0.48540  0.76950  1.0000 -0.1054523727
C   C11       1.0  0.51460  0.80360  0.26950  1.0000 -0.1054523727
C   C12       1.0  0.80360  0.51460  0.23050  1.0000 -0.1054523727
C   C13       1.0  0.55630  0.18330  0.71780  1.0000 -0.2232770836
C   C14       1.0  0.18330  0.55630  0.78220  1.0000 -0.2232770836
C   C15       1.0  0.44370  0.81670  0.28220  1.0000 -0.2232770836
C   C16       1.0  0.81670  0.44370  0.21780  1.0000 -0.2232770836
C   C17       1.0  0.55520  0.19780  0.62930  1.0000 0.2099287985
C   C18       1.0  0.19780  0.55520  0.87070  1.0000 0.2099287985
C   C19       1.0  0.44480  0.80220  0.37070  1.0000 0.2099287985
C   C20       1.0  0.80220  0.44480  0.12930  1.0000 0.2099287985
C   C21       1.0  0.48210  0.22050  0.55340  1.0000 -0.1193282045
C   C22       1.0  0.22050  0.48210  0.94660  1.0000 -0.1193282045
C   C23       1.0  0.51790  0.77950  0.44660  1.0000 -0.1193282045
C   C24       1.0  0.77950  0.51790  0.05340  1.0000 -0.1193282045
C   C25       1.0  0.40760  0.22560  0.56920  1.0000 -0.1325450828
C   C26       1.0  0.22560  0.40760  0.93080  1.0000 -0.1325450828
C   C27       1.0  0.59240  0.77440  0.43080  1.0000 -0.1325450828
C   C28       1.0  0.77440  0.59240  0.06920  1.0000 -0.1325450828
C   C29       1.0  0.48440  0.24240  0.45550  1.0000 0.5757871429
C   C30       1.0  0.24240  0.48440  0.04450  1.0000 0.5757871429
C   C31       1.0  0.51560  0.75760  0.54450  1.0000 0.5757871429
C   C32       1.0  0.75760  0.51560  0.95550  1.0000 0.5757871429
C   C33       1.0  0.72150  0.20790  0.67600  1.0000 0.2099287985
C   C34       1.0  0.20790  0.72150  0.82400  1.0000 0.2099287985
C   C35       1.0  0.27850  0.79210  0.32400  1.0000 0.2099287985
C   C36       1.0  0.79210  0.27850  0.17600  1.0000 0.2099287985
C   C37       1.0  0.79470  0.31130  0.67180  1.0000 -0.1876443205
C   C38       1.0  0.31130  0.79470  0.82820  1.0000 -0.1876443205
C   C39       1.0  0.20530  0.68870  0.32820  1.0000 -0.1876443205
C   C40       1.0  0.68870  0.20530  0.17180  1.0000 -0.1876443205
C   C41       1.0  0.89000  0.33780  0.73010  1.0000 -0.0712304553
C   C42       1.0  0.33780  0.89000  0.76990  1.0000 -0.0712304553
C   C43       1.0  0.11000  0.66220  0.26990  1.0000 -0.0712304553
C   C44       1.0  0.66220  0.11000  0.23010  1.0000 -0.0712304553
C   C45       1.0  0.91800  0.25620  0.79470  1.0000 -0.0989961987
C   C46       1.0  0.25620  0.91800  0.70530  1.0000 -0.0989961987
C   C47       1.0  0.08200  0.74380  0.20530  1.0000 -0.0989961987
C   C48       1.0  0.74380  0.08200  0.29470  1.0000 -0.0989961987
C   C49       1.0  0.84530  0.15350  0.79910  1.0000 -0.1325450828
C   C50       1.0  0.15350  0.84530  0.70090  1.0000 -0.1325450828
C   C51       1.0  0.15470  0.84650  0.20090  1.0000 -0.1325450828
C   C52       1.0  0.84650  0.15470  0.29910  1.0000 -0.1325450828
C   C53       1.0  0.74510  0.12810  0.73990  1.0000 -0.1193282045
C   C54       1.0  0.12810  0.74510  0.76010  1.0000 -0.1193282045
C   C55       1.0  0.25490  0.87190  0.26010  1.0000 -0.1193282045
C   C56       1.0  0.87190  0.25490  0.23990  1.0000 -0.1193282045
C   C57       1.0  0.66480  0.01680  0.74320  1.0000 0.5700509111
C   C58       1.0  0.01680  0.66480  0.75680  1.0000 0.5700509111
C   C59       1.0  0.33520  0.98320  0.25680  1.0000 0.5700509111
C   C60       1.0  0.98320  0.33520  0.24320  1.0000 0.5700509111
C   C61       1.0  0.66910  0.25450  0.38150  1.0000 0.0907786037
C   C62       1.0  0.25450  0.66910  0.11850  1.0000 0.0907786037
C   C63       1.0  0.33090  0.74550  0.61850  1.0000 0.0907786037
C   C64       1.0  0.74550  0.33090  0.88150  1.0000 0.0907786037
C   C65       1.0  0.76440  0.25940  0.43460  1.0000 -0.1814000448
C   C66       1.0  0.25940  0.76440  0.06540  1.0000 -0.1814000448
C   C67       1.0  0.23560  0.74060  0.56540  1.0000 -0.1814000448
C   C68       1.0  0.74060  0.23560  0.93460  1.0000 -0.1814000448
C   C69       1.0  0.77310  0.16890  0.48540  1.0000 0.1113033674
C   C70       1.0  0.16890  0.77310  0.01460  1.0000 0.1113033674
C   C71       1.0  0.22690  0.83110  0.51460  1.0000 0.1113033674
C   C72       1.0  0.83110  0.22690  0.98540  1.0000 0.1113033674
C   C73       1.0  0.68240  0.07440  0.47940  1.0000 -0.168175756
C   C74       1.0  0.07440  0.68240  0.02060  1.0000 -0.168175756
C   C75       1.0  0.31760  0.92560  0.52060  1.0000 -0.168175756
C   C76       1.0  0.92560  0.31760  0.97940  1.0000 -0.168175756
C   C77       1.0  0.58920  0.07460  0.42450  1.0000 0.0907786037
C   C78       1.0  0.07460  0.58920  0.07550  1.0000 0.0907786037
C   C79       1.0  0.41080  0.92540  0.57550  1.0000 0.0907786037
C   C80       1.0  0.92540  0.41080  0.92450  1.0000 0.0907786037
C   C81       1.0  0.87520  0.17360  0.54620  1.0000 0.1113033674
C   C82       1.0  0.17360  0.87520  0.95380  1.0000 0.1113033674
C   C83       1.0  0.12480  0.82640  0.45380  1.0000 0.1113033674
C   C84       1.0  0.82640  0.12480  0.04620  1.0000 0.1113033674
C   C85       1.0  0.96760  0.24580  0.51530  1.0000 -0.1876443205
C   C86       1.0  0.24580  0.96760  0.98470  1.0000 -0.1876443205
C   C87       1.0  0.03240  0.75420  0.48470  1.0000 -0.1876443205
C   C88       1.0  0.75420  0.03240  0.01530  1.0000 -0.1876443205
C   C89       1.0  0.06140  0.24900  0.57590  1.0000 0.1036802205
C   C90       1.0  0.24900  0.06140  0.92410  1.0000 0.1036802205
C   C91       1.0  0.93860  0.75100  0.42410  1.0000 0.1036802205
C   C92       1.0  0.75100  0.93860  0.07590  1.0000 0.1036802205
C   C93       1.0  0.98340  0.11900  0.69010  1.0000 0.0907786037
C   C94       1.0  0.11900  0.98340  0.80990  1.0000 0.0907786037
C   C95       1.0  0.01660  0.88100  0.30990  1.0000 0.0907786037
C   C96       1.0  0.88100  0.01660  0.19010  1.0000 0.0907786037
C   C97       1.0  0.88320  0.10780  0.63380  1.0000 -0.1814000448
C   C98       1.0  0.10780  0.88320  0.86620  1.0000 -0.1814000448
C   C99       1.0  0.11680  0.89220  0.36620  1.0000 -0.1814000448
C   C100      1.0  0.89220  0.11680  0.13380  1.0000 -0.1814000448
C   C101      1.0  0.47660  0.37660  0.19800  1.0000 0.0731248586
C   C102      1.0  0.37660  0.47660  0.30200  1.0000 0.0731248586
C   C103      1.0  0.52340  0.62340  0.80200  1.0000 0.0731248586
C   C104      1.0  0.62340  0.52340  0.69800  1.0000 0.0731248586
C   C105      1.0  0.49250  0.46190  0.12240  1.0000 -0.168175756
C   C106      1.0  0.46190  0.49250  0.37760  1.0000 -0.168175756
C   C107      1.0  0.50750  0.53810  0.87760  1.0000 -0.168175756
C   C108      1.0  0.53810  0.50750  0.62240  1.0000 -0.168175756
C   C109      1.0  0.49130  0.45550  0.04130  1.0000 0.1113033674
C   C110      1.0  0.45550  0.49130  0.45870  1.0000 0.1113033674
C   C111      1.0  0.50870  0.54450  0.95870  1.0000 0.1113033674
C   C112      1.0  0.54450  0.50870  0.54130  1.0000 0.1113033674
C   C113      1.0  0.47410  0.36030  0.04310  1.0000 -0.1814000448
C   C114      1.0  0.36030  0.47410  0.45690  1.0000 -0.1814000448
C   C115      1.0  0.52590  0.63970  0.95690  1.0000 -0.1814000448
C   C116      1.0  0.63970  0.52590  0.54310  1.0000 -0.1814000448
C   C117      1.0  0.45820  0.27720  0.12280  1.0000 0.0907786037
C   C118      1.0  0.27720  0.45820  0.37720  1.0000 0.0907786037
C   C119      1.0  0.54180  0.72280  0.87720  1.0000 0.0907786037
C   C120      1.0  0.72280  0.54180  0.62280  1.0000 0.0907786037
N   N1        1.0  0.58076  0.16344  0.37580  1.0000 -0.2465894063
N   N2        1.0  0.16344  0.58076  0.12420  1.0000 -0.2465894063
N   N3        1.0  0.41924  0.83656  0.62420  1.0000 -0.2465894063
N   N4        1.0  0.83656  0.41924  0.87580  1.0000 -0.2465894063
N   N5        1.0  0.45970  0.28470  0.19920  1.0000 -0.2310398639
N   N6        1.0  0.28470  0.45970  0.30080  1.0000 -0.2310398639
N   N7        1.0  0.54030  0.71530  0.80080  1.0000 -0.2310398639
N   N8        1.0  0.71530  0.54030  0.69920  1.0000 -0.2310398639
N   N9        1.0  0.06902  0.18818  0.66190  1.0000 -0.2310398639
N   N10       1.0  0.18818  0.06902  0.83810  1.0000 -0.2310398639
N   N11       1.0  0.93098  0.81182  0.33810  1.0000 -0.2310398639
N   N12       1.0  0.81182  0.93098  0.16190  1.0000 -0.2310398639
O   O1        1.0  0.24630  0.20970  0.61570  1.0000 -0.5578070224
O   O2        1.0  0.20970  0.24630  0.88430  1.0000 -0.5578070224
O   O3        1.0  0.75370  0.79030  0.38430  1.0000 -0.5578070224
O   O4        1.0  0.79030  0.75370  0.11570  1.0000 -0.5578070224
O   O5        1.0  0.35270  0.24710  0.74470  1.0000 -0.5020657619
O   O6        1.0  0.24710  0.35270  0.75530  1.0000 -0.5020657619
O   O7        1.0  0.64730  0.75290  0.25530  1.0000 -0.5020657619
O   O8        1.0  0.75290  0.64730  0.24470  1.0000 -0.5020657619
O   O9        1.0  0.66990  0.97250  0.70040  1.0000 -0.5207468261
O   O10       1.0  0.97250  0.66990  0.79960  1.0000 -0.5207468261
O   O11       1.0  0.33010  0.02750  0.29960  1.0000 -0.5207468261
O   O12       1.0  0.02750  0.33010  0.20040  1.0000 -0.5207468261
O   O13       1.0  0.59800  0.97220  0.78620  1.0000 -0.5578070224
O   O14       1.0  0.97220  0.59800  0.71380  1.0000 -0.5578070224
O   O15       1.0  0.40200  0.02780  0.21380  1.0000 -0.5578070224
O   O16       1.0  0.02780  0.40200  0.28620  1.0000 -0.5578070224
O   O17       1.0  0.62267  0.18333  0.61230  1.0000 -0.2232770836
O   O18       1.0  0.18333  0.62267  0.88770  1.0000 -0.2232770836
O   O19       1.0  0.37733  0.81667  0.38770  1.0000 -0.2232770836
O   O20       1.0  0.81667  0.37733  0.11230  1.0000 -0.2232770836
O   O21       1.0  0.41190  0.17230  0.41200  1.0000 -0.5532958945
O   O22       1.0  0.17230  0.41190  0.08800  1.0000 -0.5532958945
O   O23       1.0  0.58810  0.82770  0.58800  1.0000 -0.5532958945
O   O24       1.0  0.82770  0.58810  0.91200  1.0000 -0.5532958945
O   O25       1.0  0.55390  0.32290  0.42190  1.0000 -0.5578070224
O   O26       1.0  0.32290  0.55390  0.07810  1.0000 -0.5578070224
O   O27       1.0  0.44610  0.67710  0.57810  1.0000 -0.5578070224
O   O28       1.0  0.67710  0.44610  0.92190  1.0000 -0.5578070224
