# DDEC6 charges by PACMAN v1.1 (https://github.com/mtap-research/PACMAN-charge/)
data_2015[Cd][tcs]3[FSR]1
_chemical_formula_sum              "Cd2 B2 H24 C26 N16 O4"
_cell_length_a       9.0162
_cell_length_b       10.7479
_cell_length_c       10.8068
_cell_angle_alpha    97.57
_cell_angle_beta     97.708
_cell_angle_gamma    110.1

_symmetry_space_group_name_H-M    "P 1"
_symmetry_Int_Tables_number       1

loop_
  _symmetry_equiv_pos_as_xyz
  'x, y, z'

loop_
  _atom_site_type_symbol
  _atom_site_label
  _atom_site_symmetry_multiplicity
  _atom_site_fract_x
  _atom_site_fract_y
  _atom_site_fract_z
  _atom_site_occupancy
  _atom_site_charge
Cd  Cd1       1.0  0.70569  0.24814  0.68775  1.0000 0.7804183753
Cd  Cd2       1.0  0.29431  0.75186  0.31225  1.0000 0.7804183753
B   B1        1.0  0.36300  0.60710  0.80860  1.0000 0.4947774204
B   B2        1.0  0.63700  0.39290  0.19140  1.0000 0.4947774204
H   H1        1.0  0.01780  0.24160  0.93090  1.0000 0.1192252491
H   H2        1.0  0.98220  0.75840  0.06910  1.0000 0.1192252491
H   H3        1.0  0.29220  0.40570  0.97190  1.0000 0.1192252491
H   H4        1.0  0.70780  0.59430  0.02810  1.0000 0.1192252491
H   H5        1.0  0.04670  0.46550  0.67150  1.0000 0.0998323478
H   H6        1.0  0.95330  0.53450  0.32850  1.0000 0.0998323478
H   H7        1.0  0.19440  0.79060  0.78610  1.0000 0.1192252491
H   H8        1.0  0.80560  0.20940  0.21390  1.0000 0.1192252491
H   H9        1.0  0.36490  0.59060  0.54730  1.0000 0.1073637063
H   H10       1.0  0.63510  0.40940  0.45270  1.0000 0.1073637063
H   H11       1.0  0.43350  0.36840  0.76930  1.0000 0.0998323478
H   H12       1.0  0.56650  0.63160  0.23070  1.0000 0.0998323478
H   H13       1.0  0.64220  0.83750  0.95930  1.0000 0.1192252491
H   H14       1.0  0.35780  0.16250  0.04070  1.0000 0.1192252491
H   H15       1.0  0.11160  0.81940  0.56930  1.0000 0.1303268677
H   H16       1.0  0.88840  0.18060  0.43070  1.0000 0.1303268677
H   H17       1.0  0.67710  0.74400  0.75210  1.0000 0.1303268677
H   H18       1.0  0.32290  0.25600  0.24790  1.0000 0.1303268677
H   H19       1.0  0.20840  0.63910  0.01120  1.0000 0.0998323478
H   H20       1.0  0.79160  0.36090  0.98880  1.0000 0.0998323478
H   H21       1.0  0.83450  0.60810  0.69860  1.0000 0.1073637063
H   H22       1.0  0.16550  0.39190  0.30140  1.0000 0.1073637063
H   H23       1.0  0.59900  0.93200  0.16000  1.0000 0.1192252491
H   H24       1.0  0.40100  0.06800  0.84000  1.0000 0.1192252491
C   C1        1.0  0.05810  0.30720  0.88330  1.0000 -0.0528249109
C   C2        1.0  0.94190  0.69280  0.11670  1.0000 -0.0528249109
C   C3        1.0  0.20940  0.39840  0.90660  1.0000 -0.088893179
C   C4        1.0  0.79060  0.60160  0.09340  1.0000 -0.088893179
C   C5        1.0  0.07380  0.43020  0.74150  1.0000 0.1303268677
C   C6        1.0  0.92620  0.56980  0.25850  1.0000 0.1303268677
C   C7        1.0  0.21890  0.75370  0.71240  1.0000 -0.0799872783
C   C8        1.0  0.78110  0.24630  0.28760  1.0000 -0.0799872783
C   C9        1.0  0.31210  0.64450  0.57960  1.0000 0.1356331648
C   C10       1.0  0.68790  0.35550  0.42040  1.0000 0.1303268677
C   C11       1.0  0.51410  0.44550  0.75820  1.0000 0.1356331648
C   C12       1.0  0.48590  0.55450  0.24180  1.0000 0.1356331648
C   C13       1.0  0.54970  0.80910  0.99380  1.0000 -0.088893179
C   C14       1.0  0.45030  0.19090  0.00620  1.0000 -0.088893179
C   C15       1.0  0.56790  0.97100  0.51160  1.0000 0.456591049
C   C16       1.0  0.43210  0.02900  0.48840  1.0000 0.456591049
C   C17       1.0  0.17400  0.76970  0.59170  1.0000 -0.0382832724
C   C18       1.0  0.82600  0.23030  0.40830  1.0000 -0.0382832724
C   C19       1.0  0.64640  0.65170  0.74960  1.0000 -0.0799872783
C   C20       1.0  0.35360  0.34830  0.25040  1.0000 -0.0799872783
C   C21       1.0  0.31290  0.70160  0.02350  1.0000 0.1192252491
C   C22       1.0  0.68710  0.29840  0.97650  1.0000 0.1192252491
C   C23       1.0  0.73300  0.57610  0.71920  1.0000 -0.0637172518
C   C24       1.0  0.26700  0.42390  0.28080  1.0000 -0.0637172518
C   C25       1.0  0.52990  0.86380  0.10660  1.0000 -0.0382832724
C   C26       1.0  0.47010  0.13620  0.89340  1.0000 -0.0382832724
N   N1        1.0  0.97320  0.32710  0.77770  1.0000 -0.2810147611
N   N2        1.0  0.02680  0.67290  0.22230  1.0000 -0.2810147611
N   N3        1.0  0.21990  0.47920  0.81670  1.0000 -0.2175099349
N   N4        1.0  0.78010  0.52080  0.18330  1.0000 -0.2175099349
N   N5        1.0  0.30740  0.67230  0.70360  1.0000 -0.2175099349
N   N6        1.0  0.69260  0.32770  0.29640  1.0000 -0.2175099349
N   N7        1.0  0.40870  0.70350  0.93860  1.0000 -0.2099126039
N   N8        1.0  0.59130  0.29650  0.06140  1.0000 -0.2099126039
N   N9        1.0  0.50500  0.56900  0.77630  1.0000 -0.2256889848
N   N10       1.0  0.49500  0.43100  0.22370  1.0000 -0.2256889848
N   N11       1.0  0.23430  0.70160  0.50830  1.0000 -0.3068735508
N   N12       1.0  0.76570  0.29840  0.49170  1.0000 -0.3068735508
N   N13       1.0  0.64740  0.44450  0.72350  1.0000 -0.3036491481
N   N14       1.0  0.35260  0.55550  0.27650  1.0000 -0.3036491481
N   N15       1.0  0.38040  0.79640  0.12590  1.0000 -0.2863488702
N   N16       1.0  0.61960  0.20360  0.87410  1.0000 -0.2863488702
O   O1        1.0  0.68020  0.02930  0.60450  1.0000 -0.5157772509
O   O2        1.0  0.31980  0.97070  0.39550  1.0000 -0.5157772509
O   O3        1.0  0.55510  0.86870  0.43350  1.0000 -0.5258019177
O   O4        1.0  0.44490  0.13130  0.56650  1.0000 -0.5258019177
