# DDEC6 charges by PACMAN v1.1 (https://github.com/mtap-research/PACMAN-charge/)
data_2015[Cu][hcb]2[FSR]1
_chemical_formula_sum              "Cu4 H44 C52 N8 O20"
_cell_length_a       11.4795
_cell_length_b       8.8862
_cell_length_c       19.0512
_cell_angle_alpha    90
_cell_angle_beta     123.255
_cell_angle_gamma    90

_symmetry_space_group_name_H-M    "P 1"
_symmetry_Int_Tables_number       1

loop_
  _symmetry_equiv_pos_as_xyz
  'x, y, z'

loop_
  _atom_site_type_symbol
  _atom_site_label
  _atom_site_symmetry_multiplicity
  _atom_site_fract_x
  _atom_site_fract_y
  _atom_site_fract_z
  _atom_site_occupancy
  _atom_site_charge
Cu  Cu1       1.0  0.20357  0.92786  0.51705  1.0000 0.7412286348
Cu  Cu2       1.0  0.20357  0.07214  0.01705  1.0000 0.7412286348
Cu  Cu3       1.0  0.62040  0.42829  0.38697  1.0000 0.7412286348
Cu  Cu4       1.0  0.62040  0.57171  0.88697  1.0000 0.7412286348
H   H1        1.0  0.72920  0.02280  0.52300  1.0000 0.1310191548
H   H2        1.0  0.72920  0.97720  0.02300  1.0000 0.1310191548
H   H3        1.0  0.23190  0.44570  0.65920  1.0000 0.1409298774
H   H4        1.0  0.23190  0.55430  0.15920  1.0000 0.1409298774
H   H5        1.0  0.54130  0.50340  0.62110  1.0000 0.148414234
H   H6        1.0  0.54130  0.49660  0.12110  1.0000 0.148414234
H   H7        1.0  0.86430  0.66450  0.45520  1.0000 0.1167236785
H   H8        1.0  0.86430  0.33550  0.95520  1.0000 0.1167236785
H   H9        1.0  0.14360  0.67680  0.59720  1.0000 0.1087898075
H   H10       1.0  0.14360  0.32320  0.09720  1.0000 0.1087898075
H   H11       1.0  0.44460  0.73310  0.55880  1.0000 0.1167236785
H   H12       1.0  0.44460  0.26690  0.05880  1.0000 0.1167236785
H   H13       1.0  0.51150  0.90360  0.46230  1.0000 0.1409298774
H   H14       1.0  0.51150  0.09640  0.96230  1.0000 0.1409298774
H   H15       1.0  0.29170  0.38780  0.41910  1.0000 0.148414234
H   H16       1.0  0.29170  0.61220  0.91910  1.0000 0.148414234
H   H17       1.0  0.71570  0.84920  0.84300  1.0000 0.1000416337
H   H18       1.0  0.71570  0.15080  0.34300  1.0000 0.1000416337
H   H19       1.0  0.96800  0.17260  0.46120  1.0000 0.1167236785
H   H20       1.0  0.96800  0.82740  0.96120  1.0000 0.1167236785
H   H21       1.0  0.07710  0.50960  0.36590  1.0000 0.1310191548
H   H22       1.0  0.07710  0.49040  0.86590  1.0000 0.1310191548
H   H23       1.0  0.25590  0.96500  0.73090  1.0000 0.148414234
H   H24       1.0  0.25590  0.03500  0.23090  1.0000 0.148414234
H   H25       1.0  0.63120  0.07650  0.77450  1.0000 0.1409298774
H   H26       1.0  0.63120  0.92350  0.27450  1.0000 0.1409298774
H   H27       1.0  0.34910  0.73870  0.79850  1.0000 0.1167236785
H   H28       1.0  0.34910  0.26130  0.29850  1.0000 0.1167236785
H   H29       1.0  0.60140  0.31200  0.50650  1.0000 0.3386706507
H   H30       1.0  0.60140  0.68800  0.00650  1.0000 0.3386706507
H   H31       1.0  0.73720  0.33600  0.54640  1.0000 0.3191548086
H   H32       1.0  0.73720  0.66400  0.04640  1.0000 0.3191548086
H   H33       1.0  0.28980  0.17200  0.64780  1.0000 0.1167236785
H   H34       1.0  0.28980  0.82800  0.14780  1.0000 0.1167236785
H   H35       1.0  0.55770  0.32400  0.74970  1.0000 0.1087898075
H   H36       1.0  0.55770  0.67600  0.24970  1.0000 0.1087898075
H   H37       1.0  0.50320  0.25100  0.65920  1.0000 0.1167236785
H   H38       1.0  0.50320  0.74900  0.15920  1.0000 0.1167236785
H   H39       1.0  0.34290  0.25200  0.73590  1.0000 0.1167236785
H   H40       1.0  0.34290  0.74800  0.23590  1.0000 0.1167236785
H   H41       1.0  0.05680  0.83200  0.35980  1.0000 0.3011181003
H   H42       1.0  0.05680  0.16800  0.85980  1.0000 0.3011181003
H   H43       1.0  0.18180  0.83000  0.37680  1.0000 0.3191548086
H   H44       1.0  0.18180  0.17000  0.87680  1.0000 0.3191548086
C   C1        1.0  0.81903  0.85650  0.49403  1.0000 -0.0508912432
C   C2        1.0  0.81903  0.14350  0.99403  1.0000 -0.0508912432
C   C3        1.0  0.71356  0.92710  0.49706  1.0000 -0.0508912432
C   C4        1.0  0.71356  0.07290  0.99706  1.0000 -0.0508912432
C   C5        1.0  0.27866  0.50290  0.63966  1.0000 -0.1933280705
C   C6        1.0  0.27866  0.49710  0.13966  1.0000 -0.1933280705
C   C7        1.0  0.36930  0.19640  0.70160  1.0000 -0.2516770714
C   C8        1.0  0.36930  0.80360  0.20160  1.0000 -0.2516770714
C   C9        1.0  0.96068  0.92700  0.52888  1.0000 0.5387100077
C   C10       1.0  0.96068  0.07300  0.02888  1.0000 0.5387100077
C   C11       1.0  0.39805  0.44720  0.64855  1.0000 0.1830998904
C   C12       1.0  0.39805  0.55280  0.14855  1.0000 0.1830998904
C   C13       1.0  0.38000  0.11730  0.50340  1.0000 0.5170630909
C   C14       1.0  0.38000  0.88270  0.00340  1.0000 0.5170630909
C   C15       1.0  0.45928  0.53700  0.61708  1.0000 -0.1933280705
C   C16       1.0  0.45928  0.46300  0.11708  1.0000 -0.1933280705
C   C17       1.0  0.79271  0.71370  0.45721  1.0000 0.0820655323
C   C18       1.0  0.79271  0.28630  0.95721  1.0000 0.0820655323
C   C19       1.0  0.22613  0.64160  0.60233  1.0000 0.0820655323
C   C20       1.0  0.22613  0.35840  0.10233  1.0000 0.0820655323
C   C21       1.0  0.40122  0.67470  0.58002  1.0000 0.1000416337
C   C22       1.0  0.40122  0.32530  0.08002  1.0000 0.1000416337
C   C23       1.0  0.24706  0.20770  0.46646  1.0000 0.0928592182
C   C24       1.0  0.24706  0.79230  0.96646  1.0000 0.0928592182
C   C25       1.0  0.56824  0.71590  0.42612  1.0000 0.0928592182
C   C26       1.0  0.56824  0.28410  0.92612  1.0000 0.0928592182
C   C27       1.0  0.58550  0.85660  0.46190  1.0000 -0.1095030361
C   C28       1.0  0.58550  0.14340  0.96190  1.0000 -0.1095030361
C   C29       1.0  0.22291  0.34430  0.42591  1.0000 -0.115683844
C   C30       1.0  0.22291  0.65570  0.92591  1.0000 -0.115683844
C   C31       1.0  0.62033  0.87270  0.81923  1.0000 0.0820655323
C   C32       1.0  0.62033  0.12730  0.31923  1.0000 0.0820655323
C   C33       1.0  0.03284  0.21610  0.45094  1.0000 0.0820655323
C   C34       1.0  0.03284  0.78390  0.95094  1.0000 0.0820655323
C   C35       1.0  0.43337  0.62830  0.38487  1.0000 0.5170630909
C   C36       1.0  0.43337  0.37170  0.88487  1.0000 0.5170630909
C   C37       1.0  0.99995  0.35180  0.40865  1.0000 -0.0508912432
C   C38       1.0  0.99995  0.64820  0.90865  1.0000 -0.0508912432
C   C39       1.0  0.09694  0.41710  0.39534  1.0000 -0.0429058128
C   C40       1.0  0.09694  0.58290  0.89534  1.0000 -0.0429058128
C   C41       1.0  0.35106  0.94320  0.75316  1.0000 -0.1993157023
C   C42       1.0  0.35106  0.05680  0.25316  1.0000 -0.1993157023
C   C43       1.0  0.57102  0.00930  0.77882  1.0000 -0.1933280705
C   C44       1.0  0.57102  0.99070  0.27882  1.0000 -0.1933280705
C   C45       1.0  0.40732  0.80820  0.79372  1.0000 0.0928592182
C   C46       1.0  0.40732  0.19180  0.29372  1.0000 0.0928592182
C   C47       1.0  0.43261  0.04740  0.74461  1.0000 0.1860905535
C   C48       1.0  0.43261  0.95260  0.24461  1.0000 0.1860905535
C   C49       1.0  0.46483  0.30010  0.69133  1.0000 -0.2255075925
C   C50       1.0  0.46483  0.69990  0.19133  1.0000 -0.2255075925
C   C51       1.0  0.85997  0.42130  0.37807  1.0000 0.5387100077
C   C52       1.0  0.85997  0.57870  0.87807  1.0000 0.5387100077
N   N1        1.0  0.67068  0.64470  0.42490  1.0000 -0.2574601972
N   N2        1.0  0.67068  0.35530  0.92490  1.0000 -0.2574601972
N   N3        1.0  0.28576  0.72880  0.57303  1.0000 -0.2516770714
N   N4        1.0  0.28576  0.27120  0.07303  1.0000 -0.2516770714
N   N5        1.0  0.54124  0.77140  0.82675  1.0000 -0.2516770714
N   N6        1.0  0.54124  0.22860  0.32675  1.0000 -0.2516770714
N   N7        1.0  0.15213  0.14380  0.47796  1.0000 -0.2674262726
N   N8        1.0  0.15213  0.85620  0.97796  1.0000 -0.2674262726
O   O1        1.0  0.80611  0.37554  0.41762  1.0000 -0.5485154593
O   O2        1.0  0.80611  0.62446  0.91762  1.0000 -0.5485154593
O   O3        1.0  0.00362  0.02702  0.58173  1.0000 -0.5331170016
O   O4        1.0  0.00362  0.97298  0.08173  1.0000 -0.5331170016
O   O5        1.0  0.33034  0.68344  0.37980  1.0000 -0.5092791819
O   O6        1.0  0.33034  0.31656  0.87980  1.0000 -0.5092791819
O   O7        1.0  0.66111  0.37020  0.51187  1.0000 -0.6472830975
O   O8        1.0  0.66111  0.62980  0.01187  1.0000 -0.6472830975
O   O9        1.0  0.43515  0.49933  0.35533  1.0000 -0.5331170016
O   O10       1.0  0.43515  0.50067  0.85533  1.0000 -0.5331170016
O   O11       1.0  0.38236  0.99326  0.53803  1.0000 -0.5217443609
O   O12       1.0  0.38236  0.00674  0.03803  1.0000 -0.5217443609
O   O13       1.0  0.13485  0.87030  0.38474  1.0000 -0.6039409541
O   O14       1.0  0.13485  0.12970  0.88474  1.0000 -0.6039409541
O   O15       1.0  0.80677  0.51170  0.31876  1.0000 -0.5485154593
O   O16       1.0  0.80677  0.48830  0.81876  1.0000 -0.5485154593
O   O17       1.0  0.02288  0.87281  0.49567  1.0000 -0.561333915
O   O18       1.0  0.02288  0.12719  0.99567  1.0000 -0.561333915
O   O19       1.0  0.47569  0.16621  0.49865  1.0000 -0.500593295
O   O20       1.0  0.47569  0.83379  0.99865  1.0000 -0.500593295
