# DDEC6 charges by PACMAN v1.1 (https://github.com/mtap-research/PACMAN-charge/)
data_2015[Mn][nan]3[FSR]1
_chemical_formula_sum              "Mn3 H72 C120 N24"
_cell_length_a       19.1699
_cell_length_b       19.1699
_cell_length_c       19.1699
_cell_angle_alpha    117.415
_cell_angle_beta     117.415
_cell_angle_gamma    117.415

_symmetry_space_group_name_H-M    "P 1"
_symmetry_Int_Tables_number       1

loop_
  _symmetry_equiv_pos_as_xyz
  'x, y, z'

loop_
  _atom_site_type_symbol
  _atom_site_label
  _atom_site_symmetry_multiplicity
  _atom_site_fract_x
  _atom_site_fract_y
  _atom_site_fract_z
  _atom_site_occupancy
  _atom_site_charge
Mn  Mn1       1.0  0.00000  0.00000  0.50000  1.0000 0.5498982274
Mn  Mn2       1.0  0.00000  0.50000  0.00000  1.0000 0.5498982274
Mn  Mn3       1.0  0.50000  0.00000  0.00000  1.0000 0.5498982274
H   H1        1.0  0.25358  0.47349  0.90080  1.0000 0.119231298
H   H2        1.0  0.47349  0.90080  0.25358  1.0000 0.119231298
H   H3        1.0  0.90080  0.25358  0.47349  1.0000 0.119231298
H   H4        1.0  0.74642  0.52651  0.09920  1.0000 0.119231298
H   H5        1.0  0.52651  0.09920  0.74642  1.0000 0.119231298
H   H6        1.0  0.09920  0.74642  0.52651  1.0000 0.119231298
H   H7        1.0  0.41858  0.56139  0.92540  1.0000 0.119231298
H   H8        1.0  0.56139  0.92540  0.41858  1.0000 0.119231298
H   H9        1.0  0.92540  0.41858  0.56139  1.0000 0.119231298
H   H10       1.0  0.58142  0.43861  0.07460  1.0000 0.119231298
H   H11       1.0  0.43861  0.07460  0.58142  1.0000 0.119231298
H   H12       1.0  0.07460  0.58142  0.43861  1.0000 0.119231298
H   H13       1.0  0.58658  0.70139  0.35060  1.0000 0.119231298
H   H14       1.0  0.70139  0.35060  0.58658  1.0000 0.119231298
H   H15       1.0  0.35060  0.58658  0.70139  1.0000 0.119231298
H   H16       1.0  0.41342  0.29861  0.64940  1.0000 0.119231298
H   H17       1.0  0.29861  0.64940  0.41342  1.0000 0.119231298
H   H18       1.0  0.64940  0.41342  0.29861  1.0000 0.119231298
H   H19       1.0  0.75668  0.95869  0.56070  1.0000 0.119231298
H   H20       1.0  0.95869  0.56070  0.75668  1.0000 0.119231298
H   H21       1.0  0.56070  0.75668  0.95869  1.0000 0.119231298
H   H22       1.0  0.24332  0.04131  0.43930  1.0000 0.119231298
H   H23       1.0  0.04131  0.43930  0.24332  1.0000 0.119231298
H   H24       1.0  0.43930  0.24332  0.04131  1.0000 0.119231298
H   H25       1.0  0.38368  0.39909  0.97650  1.0000 0.1394224534
H   H26       1.0  0.39909  0.97650  0.38368  1.0000 0.1394224534
H   H27       1.0  0.97650  0.38368  0.39909  1.0000 0.1394224534
H   H28       1.0  0.61632  0.60091  0.02350  1.0000 0.1394224534
H   H29       1.0  0.60091  0.02350  0.61632  1.0000 0.1394224534
H   H30       1.0  0.02350  0.61632  0.60091  1.0000 0.1394224534
H   H31       1.0  0.17578  0.18659  0.84460  1.0000 0.1083386128
H   H32       1.0  0.18659  0.84460  0.17578  1.0000 0.1083386128
H   H33       1.0  0.84460  0.17578  0.18659  1.0000 0.1083386128
H   H34       1.0  0.82422  0.81341  0.15540  1.0000 0.1083386128
H   H35       1.0  0.81341  0.15540  0.82422  1.0000 0.1083386128
H   H36       1.0  0.15540  0.82422  0.81341  1.0000 0.1083386128
H   H37       1.0  0.40358  0.34799  0.18980  1.0000 0.1083386128
H   H38       1.0  0.34799  0.18980  0.40358  1.0000 0.1083386128
H   H39       1.0  0.18980  0.40358  0.34799  1.0000 0.1083386128
H   H40       1.0  0.59642  0.65201  0.81020  1.0000 0.1083386128
H   H41       1.0  0.65201  0.81020  0.59642  1.0000 0.1083386128
H   H42       1.0  0.81020  0.59642  0.65201  1.0000 0.1083386128
H   H43       1.0  0.61878  0.56479  0.33530  1.0000 0.1394224534
H   H44       1.0  0.56479  0.33530  0.61878  1.0000 0.1394224534
H   H45       1.0  0.33530  0.61878  0.56479  1.0000 0.1394224534
H   H46       1.0  0.38122  0.43521  0.66470  1.0000 0.1394224534
H   H47       1.0  0.43521  0.66470  0.38122  1.0000 0.1394224534
H   H48       1.0  0.66470  0.38122  0.43521  1.0000 0.1394224534
H   H49       1.0  0.83848  0.15509  0.58070  1.0000 0.1492777686
H   H50       1.0  0.15509  0.58070  0.83848  1.0000 0.1492777686
H   H51       1.0  0.58070  0.83848  0.15509  1.0000 0.1492777686
H   H52       1.0  0.16152  0.84491  0.41930  1.0000 0.1492777686
H   H53       1.0  0.84491  0.41930  0.16152  1.0000 0.1492777686
H   H54       1.0  0.41930  0.16152  0.84491  1.0000 0.1492777686
H   H55       1.0  0.16648  0.73499  0.30830  1.0000 0.1033744039
H   H56       1.0  0.73499  0.30830  0.16648  1.0000 0.1033744039
H   H57       1.0  0.30830  0.16648  0.73499  1.0000 0.1033744039
H   H58       1.0  0.83352  0.26501  0.69170  1.0000 0.1033744039
H   H59       1.0  0.26501  0.69170  0.83352  1.0000 0.1033744039
H   H60       1.0  0.69170  0.83352  0.26501  1.0000 0.1033744039
H   H61       1.0  0.87218  0.56249  0.96330  1.0000 0.1033744039
H   H62       1.0  0.56249  0.96330  0.87218  1.0000 0.1033744039
H   H63       1.0  0.96330  0.87218  0.56249  1.0000 0.1033744039
H   H64       1.0  0.12782  0.43751  0.03670  1.0000 0.1033744039
H   H65       1.0  0.43751  0.03670  0.12782  1.0000 0.1033744039
H   H66       1.0  0.03670  0.12782  0.43751  1.0000 0.1033744039
H   H67       1.0  0.14978  0.34029  0.94160  1.0000 0.1394224534
H   H68       1.0  0.34029  0.94160  0.14978  1.0000 0.1394224534
H   H69       1.0  0.94160  0.14978  0.34029  1.0000 0.1394224534
H   H70       1.0  0.85022  0.65971  0.05840  1.0000 0.1394224534
H   H71       1.0  0.65971  0.05840  0.85022  1.0000 0.1394224534
H   H72       1.0  0.05840  0.85022  0.65971  1.0000 0.1394224534
C   C1        1.0  0.87458  0.73909  0.26790  1.0000 0.1492777686
C   C2        1.0  0.73909  0.26790  0.87458  1.0000 0.1492777686
C   C3        1.0  0.26790  0.87458  0.73909  1.0000 0.1492777686
C   C4        1.0  0.12542  0.26091  0.73210  1.0000 0.1492777686
C   C5        1.0  0.26091  0.73210  0.12542  1.0000 0.1492777686
C   C6        1.0  0.73210  0.12542  0.26091  1.0000 0.1492777686
C   C7        1.0  0.24168  0.41569  0.84570  1.0000 -0.1928706712
C   C8        1.0  0.41569  0.84570  0.24168  1.0000 -0.1928706712
C   C9        1.0  0.84570  0.24168  0.41569  1.0000 -0.1928706712
C   C10       1.0  0.75832  0.58431  0.15430  1.0000 -0.1928706712
C   C11       1.0  0.58431  0.15430  0.75832  1.0000 -0.1928706712
C   C12       1.0  0.15430  0.75832  0.58431  1.0000 -0.1928706712
C   C13       1.0  0.33258  0.46439  0.85940  1.0000 -0.1999099412
C   C14       1.0  0.46439  0.85940  0.33258  1.0000 -0.1999099412
C   C15       1.0  0.85940  0.33258  0.46439  1.0000 -0.1999099412
C   C16       1.0  0.66742  0.53561  0.14060  1.0000 -0.1999099412
C   C17       1.0  0.53561  0.14060  0.66742  1.0000 -0.1999099412
C   C18       1.0  0.14060  0.66742  0.53561  1.0000 -0.1999099412
C   C19       1.0  0.26998  0.33699  0.75210  1.0000 0.1613408567
C   C20       1.0  0.33699  0.75210  0.26998  1.0000 0.1613408567
C   C21       1.0  0.75210  0.26998  0.33699  1.0000 0.1613408567
C   C22       1.0  0.73002  0.66301  0.24790  1.0000 0.1613408567
C   C23       1.0  0.66301  0.24790  0.73002  1.0000 0.1613408567
C   C24       1.0  0.24790  0.73002  0.66301  1.0000 0.1613408567
C   C25       1.0  0.32748  0.33899  0.72680  1.0000 -0.1023613509
C   C26       1.0  0.33899  0.72680  0.32748  1.0000 -0.1023613509
C   C27       1.0  0.72680  0.32748  0.33899  1.0000 -0.1023613509
C   C28       1.0  0.67252  0.66101  0.27320  1.0000 -0.1023613509
C   C29       1.0  0.66101  0.27320  0.67252  1.0000 -0.1023613509
C   C30       1.0  0.27320  0.67252  0.66101  1.0000 -0.1023613509
C   C31       1.0  0.26078  0.21259  0.61570  1.0000 0.1613408567
C   C32       1.0  0.21259  0.61570  0.26078  1.0000 0.1613408567
C   C33       1.0  0.61570  0.26078  0.21259  1.0000 0.1613408567
C   C34       1.0  0.73922  0.78741  0.38430  1.0000 0.1613408567
C   C35       1.0  0.78741  0.38430  0.73922  1.0000 0.1613408567
C   C36       1.0  0.38430  0.73922  0.78741  1.0000 0.1613408567
C   C37       1.0  0.67598  0.78569  0.40640  1.0000 -0.2053323266
C   C38       1.0  0.78569  0.40640  0.67598  1.0000 -0.2053323266
C   C39       1.0  0.40640  0.67598  0.78569  1.0000 -0.2053323266
C   C40       1.0  0.32402  0.21431  0.59360  1.0000 -0.2053323266
C   C41       1.0  0.21431  0.59360  0.32402  1.0000 -0.2053323266
C   C42       1.0  0.59360  0.32402  0.21431  1.0000 -0.2053323266
C   C43       1.0  0.76808  0.92619  0.52060  1.0000 -0.1817578471
C   C44       1.0  0.92619  0.52060  0.76808  1.0000 -0.1817578471
C   C45       1.0  0.52060  0.76808  0.92619  1.0000 -0.1817578471
C   C46       1.0  0.23192  0.07381  0.47940  1.0000 -0.1817578471
C   C47       1.0  0.07381  0.47940  0.23192  1.0000 -0.1817578471
C   C48       1.0  0.47940  0.23192  0.07381  1.0000 -0.1817578471
C   C49       1.0  0.88928  0.01679  0.56860  1.0000 0.1492777686
C   C50       1.0  0.01679  0.56860  0.88928  1.0000 0.1492777686
C   C51       1.0  0.56860  0.88928  0.01679  1.0000 0.1492777686
C   C52       1.0  0.11072  0.98321  0.43140  1.0000 0.1492777686
C   C53       1.0  0.98321  0.43140  0.11072  1.0000 0.1492777686
C   C54       1.0  0.43140  0.11072  0.98321  1.0000 0.1492777686
C   C55       1.0  0.99468  0.83149  0.31880  1.0000 -0.090355345
C   C56       1.0  0.83149  0.31880  0.99468  1.0000 -0.090355345
C   C57       1.0  0.31880  0.99468  0.83149  1.0000 -0.090355345
C   C58       1.0  0.00532  0.16851  0.68120  1.0000 -0.090355345
C   C59       1.0  0.16851  0.68120  0.00532  1.0000 -0.090355345
C   C60       1.0  0.68120  0.00532  0.16851  1.0000 -0.090355345
C   C61       1.0  0.52958  0.51239  0.17570  1.0000 0.1291509473
C   C62       1.0  0.51239  0.17570  0.52958  1.0000 0.1291509473
C   C63       1.0  0.17570  0.52958  0.51239  1.0000 0.1291509473
C   C64       1.0  0.47042  0.48761  0.82430  1.0000 0.1291509473
C   C65       1.0  0.48761  0.82430  0.47042  1.0000 0.1291509473
C   C66       1.0  0.82430  0.47042  0.48761  1.0000 0.1291509473
C   C67       1.0  0.39218  0.39319  0.02460  1.0000 -0.2053323266
C   C68       1.0  0.39319  0.02460  0.39218  1.0000 -0.2053323266
C   C69       1.0  0.02460  0.39218  0.39319  1.0000 -0.2053323266
C   C70       1.0  0.60782  0.60681  0.97540  1.0000 -0.2053323266
C   C71       1.0  0.60681  0.97540  0.60782  1.0000 -0.2053323266
C   C72       1.0  0.97540  0.60782  0.60681  1.0000 -0.2053323266
C   C73       1.0  0.26788  0.26569  0.94640  1.0000 0.0733018223
C   C74       1.0  0.26569  0.94640  0.26788  1.0000 0.0733018223
C   C75       1.0  0.94640  0.26788  0.26569  1.0000 0.0733018223
C   C76       1.0  0.73212  0.73431  0.05360  1.0000 0.0733018223
C   C77       1.0  0.73431  0.05360  0.73212  1.0000 0.0733018223
C   C78       1.0  0.05360  0.73212  0.73431  1.0000 0.0733018223
C   C79       1.0  0.39978  0.35899  0.14630  1.0000 0.0630074345
C   C80       1.0  0.35899  0.14630  0.39978  1.0000 0.0630074345
C   C81       1.0  0.14630  0.39978  0.35899  1.0000 0.0630074345
C   C82       1.0  0.60022  0.64101  0.85370  1.0000 0.0630074345
C   C83       1.0  0.64101  0.85370  0.60022  1.0000 0.0630074345
C   C84       1.0  0.85370  0.60022  0.64101  1.0000 0.0630074345
C   C85       1.0  0.52898  0.48929  0.23420  1.0000 -0.1999099412
C   C86       1.0  0.48929  0.23420  0.52898  1.0000 -0.1999099412
C   C87       1.0  0.23420  0.52898  0.48929  1.0000 -0.1999099412
C   C88       1.0  0.47102  0.51071  0.76580  1.0000 -0.1999099412
C   C89       1.0  0.51071  0.76580  0.47102  1.0000 -0.2053323266
C   C90       1.0  0.76580  0.47102  0.51071  1.0000 -0.1999099412
C   C91       1.0  0.00288  0.76339  0.25060  1.0000 0.1291509473
C   C92       1.0  0.76339  0.25060  0.00288  1.0000 0.1291509473
C   C93       1.0  0.25060  0.00288  0.76339  1.0000 0.1291509473
C   C94       1.0  0.99712  0.23661  0.74940  1.0000 0.1291509473
C   C95       1.0  0.23661  0.74940  0.99712  1.0000 0.1291509473
C   C96       1.0  0.74940  0.99712  0.23661  1.0000 0.1291509473
C   C97       1.0  0.09938  0.78629  0.32500  1.0000 -0.1999099412
C   C98       1.0  0.78629  0.32500  0.09938  1.0000 -0.1999099412
C   C99       1.0  0.32500  0.09938  0.78629  1.0000 -0.1999099412
C   C100      1.0  0.90062  0.21371  0.67500  1.0000 -0.1999099412
C   C101      1.0  0.21371  0.67500  0.90062  1.0000 -0.1999099412
C   C102      1.0  0.67500  0.90062  0.21371  1.0000 -0.1999099412
C   C103      1.0  0.10328  0.72139  0.25820  1.0000 0.0420245805
C   C104      1.0  0.72139  0.25820  0.10328  1.0000 0.0420245805
C   C105      1.0  0.25820  0.10328  0.72139  1.0000 0.0420245805
C   C106      1.0  0.89672  0.27861  0.74180  1.0000 0.0420245805
C   C107      1.0  0.27861  0.74180  0.89672  1.0000 0.0420245805
C   C108      1.0  0.74180  0.89672  0.27861  1.0000 0.0420245805
C   C109      1.0  0.93118  0.61969  0.05650  1.0000 0.0867639759
C   C110      1.0  0.61969  0.05650  0.93118  1.0000 0.0867639759
C   C111      1.0  0.05650  0.93118  0.61969  1.0000 0.0867639759
C   C112      1.0  0.06882  0.38031  0.94350  1.0000 0.0867639759
C   C113      1.0  0.38031  0.94350  0.06882  1.0000 0.0867639759
C   C114      1.0  0.94350  0.06882  0.38031  1.0000 0.0867639759
C   C115      1.0  0.08318  0.32189  0.88710  1.0000 -0.1999099412
C   C116      1.0  0.32189  0.88710  0.08318  1.0000 -0.1999099412
C   C117      1.0  0.88710  0.08318  0.32189  1.0000 -0.1999099412
C   C118      1.0  0.91682  0.67811  0.11290  1.0000 -0.1999099412
C   C119      1.0  0.67811  0.11290  0.91682  1.0000 -0.1999099412
C   C120      1.0  0.11290  0.91682  0.67811  1.0000 -0.1999099412
N   N1        1.0  0.85531  0.78719  0.32427  1.0000 -0.3308187402
N   N2        1.0  0.78719  0.32427  0.85531  1.0000 -0.3350845373
N   N3        1.0  0.32427  0.85531  0.78719  1.0000 -0.3308187402
N   N4        1.0  0.14469  0.21281  0.67573  1.0000 -0.3308187402
N   N5        1.0  0.21281  0.67573  0.14469  1.0000 -0.3350845373
N   N6        1.0  0.67573  0.14469  0.21281  1.0000 -0.3308187402
N   N7        1.0  0.12891  0.07009  0.51507  1.0000 -0.3308187402
N   N8        1.0  0.07009  0.51507  0.12891  1.0000 -0.3308187402
N   N9        1.0  0.51507  0.12891  0.07009  1.0000 -0.3308187402
N   N10       1.0  0.87109  0.92991  0.48493  1.0000 -0.3308187402
N   N11       1.0  0.92991  0.48493  0.87109  1.0000 -0.3308187402
N   N12       1.0  0.48493  0.87109  0.92991  1.0000 -0.3308187402
N   N13       1.0  0.26808  0.24579  0.00210  1.0000 -0.2459597087
N   N14       1.0  0.24579  0.00210  0.26808  1.0000 -0.2459597087
N   N15       1.0  0.00210  0.26808  0.24579  1.0000 -0.2459597087
N   N16       1.0  0.73192  0.75421  0.99790  1.0000 -0.2459597087
N   N17       1.0  0.75421  0.99790  0.73192  1.0000 -0.2459597087
N   N18       1.0  0.99790  0.73192  0.75421  1.0000 -0.2459597087
N   N19       1.0  0.02078  0.63949  0.12440  1.0000 -0.1999099412
N   N20       1.0  0.63949  0.12440  0.02078  1.0000 -0.1999099412
N   N21       1.0  0.12440  0.02078  0.63949  1.0000 -0.1999099412
N   N22       1.0  0.97922  0.36051  0.87560  1.0000 -0.1999099412
N   N23       1.0  0.36051  0.87560  0.97922  1.0000 -0.1999099412
N   N24       1.0  0.87560  0.97922  0.36051  1.0000 -0.1999099412
