# DDEC6 charges by PACMAN v1.1 (https://github.com/mtap-research/PACMAN-charge/)
data_2015[Cu][crb]3[FSR]2
_chemical_formula_sum              "Cu4 H36 C60 N20 O16"
_cell_length_a       10.0802
_cell_length_b       17.451
_cell_length_c       13.9584
_cell_angle_alpha    90
_cell_angle_beta     125.589
_cell_angle_gamma    90

_symmetry_space_group_name_H-M    "P 1"
_symmetry_Int_Tables_number       1

loop_
  _symmetry_equiv_pos_as_xyz
  'x, y, z'

loop_
  _atom_site_type_symbol
  _atom_site_label
  _atom_site_symmetry_multiplicity
  _atom_site_fract_x
  _atom_site_fract_y
  _atom_site_fract_z
  _atom_site_occupancy
  _atom_site_charge
Cu  Cu1       1.0  0.09463  0.55000  0.66274  1.0000 0.7494368249
Cu  Cu2       1.0  0.90537  0.05000  0.83726  1.0000 0.7494368249
Cu  Cu3       1.0  0.90537  0.45000  0.33726  1.0000 0.7494368249
Cu  Cu4       1.0  0.09463  0.95000  0.16274  1.0000 0.7494368249
H   H1        1.0  0.45720  0.06100  0.84810  1.0000 0.1473121488
H   H2        1.0  0.54280  0.56100  0.65190  1.0000 0.1473121488
H   H3        1.0  0.54280  0.93900  0.15190  1.0000 0.1473121488
H   H4        1.0  0.45720  0.43900  0.34810  1.0000 0.1473121488
H   H5        1.0  0.08180  0.21230  0.71310  1.0000 0.1422977268
H   H6        1.0  0.91820  0.71230  0.78690  1.0000 0.1422977268
H   H7        1.0  0.91820  0.78770  0.28690  1.0000 0.1422977268
H   H8        1.0  0.08180  0.28770  0.21310  1.0000 0.1422977268
H   H9        1.0  0.46910  0.26050  0.70340  1.0000 0.1422977268
H   H10       1.0  0.53090  0.76050  0.79660  1.0000 0.1422977268
H   H11       1.0  0.53090  0.73950  0.29660  1.0000 0.1422977268
H   H12       1.0  0.46910  0.23950  0.20340  1.0000 0.1422977268
H   H13       1.0  0.19350  0.26180  0.45020  1.0000 0.1584106753
H   H14       1.0  0.80650  0.76180  0.04980  1.0000 0.1584106753
H   H15       1.0  0.80650  0.73820  0.54980  1.0000 0.1584106753
H   H16       1.0  0.19350  0.23820  0.95020  1.0000 0.1584106753
H   H17       1.0  0.06820  0.21540  0.46370  1.0000 0.1584106753
H   H18       1.0  0.93180  0.71540  0.03630  1.0000 0.1584106753
H   H19       1.0  0.93180  0.78460  0.53630  1.0000 0.1584106753
H   H20       1.0  0.06820  0.28460  0.96370  1.0000 0.1584106753
H   H21       1.0  0.00160  0.27680  0.36000  1.0000 0.1875753397
H   H22       1.0  0.99840  0.77680  0.14000  1.0000 0.1875753397
H   H23       1.0  0.99840  0.72320  0.64000  1.0000 0.1875753397
H   H24       1.0  0.00160  0.22320  0.86000  1.0000 0.1875753397
H   H25       1.0  0.37620  0.31660  0.90140  1.0000 0.1231409231
H   H26       1.0  0.62380  0.81660  0.59860  1.0000 0.1231409231
H   H27       1.0  0.62380  0.68340  0.09860  1.0000 0.1231409231
H   H28       1.0  0.37620  0.18340  0.40140  1.0000 0.1231409231
H   H29       1.0  0.38280  0.48520  0.09200  1.0000 0.1251870463
H   H30       1.0  0.61720  0.98520  0.40800  1.0000 0.1251870463
H   H31       1.0  0.61720  0.51480  0.90800  1.0000 0.1251870463
H   H32       1.0  0.38280  0.01480  0.59200  1.0000 0.1251870463
H   H33       1.0  0.23500  0.56190  0.92600  1.0000 0.1422977268
H   H34       1.0  0.76500  0.06190  0.57400  1.0000 0.1422977268
H   H35       1.0  0.76500  0.43810  0.07400  1.0000 0.1422977268
H   H36       1.0  0.23500  0.93810  0.42600  1.0000 0.1422977268
C   C1        1.0  0.17370  0.07830  0.82500  1.0000 0.5514839882
C   C2        1.0  0.82630  0.57830  0.67500  1.0000 0.5514839882
C   C3        1.0  0.82630  0.92170  0.17500  1.0000 0.5514839882
C   C4        1.0  0.17370  0.42170  0.32500  1.0000 0.5514839882
C   C5        1.0  0.64320  0.13380  0.79370  1.0000 0.5514839882
C   C6        1.0  0.35680  0.63380  0.70630  1.0000 0.5514839882
C   C7        1.0  0.35680  0.86620  0.20630  1.0000 0.5514839882
C   C8        1.0  0.64320  0.36620  0.29370  1.0000 0.5514839882
C   C9        1.0  0.40820  0.10830  0.81030  1.0000 -0.1109897624
C   C10       1.0  0.59180  0.60830  0.68970  1.0000 -0.1154292679
C   C11       1.0  0.59180  0.89170  0.18970  1.0000 -0.1154292679
C   C12       1.0  0.40820  0.39170  0.31030  1.0000 -0.1109897624
C   C13       1.0  0.25890  0.12900  0.78850  1.0000 0.013221105
C   C14       1.0  0.74110  0.62900  0.71150  1.0000 0.013221105
C   C15       1.0  0.74110  0.87100  0.21150  1.0000 0.013221105
C   C16       1.0  0.25890  0.37100  0.28850  1.0000 0.013221105
C   C17       1.0  0.48640  0.15600  0.77740  1.0000 0.013221105
C   C18       1.0  0.51360  0.65600  0.72260  1.0000 0.013221105
C   C19       1.0  0.51360  0.84400  0.22260  1.0000 0.0152386775
C   C20       1.0  0.48640  0.34400  0.27740  1.0000 0.013221105
C   C21       1.0  0.18520  0.19840  0.73140  1.0000 -0.2186568497
C   C22       1.0  0.81480  0.69840  0.76860  1.0000 -0.2186568497
C   C23       1.0  0.81480  0.80160  0.26860  1.0000 -0.2186568497
C   C24       1.0  0.18520  0.30160  0.23140  1.0000 -0.2186568497
C   C25       1.0  0.41570  0.22670  0.72410  1.0000 -0.2069381984
C   C26       1.0  0.58430  0.72670  0.77590  1.0000 -0.2069381984
C   C27       1.0  0.58430  0.77330  0.27590  1.0000 -0.2069381984
C   C28       1.0  0.41570  0.27330  0.22410  1.0000 -0.2069381984
C   C29       1.0  0.26710  0.24670  0.70190  1.0000 0.1584106753
C   C30       1.0  0.73290  0.74670  0.79810  1.0000 0.1584106753
C   C31       1.0  0.73290  0.75330  0.29810  1.0000 0.1584106753
C   C32       1.0  0.26710  0.25330  0.20190  1.0000 0.1584106753
C   C33       1.0  0.09020  0.26480  0.44190  1.0000 -0.5265029824
C   C34       1.0  0.90980  0.76480  0.05810  1.0000 -0.5265029824
C   C35       1.0  0.90980  0.73520  0.55810  1.0000 -0.5265029824
C   C36       1.0  0.09020  0.23520  0.94190  1.0000 -0.5265029824
C   C37       1.0  0.10130  0.32580  0.52060  1.0000 0.4027785131
C   C38       1.0  0.89870  0.82580  0.97940  1.0000 0.4027785131
C   C39       1.0  0.89870  0.67420  0.47940  1.0000 0.4027785131
C   C40       1.0  0.10130  0.17420  0.02060  1.0000 0.4027785131
C   C41       1.0  0.17660  0.38620  0.68380  1.0000 0.2241987729
C   C42       1.0  0.82340  0.88620  0.81620  1.0000 0.2241987729
C   C43       1.0  0.82340  0.61380  0.31620  1.0000 0.2241987729
C   C44       1.0  0.17660  0.11380  0.18380  1.0000 0.2241987729
C   C45       1.0  0.24890  0.41090  0.80470  1.0000 0.113695457
C   C46       1.0  0.75110  0.91090  0.69530  1.0000 0.113695457
C   C47       1.0  0.75110  0.58910  0.19530  1.0000 0.113695457
C   C48       1.0  0.24890  0.08910  0.30470  1.0000 0.113695457
C   C49       1.0  0.34630  0.36710  0.90740  1.0000 -0.0102766637
C   C50       1.0  0.65370  0.86710  0.59260  1.0000 -0.0102766637
C   C51       1.0  0.65370  0.63290  0.09260  1.0000 -0.0102766637
C   C52       1.0  0.34630  0.13290  0.40740  1.0000 -0.0102766637
C   C53       1.0  0.35280  0.46530  0.01850  1.0000 0.0354823651
C   C54       1.0  0.64720  0.96530  0.48150  1.0000 0.0354823651
C   C55       1.0  0.64720  0.53470  0.98150  1.0000 0.0354823651
C   C56       1.0  0.35280  0.03470  0.51850  1.0000 0.0354823651
C   C57       1.0  0.26210  0.51120  0.91870  1.0000 0.0587591523
C   C58       1.0  0.73790  0.01120  0.58130  1.0000 0.0587591523
C   C59       1.0  0.73790  0.48880  0.08130  1.0000 0.0587591523
C   C60       1.0  0.26210  0.98880  0.41870  1.0000 0.0587591523
N   N1        1.0  0.18780  0.31730  0.64050  1.0000 -0.1109897624
N   N2        1.0  0.81220  0.81730  0.85950  1.0000 -0.1109897624
N   N3        1.0  0.81220  0.68270  0.35950  1.0000 -0.1109897624
N   N4        1.0  0.18780  0.18270  0.14050  1.0000 -0.1109897624
N   N5        1.0  0.03850  0.39650  0.49180  1.0000 -0.2069381984
N   N6        1.0  0.96150  0.89650  0.00820  1.0000 -0.2069381984
N   N7        1.0  0.96150  0.60350  0.50820  1.0000 -0.2069381984
N   N8        1.0  0.03850  0.10350  0.99180  1.0000 -0.2069381984
N   N9        1.0  0.08530  0.43390  0.59510  1.0000 -0.2186568497
N   N10       1.0  0.91470  0.93390  0.90490  1.0000 -0.2186568497
N   N11       1.0  0.91470  0.56610  0.40490  1.0000 -0.2186568497
N   N12       1.0  0.08530  0.06610  0.09510  1.0000 -0.2186568497
N   N13       1.0  0.21220  0.48500  0.81260  1.0000 -0.2029066166
N   N14       1.0  0.78780  0.98500  0.68740  1.0000 -0.2029066166
N   N15       1.0  0.78780  0.51500  0.18740  1.0000 -0.2029066166
N   N16       1.0  0.21220  0.01500  0.31260  1.0000 -0.2029066166
N   N17       1.0  0.39920  0.39450  0.01480  1.0000 -0.1702436177
N   N18       1.0  0.60080  0.89450  0.48520  1.0000 -0.1702436177
N   N19       1.0  0.60080  0.60550  0.98520  1.0000 -0.1702436177
N   N20       1.0  0.39920  0.10550  0.51480  1.0000 -0.1702436177
O   O1        1.0  0.25360  0.02700  0.90180  1.0000 -0.5599512165
O   O2        1.0  0.74640  0.52700  0.59820  1.0000 -0.5599512165
O   O3        1.0  0.74640  0.97300  0.09820  1.0000 -0.5599512165
O   O4        1.0  0.25360  0.47300  0.40180  1.0000 -0.5599512165
O   O5        1.0  0.02900  0.09600  0.78480  1.0000 -0.541397289
O   O6        1.0  0.97100  0.59600  0.71520  1.0000 -0.541397289
O   O7        1.0  0.97100  0.90400  0.21520  1.0000 -0.541397289
O   O8        1.0  0.02900  0.40400  0.28480  1.0000 -0.541397289
O   O9        1.0  0.68670  0.06345  0.81800  1.0000 -0.5529873526
O   O10       1.0  0.31330  0.56345  0.68200  1.0000 -0.5529873526
O   O11       1.0  0.31330  0.93655  0.18200  1.0000 -0.5529873526
O   O12       1.0  0.68670  0.43655  0.31800  1.0000 -0.5529873526
O   O13       1.0  0.72340  0.18430  0.78390  1.0000 -0.5599512165
O   O14       1.0  0.27660  0.68430  0.71610  1.0000 -0.5599512165
O   O15       1.0  0.27660  0.81570  0.21610  1.0000 -0.5599512165
O   O16       1.0  0.72340  0.31570  0.28390  1.0000 -0.5599512165
