# DDEC6 charges by PACMAN v1.1 (https://github.com/mtap-research/PACMAN-charge/)
data_2015[Zn][nan]3[FSR]54
_chemical_formula_sum              "Zn8 H40 C64 N24 O16"
_cell_length_a       9.7898
_cell_length_b       10.0893
_cell_length_c       26.5212
_cell_angle_alpha    90
_cell_angle_beta     90
_cell_angle_gamma    90

_symmetry_space_group_name_H-M    "P 1"
_symmetry_Int_Tables_number       1

loop_
  _symmetry_equiv_pos_as_xyz
  'x, y, z'

loop_
  _atom_site_type_symbol
  _atom_site_label
  _atom_site_symmetry_multiplicity
  _atom_site_fract_x
  _atom_site_fract_y
  _atom_site_fract_z
  _atom_site_occupancy
  _atom_site_charge
Zn  Zn1       1.0  0.08667  0.88448  0.54415  1.0000 0.660514374
Zn  Zn2       1.0  0.58667  0.61552  0.45585  1.0000 0.660514374
Zn  Zn3       1.0  0.91333  0.11552  0.04415  1.0000 0.660514374
Zn  Zn4       1.0  0.41333  0.38448  0.95585  1.0000 0.660514374
Zn  Zn5       1.0  0.91333  0.11552  0.45585  1.0000 0.660514374
Zn  Zn6       1.0  0.41333  0.38448  0.54415  1.0000 0.660514374
Zn  Zn7       1.0  0.08667  0.88448  0.95585  1.0000 0.660514374
Zn  Zn8       1.0  0.58667  0.61552  0.04415  1.0000 0.660514374
H   H1        1.0  0.98760  0.63930  0.66240  1.0000 0.1207753628
H   H2        1.0  0.48760  0.86070  0.33760  1.0000 0.1207753628
H   H3        1.0  0.01240  0.36070  0.16240  1.0000 0.1207753628
H   H4        1.0  0.51240  0.13930  0.83760  1.0000 0.1207753628
H   H5        1.0  0.01240  0.36070  0.33760  1.0000 0.1207753628
H   H6        1.0  0.51240  0.13930  0.66240  1.0000 0.1207753628
H   H7        1.0  0.98760  0.63930  0.83760  1.0000 0.1207753628
H   H8        1.0  0.48760  0.86070  0.16240  1.0000 0.1207753628
H   H9        1.0  0.88520  0.47190  0.70640  1.0000 0.1207753628
H   H10       1.0  0.38520  0.02810  0.29360  1.0000 0.1207753628
H   H11       1.0  0.11480  0.52810  0.20640  1.0000 0.1207753628
H   H12       1.0  0.61480  0.97190  0.79360  1.0000 0.1207753628
H   H13       1.0  0.11480  0.52810  0.29360  1.0000 0.1207753628
H   H14       1.0  0.61480  0.97190  0.70640  1.0000 0.1207753628
H   H15       1.0  0.88520  0.47190  0.79360  1.0000 0.1207753628
H   H16       1.0  0.38520  0.02810  0.20640  1.0000 0.1207753628
H   H17       1.0  0.23250  0.01410  0.70650  1.0000 0.1207753628
H   H18       1.0  0.73250  0.48590  0.29350  1.0000 0.1207753628
H   H19       1.0  0.76750  0.98590  0.20650  1.0000 0.1207753628
H   H20       1.0  0.26750  0.51410  0.79350  1.0000 0.1207753628
H   H21       1.0  0.76750  0.98590  0.29350  1.0000 0.1207753628
H   H22       1.0  0.26750  0.51410  0.70650  1.0000 0.1207753628
H   H23       1.0  0.23250  0.01410  0.79350  1.0000 0.1207753628
H   H24       1.0  0.73250  0.48590  0.20650  1.0000 0.1207753628
H   H25       1.0  0.35590  0.83570  0.47370  1.0000 0.1207753628
H   H26       1.0  0.85590  0.66430  0.52630  1.0000 0.1207753628
H   H27       1.0  0.64410  0.16430  0.97370  1.0000 0.1207753628
H   H28       1.0  0.14410  0.33570  0.02630  1.0000 0.1207753628
H   H29       1.0  0.64410  0.16430  0.52630  1.0000 0.1207753628
H   H30       1.0  0.14410  0.33570  0.47370  1.0000 0.1207753628
H   H31       1.0  0.35590  0.83570  0.02630  1.0000 0.1207753628
H   H32       1.0  0.85590  0.66430  0.97370  1.0000 0.1207753628
H   H33       1.0  0.17410  0.58820  0.56300  1.0000 0.1207753628
H   H34       1.0  0.67410  0.91180  0.43700  1.0000 0.1207753628
H   H35       1.0  0.82590  0.41180  0.06300  1.0000 0.1207753628
H   H36       1.0  0.32590  0.08820  0.93700  1.0000 0.1207753628
H   H37       1.0  0.82590  0.41180  0.43700  1.0000 0.1207753628
H   H38       1.0  0.32590  0.08820  0.56300  1.0000 0.1207753628
H   H39       1.0  0.17410  0.58820  0.93700  1.0000 0.1207753628
H   H40       1.0  0.67410  0.91180  0.06300  1.0000 0.1207753628
C   C1        1.0  0.12150  0.86810  0.64041  1.0000 0.5506302311
C   C2        1.0  0.62150  0.63190  0.35959  1.0000 0.5506302311
C   C3        1.0  0.87850  0.13190  0.14041  1.0000 0.5506302311
C   C4        1.0  0.37850  0.36810  0.85959  1.0000 0.5506302311
C   C5        1.0  0.87850  0.13190  0.35959  1.0000 0.5506302311
C   C6        1.0  0.37850  0.36810  0.64041  1.0000 0.5506302311
C   C7        1.0  0.12150  0.86810  0.85959  1.0000 0.5506302311
C   C8        1.0  0.62150  0.63190  0.14041  1.0000 0.5506302311
C   C9        1.0  0.11840  0.85270  0.69693  1.0000 -0.0520892714
C   C10       1.0  0.61840  0.64730  0.30307  1.0000 -0.0520892714
C   C11       1.0  0.88160  0.14730  0.19693  1.0000 -0.0520892714
C   C12       1.0  0.38160  0.35270  0.80307  1.0000 -0.0520892714
C   C13       1.0  0.88160  0.14730  0.30307  1.0000 -0.0520892714
C   C14       1.0  0.38160  0.35270  0.69693  1.0000 -0.0520892714
C   C15       1.0  0.11840  0.85270  0.80307  1.0000 -0.0520892714
C   C16       1.0  0.61840  0.64730  0.19693  1.0000 -0.0520892714
C   C17       1.0  0.04990  0.74740  0.72293  1.0000 0.0541654832
C   C18       1.0  0.54990  0.75260  0.27707  1.0000 0.0541654832
C   C19       1.0  0.95010  0.25260  0.22293  1.0000 0.0541654832
C   C20       1.0  0.45010  0.24740  0.77707  1.0000 0.0541654832
C   C21       1.0  0.95010  0.25260  0.27707  1.0000 0.0541654832
C   C22       1.0  0.45010  0.24740  0.72293  1.0000 0.0541654832
C   C23       1.0  0.04990  0.74740  0.77707  1.0000 0.0541654832
C   C24       1.0  0.54990  0.75260  0.22293  1.0000 0.0541654832
C   C25       1.0  0.98760  0.64120  0.69748  1.0000 -0.1385434971
C   C26       1.0  0.48760  0.85880  0.30252  1.0000 -0.1385434971
C   C27       1.0  0.01240  0.35880  0.19748  1.0000 -0.1385434971
C   C28       1.0  0.51240  0.14120  0.80252  1.0000 -0.1385434971
C   C29       1.0  0.01240  0.35880  0.30252  1.0000 -0.1385434971
C   C30       1.0  0.51240  0.14120  0.69748  1.0000 -0.1385434971
C   C31       1.0  0.98760  0.64120  0.80252  1.0000 -0.1385434971
C   C32       1.0  0.48760  0.85880  0.19748  1.0000 -0.1385434971
C   C33       1.0  0.92700  0.54100  0.72371  1.0000 -0.0956180424
C   C34       1.0  0.42700  0.95900  0.27629  1.0000 -0.0956180424
C   C35       1.0  0.07300  0.45900  0.22371  1.0000 -0.0956180424
C   C36       1.0  0.57300  0.04100  0.77629  1.0000 -0.0956180424
C   C37       1.0  0.07300  0.45900  0.27629  1.0000 -0.0956180424
C   C38       1.0  0.57300  0.04100  0.72371  1.0000 -0.0956180424
C   C39       1.0  0.92700  0.54100  0.77629  1.0000 -0.0956180424
C   C40       1.0  0.42700  0.95900  0.22371  1.0000 -0.0956180424
C   C41       1.0  0.18570  0.94780  0.72365  1.0000 -0.1101294339
C   C42       1.0  0.68570  0.55220  0.27635  1.0000 -0.1101294339
C   C43       1.0  0.81430  0.05220  0.22365  1.0000 -0.1101294339
C   C44       1.0  0.31430  0.44780  0.77635  1.0000 -0.1101294339
C   C45       1.0  0.81430  0.05220  0.27635  1.0000 -0.1101294339
C   C46       1.0  0.31430  0.44780  0.72365  1.0000 -0.1101294339
C   C47       1.0  0.18570  0.94780  0.77635  1.0000 -0.1101294339
C   C48       1.0  0.68570  0.55220  0.22365  1.0000 -0.1101294339
C   C49       1.0  0.33500  0.76030  0.49228  1.0000 0.148732037
C   C50       1.0  0.83500  0.73970  0.50772  1.0000 0.148732037
C   C51       1.0  0.66500  0.23970  0.99228  1.0000 0.148732037
C   C52       1.0  0.16500  0.26030  0.00772  1.0000 0.148732037
C   C53       1.0  0.66500  0.23970  0.50772  1.0000 0.148732037
C   C54       1.0  0.16500  0.26030  0.49228  1.0000 0.148732037
C   C55       1.0  0.33500  0.76030  0.00772  1.0000 0.148732037
C   C56       1.0  0.83500  0.73970  0.99228  1.0000 0.148732037
C   C57       1.0  0.23670  0.62580  0.54080  1.0000 0.1557818658
C   C58       1.0  0.73670  0.87420  0.45920  1.0000 0.1557818658
C   C59       1.0  0.76330  0.37420  0.04080  1.0000 0.1557818658
C   C60       1.0  0.26330  0.12580  0.95920  1.0000 0.1557818658
C   C61       1.0  0.76330  0.37420  0.45920  1.0000 0.1557818658
C   C62       1.0  0.26330  0.12580  0.54080  1.0000 0.1557818658
C   C63       1.0  0.23670  0.62580  0.95920  1.0000 0.1557818658
C   C64       1.0  0.73670  0.87420  0.04080  1.0000 0.1557818658
N   N1        1.0  0.22430  0.74850  0.52187  1.0000 -0.3202201233
N   N2        1.0  0.72430  0.75150  0.47813  1.0000 -0.3202201233
N   N3        1.0  0.77570  0.25150  0.02187  1.0000 -0.3202201233
N   N4        1.0  0.27570  0.24850  0.97813  1.0000 -0.3202201233
N   N5        1.0  0.77570  0.25150  0.47813  1.0000 -0.3202201233
N   N6        1.0  0.27570  0.24850  0.52187  1.0000 -0.3202201233
N   N7        1.0  0.22430  0.74850  0.97813  1.0000 -0.3202201233
N   N8        1.0  0.72430  0.75150  0.02187  1.0000 -0.3202201233
N   N9        1.0  0.34590  0.56490  0.52480  1.0000 -0.1933759146
N   N10       1.0  0.84590  0.93510  0.47520  1.0000 -0.1933759146
N   N11       1.0  0.65410  0.43510  0.02480  1.0000 -0.1933759146
N   N12       1.0  0.15410  0.06490  0.97520  1.0000 -0.1933759146
N   N13       1.0  0.65410  0.43510  0.47520  1.0000 -0.1933759146
N   N14       1.0  0.15410  0.06490  0.52480  1.0000 -0.1933759146
N   N15       1.0  0.34590  0.56490  0.97520  1.0000 -0.1933759146
N   N16       1.0  0.84590  0.93510  0.02480  1.0000 -0.1933759146
N   N17       1.0  0.41040  0.65210  0.49282  1.0000 -0.1956441805
N   N18       1.0  0.91040  0.84790  0.50718  1.0000 -0.1956441805
N   N19       1.0  0.58960  0.34790  0.99282  1.0000 -0.1956441805
N   N20       1.0  0.08960  0.15210  0.00718  1.0000 -0.1956441805
N   N21       1.0  0.58960  0.34790  0.50718  1.0000 -0.1956441805
N   N22       1.0  0.08960  0.15210  0.49282  1.0000 -0.1956441805
N   N23       1.0  0.41040  0.65210  0.00718  1.0000 -0.1956441805
N   N24       1.0  0.91040  0.84790  0.99282  1.0000 -0.1956441805
O   O1        1.0  0.02190  0.83070  0.61376  1.0000 -0.534040171
O   O2        1.0  0.52190  0.66930  0.38624  1.0000 -0.534040171
O   O3        1.0  0.97810  0.16930  0.11376  1.0000 -0.534040171
O   O4        1.0  0.47810  0.33070  0.88624  1.0000 -0.534040171
O   O5        1.0  0.97810  0.16930  0.38624  1.0000 -0.534040171
O   O6        1.0  0.47810  0.33070  0.61376  1.0000 -0.534040171
O   O7        1.0  0.02190  0.83070  0.88624  1.0000 -0.534040171
O   O8        1.0  0.52190  0.66930  0.11376  1.0000 -0.534040171
O   O9        1.0  0.22060  0.92210  0.62073  1.0000 -0.534040171
O   O10       1.0  0.72060  0.57790  0.37927  1.0000 -0.534040171
O   O11       1.0  0.77940  0.07790  0.12073  1.0000 -0.534040171
O   O12       1.0  0.27940  0.42210  0.87927  1.0000 -0.534040171
O   O13       1.0  0.77940  0.07790  0.37927  1.0000 -0.534040171
O   O14       1.0  0.27940  0.42210  0.62073  1.0000 -0.534040171
O   O15       1.0  0.22060  0.92210  0.87927  1.0000 -0.534040171
O   O16       1.0  0.72060  0.57790  0.12073  1.0000 -0.534040171
