# DDEC6 charges by PACMAN v1.1 (https://github.com/mtap-research/PACMAN-charge/)
data_2015[Nd][nan]3[FSR]3
_chemical_formula_sum              "Nd4 H36 C72 O32"
_cell_length_a       9.832
_cell_length_b       21.3218
_cell_length_c       14.6291
_cell_angle_alpha    90
_cell_angle_beta     114.738
_cell_angle_gamma    90

_symmetry_space_group_name_H-M    "P 1"
_symmetry_Int_Tables_number       1

loop_
  _symmetry_equiv_pos_as_xyz
  'x, y, z'

loop_
  _atom_site_type_symbol
  _atom_site_label
  _atom_site_symmetry_multiplicity
  _atom_site_fract_x
  _atom_site_fract_y
  _atom_site_fract_z
  _atom_site_occupancy
  _atom_site_charge
Nd  Nd1       1.0  0.74638  0.01562  0.48514  1.0000 2.1007822341
Nd  Nd2       1.0  0.25362  0.51562  0.01486  1.0000 2.1007822341
Nd  Nd3       1.0  0.25362  0.98438  0.51486  1.0000 2.1007822341
Nd  Nd4       1.0  0.74638  0.48438  0.98514  1.0000 2.1007822341
H   H1        1.0  0.15220  0.13290  0.38480  1.0000 0.1336827594
H   H2        1.0  0.84780  0.63290  0.11520  1.0000 0.1336827594
H   H3        1.0  0.84780  0.86710  0.61520  1.0000 0.1336827594
H   H4        1.0  0.15220  0.36710  0.88480  1.0000 0.1336827594
H   H5        1.0  0.00590  0.20540  0.27300  1.0000 0.1336827594
H   H6        1.0  0.99410  0.70540  0.22700  1.0000 0.1336827594
H   H7        1.0  0.99410  0.79460  0.72700  1.0000 0.1336827594
H   H8        1.0  0.00590  0.29460  0.77300  1.0000 0.1336827594
H   H9        1.0  0.97820  0.30050  0.16510  1.0000 0.1370269395
H   H10       1.0  0.02180  0.80050  0.33490  1.0000 0.1370269395
H   H11       1.0  0.02180  0.69950  0.83490  1.0000 0.1370269395
H   H12       1.0  0.97820  0.19950  0.66510  1.0000 0.1370269395
H   H13       1.0  0.34120  0.36990  0.13960  1.0000 0.1336827594
H   H14       1.0  0.65880  0.86990  0.36040  1.0000 0.1336827594
H   H15       1.0  0.65880  0.63010  0.86040  1.0000 0.1336827594
H   H16       1.0  0.34120  0.13010  0.63960  1.0000 0.1336827594
H   H17       1.0  0.48800  0.29180  0.24310  1.0000 0.1246648169
H   H18       1.0  0.51200  0.79180  0.25690  1.0000 0.1246648169
H   H19       1.0  0.51200  0.70820  0.75690  1.0000 0.1246648169
H   H20       1.0  0.48800  0.20820  0.74310  1.0000 0.1246648169
H   H21       1.0  0.51280  0.19640  0.34860  1.0000 0.1336827594
H   H22       1.0  0.48720  0.69640  0.15140  1.0000 0.1336827594
H   H23       1.0  0.48720  0.80360  0.65140  1.0000 0.1336827594
H   H24       1.0  0.51280  0.30360  0.84860  1.0000 0.1336827594
H   H25       1.0  0.22950  0.93420  0.99900  1.0000 0.1246648169
H   H26       1.0  0.77050  0.43420  0.50100  1.0000 0.1246648169
H   H27       1.0  0.77050  0.06580  0.00100  1.0000 0.1246648169
H   H28       1.0  0.22950  0.56580  0.49900  1.0000 0.1246648169
H   H29       1.0  0.12520  0.94530  0.82700  1.0000 0.1336827594
H   H30       1.0  0.87480  0.44530  0.67300  1.0000 0.1336827594
H   H31       1.0  0.87480  0.05470  0.17300  1.0000 0.1336827594
H   H32       1.0  0.12520  0.55470  0.32700  1.0000 0.1336827594
H   H33       1.0  0.77810  0.04260  0.83390  1.0000 0.1336827594
H   H34       1.0  0.22190  0.54260  0.66610  1.0000 0.1336827594
H   H35       1.0  0.22190  0.95740  0.16610  1.0000 0.1336827594
H   H36       1.0  0.77810  0.45740  0.33390  1.0000 0.1336827594
C   C1        1.0  0.35030  0.15760  0.37740  1.0000 -0.017009236
C   C2        1.0  0.64970  0.65760  0.12260  1.0000 -0.017009236
C   C3        1.0  0.64970  0.84240  0.62260  1.0000 -0.017009236
C   C4        1.0  0.35030  0.34240  0.87740  1.0000 -0.017009236
C   C5        1.0  0.19550  0.16130  0.35450  1.0000 -0.0846055958
C   C6        1.0  0.80450  0.66130  0.14550  1.0000 -0.0846055958
C   C7        1.0  0.80450  0.83870  0.64550  1.0000 -0.0846055958
C   C8        1.0  0.19550  0.33870  0.85450  1.0000 -0.0895781451
C   C9        1.0  0.11030  0.20490  0.28990  1.0000 -0.1317136615
C   C10       1.0  0.88970  0.70490  0.21010  1.0000 -0.1317136615
C   C11       1.0  0.88970  0.79510  0.71010  1.0000 -0.1317136615
C   C12       1.0  0.11030  0.29510  0.78990  1.0000 -0.1317136615
C   C13       1.0  0.16930  0.24980  0.24610  1.0000 0.0708531196
C   C14       1.0  0.83070  0.74980  0.25390  1.0000 0.0708531196
C   C15       1.0  0.83070  0.75020  0.75390  1.0000 0.0708531196
C   C16       1.0  0.16930  0.25020  0.74610  1.0000 0.0708531196
C   C17       1.0  0.08240  0.29860  0.18150  1.0000 -0.1389709638
C   C18       1.0  0.91760  0.79860  0.31850  1.0000 -0.1389709638
C   C19       1.0  0.91760  0.70140  0.81850  1.0000 -0.1389709638
C   C20       1.0  0.08240  0.20140  0.68150  1.0000 -0.1389709638
C   C21       1.0  0.14320  0.34220  0.14260  1.0000 -0.0096504568
C   C22       1.0  0.85680  0.84220  0.35740  1.0000 -0.0096504568
C   C23       1.0  0.85680  0.65780  0.85740  1.0000 -0.0096504568
C   C24       1.0  0.14320  0.15780  0.64260  1.0000 -0.0096504568
C   C25       1.0  0.29730  0.33950  0.16640  1.0000 -0.0956524723
C   C26       1.0  0.70270  0.83950  0.33360  1.0000 -0.0956524723
C   C27       1.0  0.70270  0.66050  0.83360  1.0000 -0.0956524723
C   C28       1.0  0.29730  0.16050  0.66640  1.0000 -0.0956524723
C   C29       1.0  0.38420  0.29310  0.22800  1.0000 -0.1317136615
C   C30       1.0  0.61580  0.79310  0.27200  1.0000 -0.1317136615
C   C31       1.0  0.61580  0.70690  0.77200  1.0000 -0.1317136615
C   C32       1.0  0.38420  0.20690  0.72800  1.0000 -0.1317136615
C   C33       1.0  0.32340  0.24710  0.26950  1.0000 0.0708531196
C   C34       1.0  0.67660  0.74710  0.23050  1.0000 0.0708531196
C   C35       1.0  0.67660  0.75290  0.73050  1.0000 0.0708531196
C   C36       1.0  0.32340  0.25290  0.76950  1.0000 0.0708531196
C   C37       1.0  0.40950  0.19940  0.33440  1.0000 -0.1317136615
C   C38       1.0  0.59050  0.69940  0.16560  1.0000 -0.1317136615
C   C39       1.0  0.59050  0.80060  0.66560  1.0000 -0.1317136615
C   C40       1.0  0.40950  0.30060  0.83440  1.0000 -0.1317136615
C   C41       1.0  0.44570  0.10600  0.44410  1.0000 0.6393208838
C   C42       1.0  0.55430  0.60600  0.05590  1.0000 0.6393208838
C   C43       1.0  0.55430  0.89400  0.55590  1.0000 0.6393208838
C   C44       1.0  0.44570  0.39400  0.94410  1.0000 0.6393208838
C   C45       1.0  0.04910  0.39580  0.08010  1.0000 0.6393208838
C   C46       1.0  0.95090  0.89580  0.41990  1.0000 0.6393208838
C   C47       1.0  0.95090  0.60420  0.91990  1.0000 0.6393208838
C   C48       1.0  0.04910  0.10420  0.58010  1.0000 0.6393208838
C   C49       1.0  0.13850  0.95680  0.96660  1.0000 -0.1389709638
C   C50       1.0  0.86150  0.45680  0.53340  1.0000 -0.1389709638
C   C51       1.0  0.86150  0.04320  0.03340  1.0000 -0.1389709638
C   C52       1.0  0.13850  0.54320  0.46660  1.0000 -0.1389709638
C   C53       1.0  0.07660  0.96300  0.86500  1.0000 -0.0895781451
C   C54       1.0  0.92340  0.46300  0.63500  1.0000 -0.0895781451
C   C55       1.0  0.92340  0.03700  0.13500  1.0000 -0.0895781451
C   C56       1.0  0.07660  0.53700  0.36500  1.0000 -0.0895781451
C   C57       1.0  0.94010  0.99560  0.81550  1.0000 0.0055834021
C   C58       1.0  0.05990  0.49560  0.68450  1.0000 0.0055834021
C   C59       1.0  0.05990  0.00440  0.18450  1.0000 0.0055834021
C   C60       1.0  0.94010  0.50440  0.31550  1.0000 0.0055834021
C   C61       1.0  0.87000  0.02100  0.86850  1.0000 -0.1317136615
C   C62       1.0  0.13000  0.52100  0.63150  1.0000 -0.1317136615
C   C63       1.0  0.13000  0.97900  0.13150  1.0000 -0.1317136615
C   C64       1.0  0.87000  0.47900  0.36850  1.0000 -0.1317136615
C   C65       1.0  0.93090  0.01620  0.97480  1.0000 0.0708531196
C   C66       1.0  0.06910  0.51620  0.52520  1.0000 0.0708531196
C   C67       1.0  0.06910  0.98380  0.02520  1.0000 0.0708531196
C   C68       1.0  0.93090  0.48380  0.47480  1.0000 0.0708531196
C   C69       1.0  0.87210  0.00200  0.70300  1.0000 0.5485655553
C   C70       1.0  0.12790  0.50200  0.79700  1.0000 0.5485655553
C   C71       1.0  0.12790  0.99800  0.29700  1.0000 0.5485655553
C   C72       1.0  0.87210  0.49800  0.20300  1.0000 0.5485655553
O   O1        1.0  0.57840  0.10250  0.45480  1.0000 -0.5940736868
O   O2        1.0  0.42160  0.60250  0.04520  1.0000 -0.5940736868
O   O3        1.0  0.42160  0.89750  0.54520  1.0000 -0.5940736868
O   O4        1.0  0.57840  0.39750  0.95480  1.0000 -0.5940736868
O   O5        1.0  0.38710  0.06996  0.48530  1.0000 -0.6300374681
O   O6        1.0  0.61290  0.56996  0.01470  1.0000 -0.6300374681
O   O7        1.0  0.61290  0.93004  0.51470  1.0000 -0.6300374681
O   O8        1.0  0.38710  0.43004  0.98530  1.0000 -0.6300374681
O   O9        1.0  0.91240  0.39497  0.06090  1.0000 -0.5940736868
O   O10       1.0  0.08760  0.89497  0.43910  1.0000 -0.5940736868
O   O11       1.0  0.08760  0.60503  0.93910  1.0000 -0.5940736868
O   O12       1.0  0.91240  0.10503  0.56090  1.0000 -0.5940736868
O   O13       1.0  0.11260  0.43800  0.05190  1.0000 -0.6300374681
O   O14       1.0  0.88740  0.93800  0.44810  1.0000 -0.6300374681
O   O15       1.0  0.88740  0.56200  0.94810  1.0000 -0.6300374681
O   O16       1.0  0.11260  0.06200  0.55190  1.0000 -0.6300374681
O   O17       1.0  0.74750  0.02920  0.65850  1.0000 -0.5511640721
O   O18       1.0  0.25250  0.52920  0.84150  1.0000 -0.5511640721
O   O19       1.0  0.25250  0.97080  0.34150  1.0000 -0.5511640721
O   O20       1.0  0.74750  0.47080  0.15850  1.0000 -0.5511640721
O   O21       1.0  0.94070  0.98020  0.65350  1.0000 -0.5639268123
O   O22       1.0  0.05930  0.48020  0.84650  1.0000 -0.5639268123
O   O23       1.0  0.05930  0.01980  0.34650  1.0000 -0.5639268123
O   O24       1.0  0.94070  0.51980  0.15350  1.0000 -0.5639268123
O   O25       1.0  0.52500  0.98750  0.32480  1.0000 -0.3167458885
O   O26       1.0  0.47500  0.48750  0.17520  1.0000 -0.3148781174
O   O27       1.0  0.47500  0.01250  0.67520  1.0000 -0.3148781174
O   O28       1.0  0.52500  0.51250  0.82480  1.0000 -0.3148781174
O   O29       1.0  0.79180  0.05850  0.34340  1.0000 -0.3533915766
O   O30       1.0  0.20820  0.55850  0.15660  1.0000 -0.3533915766
O   O31       1.0  0.20820  0.94150  0.65660  1.0000 -0.3533915766
O   O32       1.0  0.79180  0.44150  0.84340  1.0000 -0.3533915766
