# DDEC6 charges by PACMAN v1.1 (https://github.com/mtap-research/PACMAN-charge/)
data_2015[Ga][nan]3[FSR]1
_chemical_formula_sum              "Ga8 P16 H16 C8 O80"
_cell_length_a       6.21517
_cell_length_b       18.8391
_cell_length_c       17.5506
_cell_angle_alpha    90
_cell_angle_beta     108.494
_cell_angle_gamma    90

_symmetry_space_group_name_H-M    "P 1"
_symmetry_Int_Tables_number       1

loop_
  _symmetry_equiv_pos_as_xyz
  'x, y, z'

loop_
  _atom_site_type_symbol
  _atom_site_label
  _atom_site_symmetry_multiplicity
  _atom_site_fract_x
  _atom_site_fract_y
  _atom_site_fract_z
  _atom_site_occupancy
  _atom_site_charge
Ga  Ga1       1.0  0.16957  0.44126  0.40229  1.0000 1.4352720522
Ga  Ga2       1.0  0.83043  0.94126  0.09771  1.0000 1.4329403979
Ga  Ga3       1.0  0.83043  0.55874  0.59771  1.0000 1.4329403979
Ga  Ga4       1.0  0.16957  0.05874  0.90229  1.0000 1.4329403979
Ga  Ga5       1.0  0.83067  0.65813  0.11710  1.0000 1.4525140368
Ga  Ga6       1.0  0.16933  0.15813  0.38290  1.0000 1.4525140368
Ga  Ga7       1.0  0.16933  0.34187  0.88290  1.0000 1.4525140368
Ga  Ga8       1.0  0.83067  0.84187  0.61710  1.0000 1.4525140368
P   P1        1.0  0.29182  0.55873  0.55068  1.0000 1.5958628598
P   P2        1.0  0.70818  0.05873  0.94932  1.0000 1.5958628598
P   P3        1.0  0.70818  0.44127  0.44932  1.0000 1.594586327
P   P4        1.0  0.29182  0.94127  0.05068  1.0000 1.5958628598
P   P5        1.0  0.07517  0.53572  0.23892  1.0000 1.5680581218
P   P6        1.0  0.92483  0.03572  0.26108  1.0000 1.5642157339
P   P7        1.0  0.92483  0.46428  0.76108  1.0000 1.5680581218
P   P8        1.0  0.07517  0.96428  0.73892  1.0000 1.5680581218
P   P9        1.0  0.29969  0.69046  0.07876  1.0000 1.5680581218
P   P10       1.0  0.70031  0.19046  0.42124  1.0000 1.5680581218
P   P11       1.0  0.70031  0.30954  0.92124  1.0000 1.5680581218
P   P12       1.0  0.29969  0.80954  0.57876  1.0000 1.5680581218
P   P13       1.0  0.79534  0.53097  0.98244  1.0000 1.3053389731
P   P14       1.0  0.20466  0.03097  0.51756  1.0000 1.3053389731
P   P15       1.0  0.20466  0.46903  0.01756  1.0000 1.3053389731
P   P16       1.0  0.79534  0.96903  0.48244  1.0000 1.3040227436
H   H1        1.0  0.24860  0.66010  0.51840  1.0000 0.4068377671
H   H2        1.0  0.75140  0.16010  0.98160  1.0000 0.4045069956
H   H3        1.0  0.75140  0.33990  0.48160  1.0000 0.4068377671
H   H4        1.0  0.24860  0.83990  0.01840  1.0000 0.4068377671
H   H5        1.0  0.99050  0.47650  0.14080  1.0000 0.3681500696
H   H6        1.0  0.00950  0.97650  0.35920  1.0000 0.3681500696
H   H7        1.0  0.00950  0.52350  0.85920  1.0000 0.3681500696
H   H8        1.0  0.99050  0.02350  0.64080  1.0000 0.3681500696
H   H9        1.0  0.30200  0.56830  0.18730  1.0000 0.4068377671
H   H10       1.0  0.69800  0.06830  0.31270  1.0000 0.4068377671
H   H11       1.0  0.69800  0.43170  0.81270  1.0000 0.4068377671
H   H12       1.0  0.30200  0.93170  0.68730  1.0000 0.4068377671
H   H13       1.0  0.22220  0.62880  0.98150  1.0000 0.3839234777
H   H14       1.0  0.77780  0.12880  0.51850  1.0000 0.3839234777
H   H15       1.0  0.77780  0.37120  0.01850  1.0000 0.3839234777
H   H16       1.0  0.22220  0.87120  0.48150  1.0000 0.3839234777
C   C1        1.0  0.88630  0.80080  0.15510  1.0000 0.5022969388
C   C2        1.0  0.11370  0.30080  0.34490  1.0000 0.5022969388
C   C3        1.0  0.11370  0.19920  0.84490  1.0000 0.5022969388
C   C4        1.0  0.88630  0.69920  0.65510  1.0000 0.5022969388
C   C5        1.0  0.79620  0.79590  0.06250  1.0000 0.4870990955
C   C6        1.0  0.20380  0.29590  0.43750  1.0000 0.4870990955
C   C7        1.0  0.20380  0.20410  0.93750  1.0000 0.4870990955
C   C8        1.0  0.79620  0.70410  0.56250  1.0000 0.4870990955
O   O1        1.0  0.25819  0.49210  0.50049  1.0000 -0.7301692054
O   O2        1.0  0.74181  0.99210  0.99951  1.0000 -0.7301692054
O   O3        1.0  0.74181  0.50790  0.49951  1.0000 -0.7301692054
O   O4        1.0  0.25819  0.00790  0.00049  1.0000 -0.7301692054
O   O5        1.0  0.09774  0.51849  0.32424  1.0000 -0.6991767294
O   O6        1.0  0.90226  0.01849  0.17576  1.0000 -0.6991767294
O   O7        1.0  0.90226  0.48151  0.67576  1.0000 -0.6991767294
O   O8        1.0  0.09774  0.98151  0.82424  1.0000 -0.6991767294
O   O9        1.0  0.85497  0.44167  0.39467  1.0000 -0.7224509376
O   O10       1.0  0.14503  0.94167  0.10533  1.0000 -0.7224509376
O   O11       1.0  0.14503  0.55833  0.60533  1.0000 -0.7224509376
O   O12       1.0  0.85497  0.05833  0.89467  1.0000 -0.7224509376
O   O13       1.0  0.46607  0.43504  0.39187  1.0000 -0.7518128491
O   O14       1.0  0.53393  0.93504  0.10813  1.0000 -0.7518128491
O   O15       1.0  0.53393  0.56496  0.60813  1.0000 -0.7518128491
O   O16       1.0  0.46607  0.06496  0.89187  1.0000 -0.7518128491
O   O17       1.0  0.07894  0.36175  0.31574  1.0000 -0.4200657762
O   O18       1.0  0.92106  0.86175  0.18426  1.0000 -0.4200657762
O   O19       1.0  0.92106  0.63825  0.68426  1.0000 -0.4200657762
O   O20       1.0  0.07894  0.13825  0.81574  1.0000 -0.4200657762
O   O21       1.0  0.23334  0.35303  0.47444  1.0000 -0.3974123455
O   O22       1.0  0.76666  0.85303  0.02556  1.0000 -0.3974123455
O   O23       1.0  0.76666  0.64697  0.52556  1.0000 -0.3974123455
O   O24       1.0  0.23334  0.14697  0.97444  1.0000 -0.3974123455
O   O25       1.0  0.23142  0.62326  0.49232  1.0000 -0.5605648813
O   O26       1.0  0.76858  0.12326  0.00768  1.0000 -0.5605648813
O   O27       1.0  0.76858  0.37674  0.50768  1.0000 -0.5605648813
O   O28       1.0  0.23142  0.87674  0.99232  1.0000 -0.5605648813
O   O29       1.0  0.90686  0.59471  0.20856  1.0000 -0.7224509376
O   O30       1.0  0.09314  0.09471  0.29144  1.0000 -0.7224509376
O   O31       1.0  0.09314  0.40529  0.79144  1.0000 -0.7301692054
O   O32       1.0  0.90686  0.90529  0.70856  1.0000 -0.7224509376
O   O33       1.0  0.00350  0.46763  0.18780  1.0000 -0.5605648813
O   O34       1.0  0.99650  0.96763  0.31220  1.0000 -0.5605648813
O   O35       1.0  0.99650  0.53237  0.81220  1.0000 -0.5605648813
O   O36       1.0  0.00350  0.03237  0.68780  1.0000 -0.5605648813
O   O37       1.0  0.31310  0.55873  0.23400  1.0000 -0.5474805988
O   O38       1.0  0.68690  0.05873  0.26600  1.0000 -0.5474805988
O   O39       1.0  0.68690  0.44127  0.76600  1.0000 -0.5474805988
O   O40       1.0  0.31310  0.94127  0.73400  1.0000 -0.5474805988
O   O41       1.0  0.52960  0.65810  0.12110  1.0000 -0.7518128491
O   O42       1.0  0.47040  0.15810  0.37890  1.0000 -0.7553483503
O   O43       1.0  0.47040  0.34190  0.87890  1.0000 -0.7553483503
O   O44       1.0  0.52960  0.84190  0.62110  1.0000 -0.7553483503
O   O45       1.0  0.74340  0.58321  0.03450  1.0000 -0.6991767294
O   O46       1.0  0.25660  0.08321  0.46550  1.0000 -0.6991767294
O   O47       1.0  0.25660  0.41679  0.96550  1.0000 -0.6991767294
O   O48       1.0  0.74340  0.91679  0.53450  1.0000 -0.6991767294
O   O49       1.0  0.91556  0.74359  0.19216  1.0000 -0.4259650789
O   O50       1.0  0.08444  0.24359  0.30784  1.0000 -0.4259650789
O   O51       1.0  0.08444  0.25641  0.80784  1.0000 -0.4259650789
O   O52       1.0  0.91556  0.75641  0.69216  1.0000 -0.4259650789
O   O53       1.0  0.76128  0.73486  0.03318  1.0000 -0.4437311373
O   O54       1.0  0.23872  0.23486  0.46682  1.0000 -0.4437311373
O   O55       1.0  0.23872  0.26514  0.96682  1.0000 -0.4437311373
O   O56       1.0  0.76128  0.76514  0.53318  1.0000 -0.4437311373
O   O57       1.0  0.14217  0.65072  0.11647  1.0000 -0.8054843999
O   O58       1.0  0.85783  0.15072  0.38353  1.0000 -0.8024298407
O   O59       1.0  0.85783  0.34928  0.88353  1.0000 -0.8054843999
O   O60       1.0  0.14217  0.84928  0.61647  1.0000 -0.8024298407
O   O61       1.0  0.22060  0.67190  0.98720  1.0000 -0.5605648813
O   O62       1.0  0.77940  0.17190  0.51280  1.0000 -0.5605648813
O   O63       1.0  0.77940  0.32810  0.01280  1.0000 -0.5605648813
O   O64       1.0  0.22060  0.82810  0.48720  1.0000 -0.5605648813
O   O65       1.0  0.29400  0.76901  0.08610  1.0000 -0.7224509376
O   O66       1.0  0.70600  0.26901  0.41390  1.0000 -0.7301692054
O   O67       1.0  0.70600  0.23099  0.91390  1.0000 -0.7301692054
O   O68       1.0  0.29400  0.73099  0.58610  1.0000 -0.7224509376
O   O69       1.0  0.92220  0.46780  0.03160  1.0000 -0.1630020372
O   O70       1.0  0.07780  0.96780  0.46840  1.0000 -0.1630020372
O   O71       1.0  0.07780  0.53220  0.96840  1.0000 -0.1630020372
O   O72       1.0  0.92220  0.03220  0.53160  1.0000 -0.1630020372
O   O73       1.0  0.92720  0.56870  0.93490  1.0000 -0.1021953009
O   O74       1.0  0.07280  0.06870  0.56510  1.0000 -0.1021953009
O   O75       1.0  0.07280  0.43130  0.06510  1.0000 -0.1021953009
O   O76       1.0  0.92720  0.93130  0.43490  1.0000 -0.1021953009
O   O77       1.0  0.54940  0.50640  0.91040  1.0000 -0.6828635193
O   O78       1.0  0.45060  0.00640  0.58960  1.0000 -0.6828635193
O   O79       1.0  0.45060  0.49360  0.08960  1.0000 -0.6828635193
O   O80       1.0  0.54940  0.99360  0.41040  1.0000 -0.6828635193
