# DDEC6 charges by PACMAN v1.1 (https://github.com/mtap-research/PACMAN-charge/)
data_2015[Cd][pyr]3[FSR]1
_chemical_formula_sum              "Cd4 H96 C120 N48"
_cell_length_a       16.528
_cell_length_b       17.573
_cell_length_c       17.595
_cell_angle_alpha    90
_cell_angle_beta     90
_cell_angle_gamma    90

_symmetry_space_group_name_H-M    "P 1"
_symmetry_Int_Tables_number       1

loop_
  _symmetry_equiv_pos_as_xyz
  'x, y, z'

loop_
  _atom_site_type_symbol
  _atom_site_label
  _atom_site_symmetry_multiplicity
  _atom_site_fract_x
  _atom_site_fract_y
  _atom_site_fract_z
  _atom_site_occupancy
  _atom_site_charge
Cd  Cd1       1.0  0.00000  0.00000  0.50000  1.0000 0.7046851549
Cd  Cd2       1.0  0.00000  0.50000  0.00000  1.0000 0.7046851549
Cd  Cd3       1.0  0.50000  0.00000  0.00000  1.0000 0.7046851549
Cd  Cd4       1.0  0.50000  0.50000  0.50000  1.0000 0.7046851549
H   H1        1.0  0.22040  0.76410  0.39980  1.0000 0.1283095811
H   H2        1.0  0.77960  0.73590  0.89980  1.0000 0.1283095811
H   H3        1.0  0.72040  0.23590  0.10020  1.0000 0.1283095811
H   H4        1.0  0.27960  0.26410  0.60020  1.0000 0.1283095811
H   H5        1.0  0.77960  0.23590  0.60020  1.0000 0.1283095811
H   H6        1.0  0.22040  0.26410  0.10020  1.0000 0.1283095811
H   H7        1.0  0.27960  0.76410  0.89980  1.0000 0.1283095811
H   H8        1.0  0.72040  0.73590  0.39980  1.0000 0.1283095811
H   H9        1.0  0.17110  0.89090  0.44940  1.0000 0.1006653573
H   H10       1.0  0.82890  0.60910  0.94940  1.0000 0.1006653573
H   H11       1.0  0.67110  0.10910  0.05060  1.0000 0.1006653573
H   H12       1.0  0.32890  0.39090  0.55060  1.0000 0.1006653573
H   H13       1.0  0.82890  0.10910  0.55060  1.0000 0.1006653573
H   H14       1.0  0.17110  0.39090  0.05060  1.0000 0.1006653573
H   H15       1.0  0.32890  0.89090  0.94940  1.0000 0.1006653573
H   H16       1.0  0.67110  0.60910  0.44940  1.0000 0.1006653573
H   H17       1.0  0.28100  0.90330  0.22740  1.0000 0.1228924148
H   H18       1.0  0.71900  0.59670  0.72740  1.0000 0.1228924148
H   H19       1.0  0.78100  0.09670  0.27260  1.0000 0.1228924148
H   H20       1.0  0.21900  0.40330  0.77260  1.0000 0.1228924148
H   H21       1.0  0.71900  0.09670  0.77260  1.0000 0.1228924148
H   H22       1.0  0.28100  0.40330  0.27260  1.0000 0.1228924148
H   H23       1.0  0.21900  0.90330  0.72740  1.0000 0.1228924148
H   H24       1.0  0.78100  0.59670  0.22740  1.0000 0.1228924148
H   H25       1.0  0.41680  0.71890  0.27220  1.0000 0.1228924148
H   H26       1.0  0.58320  0.78110  0.77220  1.0000 0.1228924148
H   H27       1.0  0.91680  0.28110  0.22780  1.0000 0.1228924148
H   H28       1.0  0.08320  0.21890  0.72780  1.0000 0.1228924148
H   H29       1.0  0.58320  0.28110  0.72780  1.0000 0.1228924148
H   H30       1.0  0.41680  0.21890  0.22780  1.0000 0.1228924148
H   H31       1.0  0.08320  0.71890  0.77220  1.0000 0.1228924148
H   H32       1.0  0.91680  0.78110  0.27220  1.0000 0.1228924148
H   H33       1.0  0.37110  0.93560  0.14420  1.0000 0.1006653573
H   H34       1.0  0.62890  0.56440  0.64420  1.0000 0.1006653573
H   H35       1.0  0.87110  0.06440  0.35580  1.0000 0.1006653573
H   H36       1.0  0.12890  0.43560  0.85580  1.0000 0.1006653573
H   H37       1.0  0.62890  0.06440  0.85580  1.0000 0.1006653573
H   H38       1.0  0.37110  0.43560  0.35580  1.0000 0.1006653573
H   H39       1.0  0.12890  0.93560  0.64420  1.0000 0.1006653573
H   H40       1.0  0.87110  0.56440  0.14420  1.0000 0.1006653573
H   H41       1.0  0.45610  0.65620  0.39590  1.0000 0.1006653573
H   H42       1.0  0.54390  0.84380  0.89590  1.0000 0.1006653573
H   H43       1.0  0.95610  0.34380  0.10410  1.0000 0.1006653573
H   H44       1.0  0.04390  0.15620  0.60410  1.0000 0.1006653573
H   H45       1.0  0.54390  0.34380  0.60410  1.0000 0.1006653573
H   H46       1.0  0.45610  0.15620  0.10410  1.0000 0.1006653573
H   H47       1.0  0.04390  0.65620  0.89590  1.0000 0.1006653573
H   H48       1.0  0.95610  0.84380  0.39590  1.0000 0.1006653573
H   H49       1.0  0.12570  0.91990  0.23160  1.0000 0.1228924148
H   H50       1.0  0.87430  0.58010  0.73160  1.0000 0.1228924148
H   H51       1.0  0.62570  0.08010  0.26840  1.0000 0.1228924148
H   H52       1.0  0.37430  0.41990  0.76840  1.0000 0.1228924148
H   H53       1.0  0.87430  0.08010  0.76840  1.0000 0.1228924148
H   H54       1.0  0.12570  0.41990  0.26840  1.0000 0.1228924148
H   H55       1.0  0.37430  0.91990  0.73160  1.0000 0.1228924148
H   H56       1.0  0.62570  0.58010  0.23160  1.0000 0.1228924148
H   H57       1.0  0.21960  0.62280  0.40980  1.0000 0.1228924148
H   H58       1.0  0.78040  0.87720  0.90980  1.0000 0.1228924148
H   H59       1.0  0.71960  0.37720  0.09020  1.0000 0.1228924148
H   H60       1.0  0.28040  0.12280  0.59020  1.0000 0.1228924148
H   H61       1.0  0.78040  0.37720  0.59020  1.0000 0.1228924148
H   H62       1.0  0.21960  0.12280  0.09020  1.0000 0.1228924148
H   H63       1.0  0.28040  0.62280  0.90980  1.0000 0.1228924148
H   H64       1.0  0.71960  0.87720  0.40980  1.0000 0.1228924148
H   H65       1.0  0.02400  0.98890  0.30600  1.0000 0.1075647979
H   H66       1.0  0.97600  0.51110  0.80600  1.0000 0.1075647979
H   H67       1.0  0.52400  0.01110  0.19400  1.0000 0.1075647979
H   H68       1.0  0.47600  0.48890  0.69400  1.0000 0.1075647979
H   H69       1.0  0.97600  0.01110  0.69400  1.0000 0.1075647979
H   H70       1.0  0.02400  0.48890  0.19400  1.0000 0.1075647979
H   H71       1.0  0.47600  0.98890  0.80600  1.0000 0.1075647979
H   H72       1.0  0.52400  0.51110  0.30600  1.0000 0.1075647979
H   H73       1.0  0.49070  0.74400  0.16860  1.0000 0.1228924148
H   H74       1.0  0.50930  0.75600  0.66860  1.0000 0.1228924148
H   H75       1.0  0.99070  0.25600  0.33140  1.0000 0.1228924148
H   H76       1.0  0.00930  0.24400  0.83140  1.0000 0.1228924148
H   H77       1.0  0.50930  0.25600  0.83140  1.0000 0.1228924148
H   H78       1.0  0.49070  0.24400  0.33140  1.0000 0.1228924148
H   H79       1.0  0.00930  0.74400  0.66860  1.0000 0.1228924148
H   H80       1.0  0.99070  0.75600  0.16860  1.0000 0.1228924148
H   H81       1.0  0.54800  0.81490  0.06350  1.0000 0.1075647979
H   H82       1.0  0.45200  0.68510  0.56350  1.0000 0.1075647979
H   H83       1.0  0.04800  0.18510  0.43650  1.0000 0.1075647979
H   H84       1.0  0.95200  0.31490  0.93650  1.0000 0.1075647979
H   H85       1.0  0.45200  0.18510  0.93650  1.0000 0.1075647979
H   H86       1.0  0.54800  0.31490  0.43650  1.0000 0.1075647979
H   H87       1.0  0.95200  0.81490  0.56350  1.0000 0.1075647979
H   H88       1.0  0.04800  0.68510  0.06350  1.0000 0.1075647979
H   H89       1.0  0.28820  0.52040  0.47560  1.0000 0.1075647979
H   H90       1.0  0.71180  0.97960  0.97560  1.0000 0.1075647979
H   H91       1.0  0.78820  0.47960  0.02440  1.0000 0.1075647979
H   H92       1.0  0.21180  0.02040  0.52440  1.0000 0.1075647979
H   H93       1.0  0.71180  0.47960  0.52440  1.0000 0.1075647979
H   H94       1.0  0.28820  0.02040  0.02440  1.0000 0.1075647979
H   H95       1.0  0.21180  0.52040  0.97560  1.0000 0.1075647979
H   H96       1.0  0.78820  0.97960  0.47560  1.0000 0.1075647979
C   C1        1.0  0.32110  0.73300  0.34430  1.0000 0.1897689725
C   C2        1.0  0.67890  0.76700  0.84430  1.0000 0.1897689725
C   C3        1.0  0.82110  0.26700  0.15570  1.0000 0.1897689725
C   C4        1.0  0.17890  0.23300  0.65570  1.0000 0.1897689725
C   C5        1.0  0.67890  0.26700  0.65570  1.0000 0.1897689725
C   C6        1.0  0.32110  0.23300  0.15570  1.0000 0.1897689725
C   C7        1.0  0.17890  0.73300  0.84430  1.0000 0.1897689725
C   C8        1.0  0.82110  0.76700  0.34430  1.0000 0.1897689725
C   C9        1.0  0.24240  0.84110  0.31690  1.0000 0.1831814122
C   C10       1.0  0.75760  0.65890  0.81690  1.0000 0.1831814122
C   C11       1.0  0.74240  0.15890  0.18310  1.0000 0.1831814122
C   C12       1.0  0.25760  0.34110  0.68310  1.0000 0.1831814122
C   C13       1.0  0.75760  0.15890  0.68310  1.0000 0.1831814122
C   C14       1.0  0.24240  0.34110  0.18310  1.0000 0.1831814122
C   C15       1.0  0.25760  0.84110  0.81690  1.0000 0.1831814122
C   C16       1.0  0.74240  0.65890  0.31690  1.0000 0.1831814122
C   C17       1.0  0.25540  0.77690  0.36050  1.0000 -0.2821718234
C   C18       1.0  0.74460  0.72310  0.86050  1.0000 -0.2821718234
C   C19       1.0  0.75540  0.22310  0.13950  1.0000 -0.2821718234
C   C20       1.0  0.24460  0.27690  0.63950  1.0000 -0.2821718234
C   C21       1.0  0.74460  0.22310  0.63950  1.0000 -0.2821718234
C   C22       1.0  0.25540  0.27690  0.13950  1.0000 -0.2821718234
C   C23       1.0  0.24460  0.77690  0.86050  1.0000 -0.2821718234
C   C24       1.0  0.75540  0.72310  0.36050  1.0000 -0.2821718234
C   C25       1.0  0.14720  0.90750  0.40460  1.0000 0.0319131982
C   C26       1.0  0.85280  0.59250  0.90460  1.0000 0.0319131982
C   C27       1.0  0.64720  0.09250  0.09540  1.0000 0.0319131982
C   C28       1.0  0.35280  0.40750  0.59540  1.0000 0.0319131982
C   C29       1.0  0.85280  0.09250  0.59540  1.0000 0.0319131982
C   C30       1.0  0.14720  0.40750  0.09540  1.0000 0.0319131982
C   C31       1.0  0.35280  0.90750  0.90460  1.0000 0.0319131982
C   C32       1.0  0.64720  0.59250  0.40460  1.0000 0.0319131982
C   C33       1.0  0.35830  0.81540  0.24140  1.0000 0.1897689725
C   C34       1.0  0.64170  0.68460  0.74140  1.0000 0.1897689725
C   C35       1.0  0.85830  0.18460  0.25860  1.0000 0.1897689725
C   C36       1.0  0.14170  0.31540  0.75860  1.0000 0.1897689725
C   C37       1.0  0.64170  0.18460  0.75860  1.0000 0.1897689725
C   C38       1.0  0.35830  0.31540  0.25860  1.0000 0.1897689725
C   C39       1.0  0.14170  0.81540  0.74140  1.0000 0.1897689725
C   C40       1.0  0.85830  0.68460  0.24140  1.0000 0.1897689725
C   C41       1.0  0.29200  0.86060  0.25690  1.0000 -0.2916758695
C   C42       1.0  0.70800  0.63940  0.75690  1.0000 -0.2916758695
C   C43       1.0  0.79200  0.13940  0.24310  1.0000 -0.2916758695
C   C44       1.0  0.20800  0.36060  0.74310  1.0000 -0.2916758695
C   C45       1.0  0.70800  0.13940  0.74310  1.0000 -0.2916758695
C   C46       1.0  0.29200  0.36060  0.24310  1.0000 -0.2916758695
C   C47       1.0  0.20800  0.86060  0.75690  1.0000 -0.2916758695
C   C48       1.0  0.79200  0.63940  0.25690  1.0000 -0.2916758695
C   C49       1.0  0.37320  0.75030  0.28370  1.0000 -0.2957558151
C   C50       1.0  0.62680  0.74970  0.78370  1.0000 -0.2916758695
C   C51       1.0  0.87320  0.24970  0.21630  1.0000 -0.2916758695
C   C52       1.0  0.12680  0.25030  0.71630  1.0000 -0.2957558151
C   C53       1.0  0.62680  0.24970  0.71630  1.0000 -0.2916758695
C   C54       1.0  0.37320  0.25030  0.21630  1.0000 -0.2957558151
C   C55       1.0  0.12680  0.75030  0.78370  1.0000 -0.2957558151
C   C56       1.0  0.87320  0.74970  0.28370  1.0000 -0.2957558151
C   C57       1.0  0.40810  0.89650  0.13670  1.0000 0.0385588255
C   C58       1.0  0.59190  0.60350  0.63670  1.0000 0.0385588255
C   C59       1.0  0.90810  0.10350  0.36330  1.0000 0.0385588255
C   C60       1.0  0.09190  0.39650  0.86330  1.0000 0.0385588255
C   C61       1.0  0.59190  0.10350  0.86330  1.0000 0.0385588255
C   C62       1.0  0.40810  0.39650  0.36330  1.0000 0.0385588255
C   C63       1.0  0.09190  0.89650  0.63670  1.0000 0.0385588255
C   C64       1.0  0.90810  0.60350  0.13670  1.0000 0.0385588255
C   C65       1.0  0.40610  0.63560  0.40840  1.0000 0.0177613666
C   C66       1.0  0.59390  0.86440  0.90840  1.0000 0.0177613666
C   C67       1.0  0.90610  0.36440  0.09160  1.0000 0.0177613666
C   C68       1.0  0.09390  0.13560  0.59160  1.0000 0.0177613666
C   C69       1.0  0.59390  0.36440  0.59160  1.0000 0.0177613666
C   C70       1.0  0.40610  0.13560  0.09160  1.0000 0.0177613666
C   C71       1.0  0.09390  0.63560  0.90840  1.0000 0.0177613666
C   C72       1.0  0.90610  0.86440  0.40840  1.0000 0.0177613666
C   C73       1.0  0.12280  0.92280  0.28430  1.0000 -0.1413544288
C   C74       1.0  0.87720  0.57720  0.78430  1.0000 -0.1413544288
C   C75       1.0  0.62280  0.07720  0.21570  1.0000 -0.1413544288
C   C76       1.0  0.37720  0.42280  0.71570  1.0000 -0.1413544288
C   C77       1.0  0.87720  0.07720  0.71570  1.0000 -0.1456775482
C   C78       1.0  0.12280  0.42280  0.21570  1.0000 -0.1456775482
C   C79       1.0  0.37720  0.92280  0.78430  1.0000 -0.1413544288
C   C80       1.0  0.62280  0.57720  0.28430  1.0000 -0.1413544288
C   C81       1.0  0.27520  0.61720  0.41550  1.0000 -0.1413544288
C   C82       1.0  0.72480  0.88280  0.91550  1.0000 -0.1413544288
C   C83       1.0  0.77520  0.38280  0.08450  1.0000 -0.1413544288
C   C84       1.0  0.22480  0.11720  0.58450  1.0000 -0.1413544288
C   C85       1.0  0.72480  0.38280  0.58450  1.0000 -0.1413544288
C   C86       1.0  0.27520  0.11720  0.08450  1.0000 -0.1413544288
C   C87       1.0  0.22480  0.61720  0.91550  1.0000 -0.1413544288
C   C88       1.0  0.77520  0.88280  0.41550  1.0000 -0.1413544288
C   C89       1.0  0.06670  0.96070  0.32580  1.0000 -0.0729619734
C   C90       1.0  0.93330  0.53930  0.82580  1.0000 -0.0729619734
C   C91       1.0  0.56670  0.03930  0.17420  1.0000 -0.0729619734
C   C92       1.0  0.43330  0.46070  0.67420  1.0000 -0.0729619734
C   C93       1.0  0.93330  0.03930  0.67420  1.0000 -0.0729619734
C   C94       1.0  0.06670  0.46070  0.17420  1.0000 -0.0729619734
C   C95       1.0  0.43330  0.96070  0.82580  1.0000 -0.0729619734
C   C96       1.0  0.56670  0.53930  0.32580  1.0000 -0.0729619734
C   C97       1.0  0.47340  0.79110  0.15090  1.0000 -0.1413544288
C   C98       1.0  0.52660  0.70890  0.65090  1.0000 -0.1413544288
C   C99       1.0  0.97340  0.20890  0.34910  1.0000 -0.1413544288
C   C100      1.0  0.02660  0.29110  0.84910  1.0000 -0.1413544288
C   C101      1.0  0.52660  0.20890  0.84910  1.0000 -0.1413544288
C   C102      1.0  0.47340  0.29110  0.34910  1.0000 -0.1413544288
C   C103      1.0  0.02660  0.79110  0.65090  1.0000 -0.1413544288
C   C104      1.0  0.97340  0.70890  0.15090  1.0000 -0.1413544288
C   C105      1.0  0.50430  0.83060  0.09300  1.0000 -0.0598610275
C   C106      1.0  0.49570  0.66940  0.59300  1.0000 -0.0598610275
C   C107      1.0  0.00430  0.16940  0.40700  1.0000 -0.0598610275
C   C108      1.0  0.99570  0.33060  0.90700  1.0000 -0.0598610275
C   C109      1.0  0.49570  0.16940  0.90700  1.0000 -0.0598610275
C   C110      1.0  0.50430  0.33060  0.40700  1.0000 -0.0598610275
C   C111      1.0  0.99570  0.83060  0.59300  1.0000 -0.0598610275
C   C112      1.0  0.00430  0.66940  0.09300  1.0000 -0.0598610275
C   C113      1.0  0.31340  0.56120  0.45180  1.0000 -0.0729619734
C   C114      1.0  0.68660  0.93880  0.95180  1.0000 -0.0729619734
C   C115      1.0  0.81340  0.43880  0.04820  1.0000 -0.0729619734
C   C116      1.0  0.18660  0.06120  0.54820  1.0000 -0.0729619734
C   C117      1.0  0.68660  0.43880  0.54820  1.0000 -0.0729619734
C   C118      1.0  0.31340  0.06120  0.04820  1.0000 -0.0729619734
C   C119      1.0  0.18660  0.56120  0.95180  1.0000 -0.0729619734
C   C120      1.0  0.81340  0.93880  0.45180  1.0000 -0.0729619734
N   N1        1.0  0.33450  0.66540  0.38790  1.0000 0.0010909106
N   N2        1.0  0.66550  0.83460  0.88790  1.0000 0.0010909106
N   N3        1.0  0.83450  0.33460  0.11210  1.0000 0.0010909106
N   N4        1.0  0.16550  0.16540  0.61210  1.0000 0.0010909106
N   N5        1.0  0.66550  0.33460  0.61210  1.0000 0.0010909106
N   N6        1.0  0.33450  0.16540  0.11210  1.0000 0.0010909106
N   N7        1.0  0.16550  0.66540  0.88790  1.0000 0.0010909106
N   N8        1.0  0.83450  0.83460  0.38790  1.0000 0.0010909106
N   N9        1.0  0.41070  0.83420  0.17940  1.0000 0.0010909106
N   N10       1.0  0.58930  0.66580  0.67940  1.0000 0.0010909106
N   N11       1.0  0.91070  0.16580  0.32060  1.0000 0.0010909106
N   N12       1.0  0.08930  0.33420  0.82060  1.0000 0.0010909106
N   N13       1.0  0.58930  0.16580  0.82060  1.0000 0.0010909106
N   N14       1.0  0.41070  0.33420  0.32060  1.0000 0.0010909106
N   N15       1.0  0.08930  0.83420  0.67940  1.0000 0.0010909106
N   N16       1.0  0.91070  0.66580  0.17940  1.0000 0.0010909106
N   N17       1.0  0.17450  0.88990  0.33540  1.0000 0.0010909106
N   N18       1.0  0.82550  0.61010  0.83540  1.0000 0.0010909106
N   N19       1.0  0.67450  0.11010  0.16460  1.0000 0.0010909106
N   N20       1.0  0.32550  0.38990  0.66460  1.0000 0.0010909106
N   N21       1.0  0.82550  0.11010  0.66460  1.0000 0.0010909106
N   N22       1.0  0.17450  0.38990  0.16460  1.0000 0.0010909106
N   N23       1.0  0.32550  0.88990  0.83540  1.0000 0.0010909106
N   N24       1.0  0.67450  0.61010  0.33540  1.0000 0.0010909106
N   N25       1.0  0.08290  0.95080  0.40200  1.0000 -0.2916758695
N   N26       1.0  0.91710  0.54920  0.90200  1.0000 -0.2916758695
N   N27       1.0  0.58290  0.04920  0.09800  1.0000 -0.2916758695
N   N28       1.0  0.41710  0.45080  0.59800  1.0000 -0.2916758695
N   N29       1.0  0.91710  0.04920  0.59800  1.0000 -0.2916758695
N   N30       1.0  0.08290  0.45080  0.09800  1.0000 -0.2916758695
N   N31       1.0  0.41710  0.95080  0.90200  1.0000 -0.2916758695
N   N32       1.0  0.58290  0.54920  0.40200  1.0000 -0.2916758695
N   N33       1.0  0.46300  0.89740  0.08300  1.0000 -0.2916758695
N   N34       1.0  0.53700  0.60260  0.58300  1.0000 -0.2916758695
N   N35       1.0  0.96300  0.10260  0.41700  1.0000 -0.2916758695
N   N36       1.0  0.03700  0.39740  0.91700  1.0000 -0.2916758695
N   N37       1.0  0.53700  0.10260  0.91700  1.0000 -0.2916758695
N   N38       1.0  0.46300  0.39740  0.41700  1.0000 -0.2916758695
N   N39       1.0  0.03700  0.89740  0.58300  1.0000 -0.2916758695
N   N40       1.0  0.96300  0.60260  0.08300  1.0000 -0.2916758695
N   N41       1.0  0.39570  0.57280  0.44880  1.0000 -0.2916758695
N   N42       1.0  0.60430  0.92720  0.94880  1.0000 -0.2916758695
N   N43       1.0  0.89570  0.42720  0.05120  1.0000 -0.2916758695
N   N44       1.0  0.10430  0.07280  0.55120  1.0000 -0.2916758695
N   N45       1.0  0.60430  0.42720  0.55120  1.0000 -0.2916758695
N   N46       1.0  0.39570  0.07280  0.05120  1.0000 -0.2916758695
N   N47       1.0  0.10430  0.57280  0.94880  1.0000 -0.2916758695
N   N48       1.0  0.89570  0.92720  0.44880  1.0000 -0.2916758695
